# generated using pymatgen
data_Hf3Ti4(Br4F3)4
_symmetry_space_group_name_H-M   'P 1'
_cell_length_a   24.68675400
_cell_length_b   24.68675400
_cell_length_c   24.68675400
_cell_angle_alpha   90.00000000
_cell_angle_beta   90.00000000
_cell_angle_gamma   90.00000000
_symmetry_Int_Tables_number   1
_chemical_formula_structural   Hf3Ti4(Br4F3)4
_chemical_formula_sum   'Hf6 Ti8 Br32 F24'
_cell_volume   15044.99224258
_cell_formula_units_Z   2
loop_
 _symmetry_equiv_pos_site_id
 _symmetry_equiv_pos_as_xyz
  1  'x, y, z'
loop_
 _atom_site_type_symbol
 _atom_site_label
 _atom_site_symmetry_multiplicity
 _atom_site_fract_x
 _atom_site_fract_y
 _atom_site_fract_z
 _atom_site_occupancy
  Ti  Ti0  1  1.61667380  1.61667380  1.61667380  1
  Ti  Ti1  1  4.55501470  7.78836230  1.61667380  1
  Ti  Ti2  1  7.78836230  4.55501470  10.72670320  1
  Ti  Ti3  1  1.61667380  4.55501470  7.78836230  1
  Ti  Ti4  1  10.72670320  10.72670320  10.72670320  1
  Ti  Ti5  1  4.55501470  10.72670320  7.78836230  1
  Ti  Ti6  1  10.72670320  7.78836230  4.55501470  1
  Ti  Ti7  1  7.78836230  1.61667380  4.55501470  1
  Br  Br8  1  9.37772021  9.37772021  9.37772021  1
  Br  Br9  1  0.23500555  2.96429902  0.29742601  1
  Br  Br10  1  2.96565679  2.96565679  2.96565679  1
  Br  Br11  1  3.20738948  12.04595099  6.40669405  1
  Br  Br12  1  2.96429902  5.87426249  6.40669405  1
  Br  Br13  1  2.96429902  0.29742601  0.23500555  1
  Br  Br14  1  9.13598752  0.29742601  5.93668295  1
  Br  Br15  1  5.93668295  9.13598752  0.29742601  1
  Br  Br16  1  5.93668295  9.37907798  6.46911451  1
  Br  Br17  1  9.37907798  6.46911451  5.93668295  1
  Br  Br18  1  2.96565679  3.20603171  9.13734529  1
  Br  Br19  1  12.10837145  9.13598752  5.87426249  1
  Br  Br20  1  6.40669405  2.96429902  5.87426249  1
  Br  Br21  1  3.20738948  6.46911451  0.23500555  1
  Br  Br22  1  0.29742601  0.23500555  2.96429902  1
  Br  Br23  1  9.37907798  12.04595099  12.10837145  1
  Br  Br24  1  12.04595099  12.10837145  9.37907798  1
  Br  Br25  1  6.46911451  5.93668295  9.37907798  1
  Br  Br26  1  3.20603171  9.37772021  9.13734529  1
  Br  Br27  1  9.13734529  3.20603171  9.37772021  1
  Br  Br28  1  12.10837145  9.37907798  12.04595099  1
  Br  Br29  1  6.40669405  3.20738948  12.04595099  1
  Br  Br30  1  5.87426249  6.40669405  2.96429902  1
  Br  Br31  1  9.13734529  2.96565679  3.20603171  1
  Br  Br32  1  9.13598752  5.87426249  12.10837145  1
  Br  Br33  1  5.87426249  12.10837145  9.13598752  1
  Br  Br34  1  6.46911451  0.23500555  3.20738948  1
  Br  Br35  1  0.23500555  3.20738948  6.46911451  1
  Br  Br36  1  3.20603171  9.13734529  2.96565679  1
  Br  Br37  1  9.37772021  9.13734529  3.20603171  1
  Br  Br38  1  0.29742601  5.93668295  9.13598752  1
  Br  Br39  1  12.04595099  6.40669405  3.20738948  1
  Hf  Hf40  1  5.37134041  1.47781548  9.25832485  1
  Hf  Hf41  1  1.27199501  5.42376853  5.39765121  1
  Hf  Hf42  1  1.44741284  2.52566918  8.47708660  1
  Hf  Hf43  1  4.17467476  5.35894886  10.03956311  1
  Hf  Hf44  1  5.19592258  4.37591484  6.17888947  1
  Hf  Hf45  1  2.46866067  1.54263516  4.61641296  1
  F  F46  1  2.12174588  1.78370058  6.67919514  1
  F  F47  1  4.94180855  4.71338849  11.83745456  1
  F  F48  1  4.52158954  5.11788343  7.97678092  1
  F  F49  1  1.70152687  2.18819552  2.81852150  1
  F  F50  1  5.52727603  2.77531327  7.49761960  1
  F  F51  1  4.08072960  1.27253476  3.29768282  1
  F  F52  1  4.08453488  2.71647037  5.39765121  1
  F  F53  1  2.55880054  4.18511364  9.25832485  1
  F  F54  1  1.67161133  3.46780441  4.83038896  1
  F  F55  1  3.24177030  5.09900069  5.96491346  1
  F  F56  1  4.97172409  3.43377960  9.82558710  1
  F  F57  1  3.40156512  1.80258332  8.69106260  1
  F  F58  1  0.01658299  4.99444860  3.77114551  1
  F  F59  1  1.65314874  6.69463311  7.02415691  1
  F  F60  1  6.62675243  1.90713541  10.88483055  1
  F  F61  1  4.99018668  0.20695090  7.63181915  1
  F  F62  1  -0.13163404  3.45079201  1.73365720  1
  F  F63  1  3.45330175  0.00000000  5.59433084  1
  F  F64  1  1.17511920  0.43212888  1.15647818  1
  F  F65  1  6.25631416  5.71084682  9.63882424  1
  F  F66  1  5.46821622  6.46945513  13.49949788  1
  F  F67  1  0.38702126  1.19073719  5.01715182  1
  F  F68  1  2.56260582  5.62904925  11.35829324  1
  F  F69  1  1.11605940  4.12627074  7.15835646  1
