# generated using pymatgen
data_Hf3Ti4(Br4F3)4
_symmetry_space_group_name_H-M   'P 1'
_cell_length_a   24.68675400
_cell_length_b   24.68675400
_cell_length_c   24.68675400
_cell_angle_alpha   90.00000000
_cell_angle_beta   90.00000000
_cell_angle_gamma   90.00000000
_symmetry_Int_Tables_number   1
_chemical_formula_structural   Hf3Ti4(Br4F3)4
_chemical_formula_sum   'Hf6 Ti8 Br32 F24'
_cell_volume   15044.99224258
_cell_formula_units_Z   2
loop_
 _symmetry_equiv_pos_site_id
 _symmetry_equiv_pos_as_xyz
  1  'x, y, z'
loop_
 _atom_site_type_symbol
 _atom_site_label
 _atom_site_symmetry_multiplicity
 _atom_site_fract_x
 _atom_site_fract_y
 _atom_site_fract_z
 _atom_site_occupancy
  Ti  Ti0  1  1.61667380  1.61667380  1.61667380  1
  Ti  Ti1  1  4.55501470  7.78836230  1.61667380  1
  Ti  Ti2  1  7.78836230  4.55501470  10.72670320  1
  Ti  Ti3  1  1.61667380  4.55501470  7.78836230  1
  Ti  Ti4  1  10.72670320  10.72670320  10.72670320  1
  Ti  Ti5  1  4.55501470  10.72670320  7.78836230  1
  Ti  Ti6  1  10.72670320  7.78836230  4.55501470  1
  Ti  Ti7  1  7.78836230  1.61667380  4.55501470  1
  Br  Br8  1  9.37772021  9.37772021  9.37772021  1
  Br  Br9  1  0.23500555  2.96429902  0.29742601  1
  Br  Br10  1  2.96565679  2.96565679  2.96565679  1
  Br  Br11  1  3.20738948  12.04595099  6.40669405  1
  Br  Br12  1  2.96429902  5.87426249  6.40669405  1
  Br  Br13  1  2.96429902  0.29742601  0.23500555  1
  Br  Br14  1  9.13598752  0.29742601  5.93668295  1
  Br  Br15  1  5.93668295  9.13598752  0.29742601  1
  Br  Br16  1  5.93668295  9.37907798  6.46911451  1
  Br  Br17  1  9.37907798  6.46911451  5.93668295  1
  Br  Br18  1  2.96565679  3.20603171  9.13734529  1
  Br  Br19  1  12.10837145  9.13598752  5.87426249  1
  Br  Br20  1  6.40669405  2.96429902  5.87426249  1
  Br  Br21  1  3.20738948  6.46911451  0.23500555  1
  Br  Br22  1  0.29742601  0.23500555  2.96429902  1
  Br  Br23  1  9.37907798  12.04595099  12.10837145  1
  Br  Br24  1  12.04595099  12.10837145  9.37907798  1
  Br  Br25  1  6.46911451  5.93668295  9.37907798  1
  Br  Br26  1  3.20603171  9.37772021  9.13734529  1
  Br  Br27  1  9.13734529  3.20603171  9.37772021  1
  Br  Br28  1  12.10837145  9.37907798  12.04595099  1
  Br  Br29  1  6.40669405  3.20738948  12.04595099  1
  Br  Br30  1  5.87426249  6.40669405  2.96429902  1
  Br  Br31  1  9.13734529  2.96565679  3.20603171  1
  Br  Br32  1  9.13598752  5.87426249  12.10837145  1
  Br  Br33  1  5.87426249  12.10837145  9.13598752  1
  Br  Br34  1  6.46911451  0.23500555  3.20738948  1
  Br  Br35  1  0.23500555  3.20738948  6.46911451  1
  Br  Br36  1  3.20603171  9.13734529  2.96565679  1
  Br  Br37  1  9.37772021  9.13734529  3.20603171  1
  Br  Br38  1  0.29742601  5.93668295  9.13598752  1
  Br  Br39  1  12.04595099  6.40669405  3.20738948  1
  Hf  Hf40  1  17.71471741  13.82119248  21.60170185  1
  Hf  Hf41  1  13.61537201  17.76714553  17.74102821  1
  Hf  Hf42  1  13.79078984  14.86904618  20.82046360  1
  Hf  Hf43  1  16.51805176  17.70232586  22.38294011  1
  Hf  Hf44  1  17.53929958  16.71929184  18.52226647  1
  Hf  Hf45  1  14.81203767  13.88601216  16.95978996  1
  F  F46  1  14.46512288  14.12707758  19.02257214  1
  F  F47  1  17.28518555  17.05676549  24.18083156  1
  F  F48  1  16.86496654  17.46126043  20.32015792  1
  F  F49  1  14.04490387  14.53157252  15.16189850  1
  F  F50  1  17.87065303  15.11869027  19.84099660  1
  F  F51  1  16.42410660  13.61591176  15.64105982  1
  F  F52  1  16.42791188  15.05984737  17.74102821  1
  F  F53  1  14.90217754  16.52849064  21.60170185  1
  F  F54  1  14.01498833  15.81118141  17.17376596  1
  F  F55  1  15.58514730  17.44237769  18.30829046  1
  F  F56  1  17.31510109  15.77715660  22.16896410  1
  F  F57  1  15.74494212  14.14596032  21.03443960  1
  F  F58  1  12.35995999  17.33782560  16.11452251  1
  F  F59  1  13.99652574  19.03801011  19.36753391  1
  F  F60  1  18.97012943  14.25051241  23.22820755  1
  F  F61  1  17.33356368  12.55032790  19.97519615  1
  F  F62  1  12.21174296  15.79416901  14.07703420  1
  F  F63  1  15.79667875  12.34337700  17.93770784  1
  F  F64  1  13.51849620  12.77550588  13.49985518  1
  F  F65  1  18.59969116  18.05422382  21.98220124  1
  F  F66  1  17.81159322  18.81283213  25.84287488  1
  F  F67  1  12.73039826  13.53411419  17.36052882  1
  F  F68  1  14.90598282  17.97242625  23.70167024  1
  F  F69  1  13.45943640  16.46964774  19.50173346  1
