# generated using pymatgen
data_TiTl8(BrCl3)4
_symmetry_space_group_name_H-M   'P 1'
_cell_length_a   49.37350800
_cell_length_b   12.34337700
_cell_length_c   12.34337700
_cell_angle_alpha   90.00000000
_cell_angle_beta   90.00000000
_cell_angle_gamma   90.00000000
_symmetry_Int_Tables_number   1
_chemical_formula_structural   TiTl8(BrCl3)4
_chemical_formula_sum   'Ti8 Tl64 Br32 Cl96'
_cell_volume   7522.49612129
_cell_formula_units_Z   8
loop_
 _symmetry_equiv_pos_site_id
 _symmetry_equiv_pos_as_xyz
  1  'x, y, z'
loop_
 _atom_site_type_symbol
 _atom_site_label
 _atom_site_symmetry_multiplicity
 _atom_site_fract_x
 _atom_site_fract_y
 _atom_site_fract_z
 _atom_site_occupancy
  Ti  Ti0  1  0.03274375  0.13097500  0.13097500  1
  Ti  Ti1  1  0.09225625  0.63097500  0.13097500  1
  Ti  Ti2  1  0.15774375  0.36902500  0.86902500  1
  Ti  Ti3  1  0.03274375  0.36902500  0.63097500  1
  Ti  Ti4  1  0.21725625  0.86902500  0.86902500  1
  Ti  Ti5  1  0.09225625  0.86902500  0.63097500  1
  Ti  Ti6  1  0.21725625  0.63097500  0.36902500  1
  Ti  Ti7  1  0.15774375  0.13097500  0.36902500  1
  Br  Br8  1  0.18993425  0.75973700  0.75973700  1
  Br  Br9  1  0.00475975  0.24015300  0.02409600  1
  Br  Br10  1  0.06006575  0.24026300  0.24026300  1
  Br  Br11  1  0.06496175  0.97590400  0.51903900  1
  Br  Br12  1  0.06003825  0.47590400  0.51903900  1
  Br  Br13  1  0.06003825  0.02409600  0.01903900  1
  Br  Br14  1  0.18503825  0.02409600  0.48096100  1
  Br  Br15  1  0.12024025  0.74015300  0.02409600  1
  Br  Br16  1  0.12024025  0.75984700  0.52409600  1
  Br  Br17  1  0.18996175  0.52409600  0.48096100  1
  Br  Br18  1  0.06006575  0.25973700  0.74026300  1
  Br  Br19  1  0.24524025  0.74015300  0.47590400  1
  Br  Br20  1  0.12975975  0.24015300  0.47590400  1
  Br  Br21  1  0.06496175  0.52409600  0.01903900  1
  Br  Br22  1  0.00602400  0.01903900  0.24015300  1
  Br  Br23  1  0.18996175  0.97590400  0.98096100  1
  Br  Br24  1  0.24397600  0.98096100  0.75984700  1
  Br  Br25  1  0.13102400  0.48096100  0.75984700  1
  Br  Br26  1  0.06493425  0.75973700  0.74026300  1
  Br  Br27  1  0.18506575  0.25973700  0.75973700  1
  Br  Br28  1  0.24524025  0.75984700  0.97590400  1
  Br  Br29  1  0.12975975  0.25984700  0.97590400  1
  Br  Br30  1  0.11897600  0.51903900  0.24015300  1
  Br  Br31  1  0.18506575  0.24026300  0.25973700  1
  Br  Br32  1  0.18503825  0.47590400  0.98096100  1
  Br  Br33  1  0.11897600  0.98096100  0.74015300  1
  Br  Br34  1  0.13102400  0.01903900  0.25984700  1
  Br  Br35  1  0.00475975  0.25984700  0.52409600  1
  Br  Br36  1  0.06493425  0.74026300  0.24026300  1
  Br  Br37  1  0.18993425  0.74026300  0.25973700  1
  Br  Br38  1  0.00602400  0.48096100  0.74015300  1
  Br  Br39  1  0.24397600  0.51903900  0.25984700  1
  Tl  Tl40  1  0.81416581  0.92018720  0.66438808  1
  Tl  Tl41  1  0.80733353  0.39538459  0.65949736  1
  Tl  Tl42  1  0.85586177  0.12980409  0.25000000  1
  Tl  Tl43  1  0.81192859  0.39124720  0.00432088  1
  Tl  Tl44  1  0.85610794  0.11972731  0.44306966  1
  Tl  Tl45  1  0.89762697  0.36091929  0.52565159  1
  Tl  Tl46  1  0.93916581  0.57981280  0.83561192  1
  Tl  Tl47  1  0.93692859  0.10875280  0.00432088  1
  Tl  Tl48  1  0.76913823  0.62980409  0.75000000  1
  Tl  Tl49  1  0.93807141  0.60875280  0.99567912  1
  Tl  Tl50  1  0.98110794  0.38027269  0.05693034  1
  Tl  Tl51  1  0.77198303  0.13085003  0.75000000  1
  Tl  Tl52  1  0.89559287  0.35684731  0.16122559  1
  Tl  Tl53  1  0.97737303  0.86091929  0.02565159  1
  Tl  Tl54  1  0.81192859  0.39124720  0.49567912  1
  Tl  Tl55  1  0.89389205  0.88027269  0.94306966  1
  Tl  Tl56  1  0.89389205  0.88027269  0.55693034  1
  Tl  Tl57  1  0.77059287  0.14315269  0.16122559  1
  Tl  Tl58  1  0.98110794  0.38027269  0.44306966  1
  Tl  Tl59  1  0.81766647  0.89538459  0.15949736  1
  Tl  Tl60  1  0.81766647  0.89538459  0.34050264  1
  Tl  Tl61  1  0.97737303  0.86091929  0.47434841  1
  Tl  Tl62  1  0.93807141  0.60875280  0.50432088  1
  Tl  Tl63  1  0.89413823  0.87019591  0.75000000  1
  Tl  Tl64  1  0.93916581  0.57981280  0.66438808  1
  Tl  Tl65  1  0.89762697  0.36091929  0.97434841  1
  Tl  Tl66  1  0.76899469  0.67254251  0.15668876  1
  Tl  Tl67  1  0.81307141  0.89124720  0.50432088  1
  Tl  Tl68  1  0.89399469  0.82745749  0.34331124  1
  Tl  Tl69  1  0.93692859  0.10875280  0.49567912  1
  Tl  Tl70  1  0.81083419  0.42018720  0.16438808  1
  Tl  Tl71  1  0.89399469  0.82745749  0.15668876  1
  Tl  Tl72  1  0.80733353  0.39538459  0.84050264  1
  Tl  Tl73  1  0.81416581  0.92018720  0.83561192  1
  Tl  Tl74  1  0.77059287  0.14315269  0.33877441  1
  Tl  Tl75  1  0.93233353  0.10461541  0.65949736  1
  Tl  Tl76  1  0.81083419  0.42018720  0.33561192  1
  Tl  Tl77  1  0.76889205  0.61972731  0.94306966  1
  Tl  Tl78  1  0.85600530  0.17254251  0.84331124  1
  Tl  Tl79  1  0.97940712  0.85684731  0.66122559  1
  Tl  Tl80  1  0.77262697  0.13908071  0.97434841  1
  Tl  Tl81  1  0.94266647  0.60461541  0.34050264  1
  Tl  Tl82  1  0.76899469  0.67254251  0.34331124  1
  Tl  Tl83  1  0.85440712  0.64315269  0.66122559  1
  Tl  Tl84  1  0.98100530  0.32745749  0.65668876  1
  Tl  Tl85  1  0.98100530  0.32745749  0.84331124  1
  Tl  Tl86  1  0.85440712  0.64315269  0.83877441  1
  Tl  Tl87  1  0.97801696  0.86914997  0.25000000  1
  Tl  Tl88  1  0.94266647  0.60461541  0.15949736  1
  Tl  Tl89  1  0.77262697  0.13908071  0.52565159  1
  Tl  Tl90  1  0.85237303  0.63908071  0.47434841  1
  Tl  Tl91  1  0.97940712  0.85684731  0.83877441  1
  Tl  Tl92  1  0.85600530  0.17254251  0.65668876  1
  Tl  Tl93  1  0.81307141  0.89124720  0.99567912  1
  Tl  Tl94  1  0.85610794  0.11972731  0.05693034  1
  Tl  Tl95  1  0.89698303  0.36914997  0.75000000  1
  Tl  Tl96  1  0.98086177  0.37019591  0.25000000  1
  Tl  Tl97  1  0.76889205  0.61972731  0.55693034  1
  Tl  Tl98  1  0.93583419  0.07981280  0.16438808  1
  Tl  Tl99  1  0.89559287  0.35684731  0.33877441  1
  Tl  Tl100  1  0.93583419  0.07981280  0.33561192  1
  Tl  Tl101  1  0.85301696  0.63085003  0.25000000  1
  Tl  Tl102  1  0.93233353  0.10461541  0.84050264  1
  Tl  Tl103  1  0.85237303  0.63908071  0.02565159  1
  Cl  Cl104  1  0.83569802  0.77808318  0.92826137  1
  Cl  Cl105  1  0.97940325  0.62667636  0.05400543  1
  Cl  Cl106  1  0.77059675  0.37332364  0.94599457  1
  Cl  Cl107  1  0.81422677  0.54937535  0.75000000  1
  Cl  Cl108  1  0.87891809  0.97823605  0.82654694  1
  Cl  Cl109  1  0.92162003  0.48542116  0.43478995  1
  Cl  Cl110  1  0.97940325  0.62667636  0.44599457  1
  Cl  Cl111  1  0.78930198  0.27808318  0.07173863  1
  Cl  Cl112  1  0.89926624  0.18868680  0.75000000  1
  Cl  Cl113  1  0.79117573  0.76483567  0.45340842  1
  Cl  Cl114  1  0.96069802  0.72191682  0.92826137  1
  Cl  Cl115  1  0.80287109  0.59266678  0.25000000  1
  Cl  Cl116  1  0.95337997  0.98542116  0.93478995  1
  Cl  Cl117  1  0.77183764  0.90905443  0.56251347  1
  Cl  Cl118  1  0.89919651  0.35802708  0.85071543  1
  Cl  Cl119  1  0.97281194  0.70498106  0.75000000  1
  Cl  Cl120  1  0.85080349  0.64197292  0.14928457  1
  Cl  Cl121  1  0.84781194  0.79501894  0.75000000  1
  Cl  Cl122  1  0.94712891  0.40733322  0.75000000  1
  Cl  Cl123  1  0.92787109  0.90733322  0.25000000  1
  Cl  Cl124  1  0.84236762  0.23439321  0.32741088  1
  Cl  Cl125  1  0.79117573  0.76483567  0.04659158  1
  Cl  Cl126  1  0.90218806  0.20498106  0.25000000  1
  Cl  Cl127  1  0.97580349  0.85802708  0.14928457  1
  Cl  Cl128  1  0.87108191  0.02176395  0.32654694  1
  Cl  Cl129  1  0.89683764  0.59094557  0.56251347  1
  Cl  Cl130  1  0.89683764  0.59094557  0.93748653  1
  Cl  Cl131  1  0.85080349  0.64197292  0.35071543  1
  Cl  Cl132  1  0.86014317  0.45723777  0.25000000  1
  Cl  Cl133  1  0.75391809  0.52176395  0.67345306  1
  Cl  Cl134  1  0.96736762  0.26560679  0.17258912  1
  Cl  Cl135  1  0.97580349  0.85802708  0.35071543  1
  Cl  Cl136  1  0.85073375  0.81131320  0.25000000  1
  Cl  Cl137  1  0.89919651  0.35802708  0.64928457  1
  Cl  Cl138  1  0.77183764  0.90905443  0.93748653  1
  Cl  Cl139  1  0.95337997  0.98542116  0.56521005  1
  Cl  Cl140  1  0.95882427  0.23516433  0.54659158  1
  Cl  Cl141  1  0.99608191  0.47823605  0.32654694  1
  Cl  Cl142  1  0.85440325  0.87332364  0.05400543  1
  Cl  Cl143  1  0.92162003  0.48542116  0.06521005  1
  Cl  Cl144  1  0.91430198  0.22191682  0.07173863  1
  Cl  Cl145  1  0.96069802  0.72191682  0.57173863  1
  Cl  Cl146  1  0.79662003  0.01457884  0.43478995  1
  Cl  Cl147  1  0.81077323  0.04937535  0.25000000  1
  Cl  Cl148  1  0.87891809  0.97823605  0.67345306  1
  Cl  Cl149  1  0.77059675  0.37332364  0.55400543  1
  Cl  Cl150  1  0.83569802  0.77808318  0.57173863  1
  Cl  Cl151  1  0.77426624  0.31131320  0.75000000  1
  Cl  Cl152  1  0.98514317  0.04276223  0.25000000  1
  Cl  Cl153  1  0.91617573  0.73516433  0.45340842  1
  Cl  Cl154  1  0.77419651  0.14197292  0.64928457  1
  Cl  Cl155  1  0.99608191  0.47823605  0.17345306  1
  Cl  Cl156  1  0.90265859  0.66790208  0.25000000  1
  Cl  Cl157  1  0.85440325  0.87332364  0.44599457  1
  Cl  Cl158  1  0.83382427  0.26483567  0.54659158  1
  Cl  Cl159  1  0.95864934  0.47937751  0.55597420  1
  Cl  Cl160  1  0.97816235  0.09094557  0.43748653  1
  Cl  Cl161  1  0.83382427  0.26483567  0.95340842  1
  Cl  Cl162  1  0.82837997  0.51457884  0.93478995  1
  Cl  Cl163  1  0.77765859  0.83209792  0.25000000  1
  Cl  Cl164  1  0.78263238  0.73439321  0.82741088  1
  Cl  Cl165  1  0.75391809  0.52176395  0.82654694  1
  Cl  Cl166  1  0.97816235  0.09094557  0.06251347  1
  Cl  Cl167  1  0.91430198  0.22191682  0.42826137  1
  Cl  Cl168  1  0.97573375  0.68868680  0.25000000  1
  Cl  Cl169  1  0.91635066  0.97937751  0.44402580  1
  Cl  Cl170  1  0.77718806  0.29501894  0.25000000  1
  Cl  Cl171  1  0.93922677  0.95062465  0.75000000  1
  Cl  Cl172  1  0.96736762  0.26560679  0.32741088  1
  Cl  Cl173  1  0.90763238  0.76560679  0.82741088  1
  Cl  Cl174  1  0.89559675  0.12667636  0.55400543  1
  Cl  Cl175  1  0.79662003  0.01457884  0.06521005  1
  Cl  Cl176  1  0.79135066  0.52062249  0.05597420  1
  Cl  Cl177  1  0.83364934  0.02062249  0.55597420  1
  Cl  Cl178  1  0.83364934  0.02062249  0.94402580  1
  Cl  Cl179  1  0.88985683  0.54276223  0.75000000  1
  Cl  Cl180  1  0.89559675  0.12667636  0.94599457  1
  Cl  Cl181  1  0.78930198  0.27808318  0.42826137  1
  Cl  Cl182  1  0.87108191  0.02176395  0.17345306  1
  Cl  Cl183  1  0.85316235  0.40905443  0.43748653  1
  Cl  Cl184  1  0.84236762  0.23439321  0.17258912  1
  Cl  Cl185  1  0.85316235  0.40905443  0.06251347  1
  Cl  Cl186  1  0.79135066  0.52062249  0.44402580  1
  Cl  Cl187  1  0.78263238  0.73439321  0.67258912  1
  Cl  Cl188  1  0.82212891  0.09266678  0.75000000  1
  Cl  Cl189  1  0.82837997  0.51457884  0.56521005  1
  Cl  Cl190  1  0.93577323  0.45062465  0.25000000  1
  Cl  Cl191  1  0.84734141  0.33209792  0.75000000  1
  Cl  Cl192  1  0.95882427  0.23516433  0.95340842  1
  Cl  Cl193  1  0.95864934  0.47937751  0.94402580  1
  Cl  Cl194  1  0.91617573  0.73516433  0.04659158  1
  Cl  Cl195  1  0.90763238  0.76560679  0.67258912  1
  Cl  Cl196  1  0.97234141  0.16790208  0.75000000  1
  Cl  Cl197  1  0.91635066  0.97937751  0.05597420  1
  Cl  Cl198  1  0.77419651  0.14197292  0.85071543  1
  Cl  Cl199  1  0.76485683  0.95723777  0.75000000  1
