# generated using pymatgen
data_TiTl8(BrCl3)4
_symmetry_space_group_name_H-M   'P 1'
_cell_length_a   24.68675400
_cell_length_b   24.68675400
_cell_length_c   24.68675400
_cell_angle_alpha   90.00000000
_cell_angle_beta   90.00000000
_cell_angle_gamma   90.00000000
_symmetry_Int_Tables_number   1
_chemical_formula_structural   TiTl8(BrCl3)4
_chemical_formula_sum   'Ti8 Tl64 Br32 Cl96'
_cell_volume   15044.99224258
_cell_formula_units_Z   8
loop_
 _symmetry_equiv_pos_site_id
 _symmetry_equiv_pos_as_xyz
  1  'x, y, z'
loop_
 _atom_site_type_symbol
 _atom_site_label
 _atom_site_symmetry_multiplicity
 _atom_site_fract_x
 _atom_site_fract_y
 _atom_site_fract_z
 _atom_site_occupancy
  Ti  Ti0  1  1.61667380  1.61667380  1.61667380  1
  Ti  Ti1  1  4.55501470  7.78836230  1.61667380  1
  Ti  Ti2  1  7.78836230  4.55501470  10.72670320  1
  Ti  Ti3  1  1.61667380  4.55501470  7.78836230  1
  Ti  Ti4  1  10.72670320  10.72670320  10.72670320  1
  Ti  Ti5  1  4.55501470  10.72670320  7.78836230  1
  Ti  Ti6  1  10.72670320  7.78836230  4.55501470  1
  Ti  Ti7  1  7.78836230  1.61667380  4.55501470  1
  Br  Br8  1  9.37772021  9.37772021  9.37772021  1
  Br  Br9  1  0.23500555  2.96429902  0.29742601  1
  Br  Br10  1  2.96565679  2.96565679  2.96565679  1
  Br  Br11  1  3.20738948  12.04595099  6.40669405  1
  Br  Br12  1  2.96429902  5.87426249  6.40669405  1
  Br  Br13  1  2.96429902  0.29742601  0.23500555  1
  Br  Br14  1  9.13598752  0.29742601  5.93668295  1
  Br  Br15  1  5.93668295  9.13598752  0.29742601  1
  Br  Br16  1  5.93668295  9.37907798  6.46911451  1
  Br  Br17  1  9.37907798  6.46911451  5.93668295  1
  Br  Br18  1  2.96565679  3.20603171  9.13734529  1
  Br  Br19  1  12.10837145  9.13598752  5.87426249  1
  Br  Br20  1  6.40669405  2.96429902  5.87426249  1
  Br  Br21  1  3.20738948  6.46911451  0.23500555  1
  Br  Br22  1  0.29742601  0.23500555  2.96429902  1
  Br  Br23  1  9.37907798  12.04595099  12.10837145  1
  Br  Br24  1  12.04595099  12.10837145  9.37907798  1
  Br  Br25  1  6.46911451  5.93668295  9.37907798  1
  Br  Br26  1  3.20603171  9.37772021  9.13734529  1
  Br  Br27  1  9.13734529  3.20603171  9.37772021  1
  Br  Br28  1  12.10837145  9.37907798  12.04595099  1
  Br  Br29  1  6.40669405  3.20738948  12.04595099  1
  Br  Br30  1  5.87426249  6.40669405  2.96429902  1
  Br  Br31  1  9.13734529  2.96565679  3.20603171  1
  Br  Br32  1  9.13598752  5.87426249  12.10837145  1
  Br  Br33  1  5.87426249  12.10837145  9.13598752  1
  Br  Br34  1  6.46911451  0.23500555  3.20738948  1
  Br  Br35  1  0.23500555  3.20738948  6.46911451  1
  Br  Br36  1  3.20603171  9.13734529  2.96565679  1
  Br  Br37  1  9.37772021  9.13734529  3.20603171  1
  Br  Br38  1  0.29742601  5.93668295  9.13598752  1
  Br  Br39  1  12.04595099  6.40669405  3.20738948  1
  Tl  Tl40  1  15.51146826  23.70159452  20.54416955  1
  Tl  Tl41  1  15.17413450  17.22375805  20.48380154  1
  Tl  Tl42  1  17.57014395  13.94559782  15.42922125  1
  Tl  Tl43  1  15.40100873  17.17268869  12.39671125  1
  Tl  Tl44  1  17.58229847  13.82121632  17.81235285  1
  Tl  Tl45  1  19.63223851  16.79833986  18.83169275  1
  Tl  Tl46  1  21.68315676  19.50022498  22.65764995  1
  Tl  Tl47  1  21.57269723  13.68575381  12.39671125  1
  Tl  Tl48  1  13.28829855  20.11728632  21.60090975  1
  Tl  Tl49  1  21.62912227  19.85744231  24.63341975  1
  Tl  Tl50  1  23.75398697  17.03722618  13.04608965  1
  Tl  Tl51  1  13.42875655  13.95850825  21.60090975  1
  Tl  Tl52  1  19.53180798  16.74807788  14.33344524  1
  Tl  Tl53  1  23.56958099  22.97002836  12.66000425  1
  Tl  Tl54  1  15.40100873  17.17268869  18.46173125  1
  Tl  Tl55  1  19.44783253  23.20891468  23.98404135  1
  Tl  Tl56  1  19.44783253  23.20891468  19.21777815  1
  Tl  Tl57  1  13.36011948  14.11036462  14.33344524  1
  Tl  Tl58  1  23.75398697  17.03722618  17.81235285  1
  Tl  Tl59  1  15.68430800  23.39544655  14.31211304  1
  Tl  Tl60  1  15.68430800  23.39544655  16.54632946  1
  Tl  Tl61  1  23.56958099  22.97002836  18.19843825  1
  Tl  Tl62  1  21.62912227  19.85744231  18.56839975  1
  Tl  Tl63  1  19.45998705  23.08453318  21.60090975  1
  Tl  Tl64  1  21.68315676  19.50022498  20.54416955  1
  Tl  Tl65  1  19.63223851  16.79833986  24.37012675  1
  Tl  Tl66  1  13.28121173  20.64482275  14.27744544  1
  Tl  Tl67  1  15.45743377  23.34437719  18.56839975  1
  Tl  Tl68  1  19.45290023  22.55699675  16.58099706  1
  Tl  Tl69  1  21.57269723  13.68575381  18.46173125  1
  Tl  Tl70  1  15.34697424  17.52990602  14.37248105  1
  Tl  Tl71  1  19.45290023  22.55699675  14.27744544  1
  Tl  Tl72  1  15.17413450  17.22375805  22.71801796  1
  Tl  Tl73  1  15.51146826  23.70159452  22.65764995  1
  Tl  Tl74  1  13.36011948  14.11036462  16.52499726  1
  Tl  Tl75  1  21.34582300  13.63468445  20.48380154  1
  Tl  Tl76  1  15.34697424  17.52990602  16.48596145  1
  Tl  Tl77  1  13.27614403  19.99290482  23.98404135  1
  Tl  Tl78  1  17.57723077  14.47313425  22.75268556  1
  Tl  Tl79  1  23.67001152  22.91976638  20.50513374  1
  Tl  Tl80  1  13.46055001  14.06010264  24.37012675  1
  Tl  Tl81  1  21.85599650  19.80637295  16.54632946  1
  Tl  Tl82  1  13.28121173  20.64482275  16.58099706  1
  Tl  Tl83  1  17.49832302  20.28205312  20.50513374  1
  Tl  Tl84  1  23.74891927  16.38530825  20.44913394  1
  Tl  Tl85  1  23.74891927  16.38530825  22.75268556  1
  Tl  Tl86  1  17.49832302  20.28205312  22.69668576  1
  Tl  Tl87  1  23.60137445  23.07162275  15.42922125  1
  Tl  Tl88  1  21.85599650  19.80637295  14.31211304  1
  Tl  Tl89  1  13.46055001  14.06010264  18.83169275  1
  Tl  Tl90  1  17.39789249  20.23179114  18.19843825  1
  Tl  Tl91  1  23.67001152  22.91976638  22.69668576  1
  Tl  Tl92  1  17.57723077  14.47313425  20.44913394  1
  Tl  Tl93  1  15.45743377  23.34437719  24.63341975  1
  Tl  Tl94  1  17.58229847  13.82121632  13.04608965  1
  Tl  Tl95  1  19.60044505  16.89993425  21.60090975  1
  Tl  Tl96  1  23.74183245  16.91284468  15.42922125  1
  Tl  Tl97  1  13.27614403  19.99290482  19.21777815  1
  Tl  Tl98  1  21.51866274  13.32853648  14.37248105  1
  Tl  Tl99  1  19.53180798  16.74807788  16.52499726  1
  Tl  Tl100  1  21.51866274  13.32853648  16.48596145  1
  Tl  Tl101  1  17.42968595  20.13019675  15.42922125  1
  Tl  Tl102  1  21.34582300  13.63468445  22.71801796  1
  Tl  Tl103  1  17.39789249  20.23179114  12.66000425  1
  Cl  Cl104  1  16.57458888  21.94755103  23.80125704  1
  Cl  Cl105  1  23.66982008  20.07867957  13.00998638  1
  Cl  Cl106  1  13.36031092  16.95145143  24.02014462  1
  Cl  Cl107  1  15.51447807  19.12452406  21.60090975  1
  Cl  Cl108  1  18.70851535  24.41811336  22.54575749  1
  Cl  Cl109  1  20.81685992  18.33511338  17.71015327  1
  Cl  Cl110  1  23.66982008  20.07867957  17.84845612  1
  Cl  Cl111  1  14.28385362  15.77586253  13.22887396  1
  Cl  Cl112  1  19.71317514  14.67240931  21.60090975  1
  Cl  Cl113  1  14.37636736  21.78403202  17.93996806  1
  Cl  Cl114  1  22.74627738  21.25426847  23.80125704  1
  Cl  Cl115  1  14.95380831  19.65888650  15.42922125  1
  Cl  Cl116  1  22.38495958  24.50680188  23.88184177  1
  Cl  Cl117  1  13.42157814  23.56417854  19.28669283  1
  Cl  Cl118  1  19.70973196  16.76264022  22.84407827  1
  Cl  Cl119  1  23.34438410  21.04522400  21.60090975  1
  Cl  Cl120  1  17.32039904  20.26749078  14.18605273  1
  Cl  Cl121  1  17.17269560  22.15659550  21.60090975  1
  Cl  Cl122  1  22.07632269  17.37124450  21.60090975  1
  Cl  Cl123  1  21.12549681  23.54293300  15.42922125  1
  Cl  Cl124  1  16.90389055  15.23658076  16.38473293  1
  Cl  Cl125  1  14.37636736  21.78403202  12.91847444  1
  Cl  Cl126  1  19.85743540  14.87353550  15.42922125  1
  Cl  Cl127  1  23.49208754  22.93432872  14.18605273  1
  Cl  Cl128  1  18.32161565  12.61201764  16.37406899  1
  Cl  Cl129  1  19.59326664  19.63764096  19.28669283  1
  Cl  Cl130  1  19.59326664  19.63764096  23.91512667  1
  Cl  Cl131  1  17.32039904  20.26749078  16.67238977  1
  Cl  Cl132  1  17.78153156  17.98723517  15.42922125  1
  Cl  Cl133  1  12.53682685  18.78370614  20.65606201  1
  Cl  Cl134  1  23.07557905  15.62186174  14.47370957  1
  Cl  Cl135  1  23.49208754  22.93432872  16.67238977  1
  Cl  Cl136  1  17.31695586  22.35772169  15.42922125  1
  Cl  Cl137  1  19.70973196  16.76264022  20.35774123  1
  Cl  Cl138  1  13.42157814  23.56417854  23.91512667  1
  Cl  Cl139  1  22.38495958  24.50680188  19.31997773  1
  Cl  Cl140  1  22.65376364  15.24609898  19.09016294  1
  Cl  Cl141  1  24.49330415  18.24642486  16.37406899  1
  Cl  Cl142  1  17.49813158  23.12313993  13.00998638  1
  Cl  Cl143  1  20.81685992  18.33511338  13.14828923  1
  Cl  Cl144  1  20.45554212  15.08257997  13.22887396  1
  Cl  Cl145  1  22.74627738  21.25426847  19.40056246  1
  Cl  Cl146  1  14.64517142  12.52332912  17.71015327  1
  Cl  Cl147  1  15.34396443  12.95283556  15.42922125  1
  Cl  Cl148  1  18.70851535  24.41811336  20.65606201  1
  Cl  Cl149  1  13.36031092  16.95145143  19.18167488  1
  Cl  Cl150  1  16.57458888  21.94755103  19.40056246  1
  Cl  Cl151  1  13.54148664  16.18603319  21.60090975  1
  Cl  Cl152  1  23.95322006  12.87120733  15.42922125  1
  Cl  Cl153  1  20.54805586  21.41778748  17.93996806  1
  Cl  Cl154  1  13.53804346  14.09580228  20.35774123  1
  Cl  Cl155  1  24.49330415  18.24642486  14.48437351  1
  Cl  Cl156  1  19.88066724  20.58754417  15.42922125  1
  Cl  Cl157  1  17.49813158  23.12313993  17.84845612  1
  Cl  Cl158  1  16.48207514  15.61234352  19.09016294  1
  Cl  Cl159  1  22.64512686  18.26051433  19.20597615  1
  Cl  Cl160  1  23.60855286  13.46595246  17.74343817  1
  Cl  Cl161  1  16.48207514  15.61234352  24.11165656  1
  Cl  Cl162  1  16.21327108  18.69501762  23.88184177  1
  Cl  Cl163  1  13.70897874  22.61427533  15.42922125  1
  Cl  Cl164  1  13.95455195  21.40826926  22.55642143  1
  Cl  Cl165  1  12.53682685  18.78370614  22.54575749  1
  Cl  Cl166  1  23.60855286  13.46595246  13.11500433  1
  Cl  Cl167  1  20.45554212  15.08257997  17.62956854  1
  Cl  Cl168  1  23.48864436  20.84409781  15.42922125  1
  Cl  Cl169  1  20.55669264  24.43220283  17.82415485  1
  Cl  Cl170  1  13.68574690  15.98490700  15.42922125  1
  Cl  Cl171  1  21.68616657  24.07729544  21.60090975  1
  Cl  Cl172  1  23.07557905  15.62186174  16.38473293  1
  Cl  Cl173  1  20.12624045  21.79355024  22.55642143  1
  Cl  Cl174  1  19.53199942  13.90699107  19.18167488  1
  Cl  Cl175  1  14.64517142  12.52332912  13.14828923  1
  Cl  Cl176  1  14.38500414  18.76961667  13.03428765  1
  Cl  Cl177  1  16.47343836  12.59792817  19.20597615  1
  Cl  Cl178  1  16.47343836  12.59792817  23.99584335  1
  Cl  Cl179  1  19.24859944  19.04289583  21.60090975  1
  Cl  Cl180  1  19.53199942  13.90699107  24.02014462  1
  Cl  Cl181  1  14.28385362  15.77586253  17.62956854  1
  Cl  Cl182  1  18.32161565  12.61201764  14.48437351  1
  Cl  Cl183  1  17.43686436  17.39249004  17.74343817  1
  Cl  Cl184  1  16.90389055  15.23658076  14.47370957  1
  Cl  Cl185  1  17.43686436  17.39249004  13.11500433  1
  Cl  Cl186  1  14.38500414  18.76961667  17.82415485  1
  Cl  Cl187  1  13.95455195  21.40826926  20.64539807  1
  Cl  Cl188  1  15.90463419  13.48719800  21.60090975  1
  Cl  Cl189  1  16.21327108  18.69501762  19.31997773  1
  Cl  Cl190  1  21.51565293  17.90560694  15.42922125  1
  Cl  Cl191  1  17.14946376  16.44258683  21.60090975  1
  Cl  Cl192  1  22.65376364  15.24609898  24.11165656  1
  Cl  Cl193  1  22.64512686  18.26051433  23.99584335  1
  Cl  Cl194  1  20.54805586  21.41778748  12.91847444  1
  Cl  Cl195  1  20.12624045  21.79355024  20.64539807  1
  Cl  Cl196  1  23.32115226  14.41585567  21.60090975  1
  Cl  Cl197  1  20.55669264  24.43220283  13.03428765  1
  Cl  Cl198  1  13.53804346  14.09580228  22.84407827  1
  Cl  Cl199  1  13.07691094  24.15892367  21.60090975  1
