data_image0
_chemical_formula_structural       Li216Cl216
_chemical_formula_sum              "Li216 Cl216"
_cell_length_a       22.3158
_cell_length_b       22.3137
_cell_length_c       22.306
_cell_angle_alpha    60
_cell_angle_beta     60
_cell_angle_gamma    60

_space_group_name_H-M_alt    "P 1"
_space_group_IT_number       1

loop_
  _space_group_symop_operation_xyz
  'x, y, z'

loop_
  _atom_site_type_symbol
  _atom_site_label
  _atom_site_symmetry_multiplicity
  _atom_site_fract_x
  _atom_site_fract_y
  _atom_site_fract_z
  _atom_site_occupancy
  Li  Li1       1.0  0.99311  0.00100  0.00044  1.0000
  Li  Li2       1.0  0.98257  0.98411  0.17824  1.0000
  Li  Li3       1.0  0.00510  0.99544  0.32822  1.0000
  Li  Li4       1.0  0.00344  0.00739  0.49631  1.0000
  Li  Li5       1.0  0.00018  0.01484  0.66867  1.0000
  Li  Li6       1.0  0.00952  0.00916  0.83548  1.0000
  Li  Li7       1.0  0.01640  0.15265  0.01089  1.0000
  Li  Li8       1.0  0.01554  0.16448  0.16006  1.0000
  Li  Li9       1.0  0.01455  0.15579  0.32244  1.0000
  Li  Li10      1.0  0.97613  0.17053  0.50329  1.0000
  Li  Li11      1.0  0.99025  0.15863  0.68358  1.0000
  Li  Li12      1.0  0.99147  0.17310  0.83470  1.0000
  Li  Li13      1.0  0.99297  0.34198  0.01176  1.0000
  Li  Li14      1.0  0.02268  0.32371  0.16262  1.0000
  Li  Li15      1.0  0.99278  0.32755  0.34092  1.0000
  Li  Li16      1.0  0.99552  0.33542  0.50815  1.0000
  Li  Li17      1.0  0.01003  0.31942  0.67385  1.0000
  Li  Li18      1.0  0.02250  0.32860  0.82838  1.0000
  Li  Li19      1.0  0.00420  0.49497  0.00687  1.0000
  Li  Li20      1.0  0.00164  0.48953  0.17112  1.0000
  Li  Li21      1.0  0.02668  0.47509  0.34890  1.0000
  Li  Li22      1.0  0.99846  0.50922  0.50015  1.0000
  Li  Li23      1.0  0.00995  0.49722  0.65600  1.0000
  Li  Li24      1.0  0.00513  0.49304  0.84274  1.0000
  Li  Li25      1.0  0.99611  0.67456  0.01047  1.0000
  Li  Li26      1.0  0.01460  0.66527  0.15363  1.0000
  Li  Li27      1.0  0.00027  0.66561  0.31680  1.0000
  Li  Li28      1.0  0.01405  0.66427  0.49451  1.0000
  Li  Li29      1.0  0.99569  0.66978  0.67460  1.0000
  Li  Li30      1.0  0.98917  0.67463  0.84391  1.0000
  Li  Li31      1.0  0.99913  0.82822  0.00489  1.0000
  Li  Li32      1.0  0.00043  0.83329  0.18511  1.0000
  Li  Li33      1.0  0.01222  0.83553  0.34823  1.0000
  Li  Li34      1.0  0.99369  0.82509  0.51149  1.0000
  Li  Li35      1.0  0.00841  0.83000  0.67299  1.0000
  Li  Li36      1.0  0.00035  0.82862  0.84203  1.0000
  Li  Li37      1.0  0.17842  0.99432  0.99800  1.0000
  Li  Li38      1.0  0.18036  0.00743  0.16685  1.0000
  Li  Li39      1.0  0.13816  0.01034  0.34384  1.0000
  Li  Li40      1.0  0.16197  0.00895  0.50258  1.0000
  Li  Li41      1.0  0.15728  0.01150  0.68441  1.0000
  Li  Li42      1.0  0.17872  0.98313  0.83380  1.0000
  Li  Li43      1.0  0.18842  0.15446  0.99758  1.0000
  Li  Li44      1.0  0.17890  0.18138  0.16095  1.0000
  Li  Li45      1.0  0.15306  0.19165  0.32910  1.0000
  Li  Li46      1.0  0.15889  0.18707  0.49495  1.0000
  Li  Li47      1.0  0.16433  0.16410  0.66902  1.0000
  Li  Li48      1.0  0.17501  0.15911  0.83833  1.0000
  Li  Li49      1.0  0.17695  0.32501  0.98252  1.0000
  Li  Li50      1.0  0.17990  0.34708  0.16282  1.0000
  Li  Li51      1.0  0.17454  0.32601  0.34159  1.0000
  Li  Li52      1.0  0.17510  0.32783  0.50799  1.0000
  Li  Li53      1.0  0.16331  0.32788  0.67983  1.0000
  Li  Li54      1.0  0.15577  0.33117  0.84361  1.0000
  Li  Li55      1.0  0.17385  0.47917  0.99831  1.0000
  Li  Li56      1.0  0.15407  0.50437  0.17414  1.0000
  Li  Li57      1.0  0.16380  0.48388  0.33491  1.0000
  Li  Li58      1.0  0.15672  0.50185  0.49386  1.0000
  Li  Li59      1.0  0.16376  0.50554  0.66213  1.0000
  Li  Li60      1.0  0.16689  0.50275  0.84039  1.0000
  Li  Li61      1.0  0.17225  0.67316  0.99593  1.0000
  Li  Li62      1.0  0.17041  0.66737  0.17376  1.0000
  Li  Li63      1.0  0.17759  0.66129  0.31616  1.0000
  Li  Li64      1.0  0.17423  0.66080  0.50364  1.0000
  Li  Li65      1.0  0.18276  0.66168  0.66027  1.0000
  Li  Li66      1.0  0.16137  0.65819  0.83190  1.0000
  Li  Li67      1.0  0.17486  0.82924  0.99444  1.0000
  Li  Li68      1.0  0.17187  0.83339  0.16338  1.0000
  Li  Li69      1.0  0.14380  0.84355  0.33979  1.0000
  Li  Li70      1.0  0.15986  0.84529  0.49453  1.0000
  Li  Li71      1.0  0.15813  0.84257  0.66732  1.0000
  Li  Li72      1.0  0.16980  0.82237  0.82161  1.0000
  Li  Li73      1.0  0.33090  0.99202  0.00032  1.0000
  Li  Li74      1.0  0.35106  0.99989  0.16929  1.0000
  Li  Li75      1.0  0.30598  0.00617  0.35188  1.0000
  Li  Li76      1.0  0.33637  0.00245  0.50005  1.0000
  Li  Li77      1.0  0.33398  0.02013  0.65485  1.0000
  Li  Li78      1.0  0.33173  0.00196  0.83078  1.0000
  Li  Li79      1.0  0.34632  0.17415  0.98910  1.0000
  Li  Li80      1.0  0.31574  0.18540  0.16758  1.0000
  Li  Li81      1.0  0.33555  0.17014  0.35201  1.0000
  Li  Li82      1.0  0.31999  0.16175  0.52789  1.0000
  Li  Li83      1.0  0.33799  0.17321  0.67318  1.0000
  Li  Li84      1.0  0.36639  0.16413  0.82716  1.0000
  Li  Li85      1.0  0.32220  0.33288  0.00352  1.0000
  Li  Li86      1.0  0.32230  0.35041  0.16281  1.0000
  Li  Li87      1.0  0.33079  0.32589  0.35491  1.0000
  Li  Li88      1.0  0.32697  0.32803  0.50501  1.0000
  Li  Li89      1.0  0.33474  0.33406  0.68012  1.0000
  Li  Li90      1.0  0.33888  0.34660  0.83016  1.0000
  Li  Li91      1.0  0.33721  0.51329  0.00913  1.0000
  Li  Li92      1.0  0.31873  0.49824  0.18340  1.0000
  Li  Li93      1.0  0.35102  0.49342  0.33355  1.0000
  Li  Li94      1.0  0.33006  0.50837  0.48691  1.0000
  Li  Li95      1.0  0.34558  0.48591  0.66373  1.0000
  Li  Li96      1.0  0.32530  0.48322  0.84540  1.0000
  Li  Li97      1.0  0.33556  0.66680  0.01357  1.0000
  Li  Li98      1.0  0.34527  0.66899  0.15807  1.0000
  Li  Li99      1.0  0.33619  0.64718  0.34231  1.0000
  Li  Li100     1.0  0.34830  0.65757  0.49408  1.0000
  Li  Li101     1.0  0.33961  0.65612  0.66179  1.0000
  Li  Li102     1.0  0.33908  0.66293  0.81513  1.0000
  Li  Li103     1.0  0.34451  0.83193  0.99102  1.0000
  Li  Li104     1.0  0.32547  0.84546  0.15725  1.0000
  Li  Li105     1.0  0.32778  0.83219  0.33782  1.0000
  Li  Li106     1.0  0.33385  0.82149  0.51684  1.0000
  Li  Li107     1.0  0.35065  0.85104  0.63439  1.0000
  Li  Li108     1.0  0.33209  0.83455  0.82929  1.0000
  Li  Li109     1.0  0.50010  0.00558  0.00712  1.0000
  Li  Li110     1.0  0.51892  0.97350  0.17445  1.0000
  Li  Li111     1.0  0.47489  0.99670  0.34530  1.0000
  Li  Li112     1.0  0.52244  0.98881  0.50409  1.0000
  Li  Li113     1.0  0.49707  0.00519  0.67506  1.0000
  Li  Li114     1.0  0.48751  0.00007  0.84302  1.0000
  Li  Li115     1.0  0.49448  0.18411  0.99445  1.0000
  Li  Li116     1.0  0.49705  0.17244  0.16005  1.0000
  Li  Li117     1.0  0.49340  0.17320  0.32989  1.0000
  Li  Li118     1.0  0.49022  0.17425  0.49673  1.0000
  Li  Li119     1.0  0.51324  0.16399  0.65502  1.0000
  Li  Li120     1.0  0.51282  0.16519  0.82632  1.0000
  Li  Li121     1.0  0.48721  0.35512  0.99756  1.0000
  Li  Li122     1.0  0.50281  0.34323  0.17338  1.0000
  Li  Li123     1.0  0.49467  0.34073  0.32910  1.0000
  Li  Li124     1.0  0.51481  0.33042  0.49524  1.0000
  Li  Li125     1.0  0.50321  0.33828  0.67270  1.0000
  Li  Li126     1.0  0.49232  0.34766  0.84390  1.0000
  Li  Li127     1.0  0.49852  0.50871  0.99129  1.0000
  Li  Li128     1.0  0.49356  0.50508  0.16452  1.0000
  Li  Li129     1.0  0.50400  0.50258  0.33676  1.0000
  Li  Li130     1.0  0.51361  0.47185  0.50399  1.0000
  Li  Li131     1.0  0.50420  0.49313  0.66378  1.0000
  Li  Li132     1.0  0.48782  0.50583  0.84278  1.0000
  Li  Li133     1.0  0.50525  0.64958  0.00368  1.0000
  Li  Li134     1.0  0.49381  0.66997  0.17703  1.0000
  Li  Li135     1.0  0.48476  0.65937  0.35514  1.0000
  Li  Li136     1.0  0.49708  0.67521  0.48897  1.0000
  Li  Li137     1.0  0.50803  0.66151  0.66207  1.0000
  Li  Li138     1.0  0.48312  0.68038  0.83750  1.0000
  Li  Li139     1.0  0.50205  0.83213  0.99910  1.0000
  Li  Li140     1.0  0.47883  0.83536  0.16762  1.0000
  Li  Li141     1.0  0.49180  0.83177  0.32468  1.0000
  Li  Li142     1.0  0.51808  0.81898  0.49140  1.0000
  Li  Li143     1.0  0.49083  0.84503  0.67277  1.0000
  Li  Li144     1.0  0.50733  0.83369  0.83409  1.0000
  Li  Li145     1.0  0.65499  0.98970  0.00052  1.0000
  Li  Li146     1.0  0.66291  0.00194  0.15698  1.0000
  Li  Li147     1.0  0.66335  0.99641  0.33814  1.0000
  Li  Li148     1.0  0.68787  0.00152  0.49943  1.0000
  Li  Li149     1.0  0.67171  0.00864  0.66864  1.0000
  Li  Li150     1.0  0.66785  0.98946  0.82540  1.0000
  Li  Li151     1.0  0.64356  0.17026  0.01358  1.0000
  Li  Li152     1.0  0.65849  0.16412  0.17234  1.0000
  Li  Li153     1.0  0.66493  0.14425  0.34245  1.0000
  Li  Li154     1.0  0.67354  0.17254  0.47284  1.0000
  Li  Li155     1.0  0.67068  0.17131  0.65442  1.0000
  Li  Li156     1.0  0.66670  0.17522  0.82560  1.0000
  Li  Li157     1.0  0.65583  0.32763  0.00764  1.0000
  Li  Li158     1.0  0.68735  0.33678  0.14679  1.0000
  Li  Li159     1.0  0.66495  0.34413  0.30684  1.0000
  Li  Li160     1.0  0.68001  0.31805  0.49974  1.0000
  Li  Li161     1.0  0.64271  0.33494  0.68995  1.0000
  Li  Li162     1.0  0.66843  0.33044  0.83128  1.0000
  Li  Li163     1.0  0.67045  0.51660  0.97345  1.0000
  Li  Li164     1.0  0.66029  0.49983  0.18086  1.0000
  Li  Li165     1.0  0.65833  0.49222  0.33217  1.0000
  Li  Li166     1.0  0.67378  0.50358  0.49144  1.0000
  Li  Li167     1.0  0.67035  0.49373  0.65651  1.0000
  Li  Li168     1.0  0.65747  0.49973  0.82796  1.0000
  Li  Li169     1.0  0.64985  0.67469  0.99405  1.0000
  Li  Li170     1.0  0.64004  0.66089  0.18215  1.0000
  Li  Li171     1.0  0.67590  0.65070  0.33173  1.0000
  Li  Li172     1.0  0.67708  0.66567  0.49503  1.0000
  Li  Li173     1.0  0.66417  0.66489  0.65451  1.0000
  Li  Li174     1.0  0.67110  0.68211  0.81610  1.0000
  Li  Li175     1.0  0.66241  0.83656  0.99917  1.0000
  Li  Li176     1.0  0.68294  0.80547  0.17774  1.0000
  Li  Li177     1.0  0.67750  0.83326  0.33130  1.0000
  Li  Li178     1.0  0.66799  0.82559  0.50898  1.0000
  Li  Li179     1.0  0.68362  0.81042  0.65764  1.0000
  Li  Li180     1.0  0.64190  0.85328  0.82497  1.0000
  Li  Li181     1.0  0.81805  0.00100  0.00096  1.0000
  Li  Li182     1.0  0.82953  0.01547  0.15803  1.0000
  Li  Li183     1.0  0.84753  0.99386  0.33686  1.0000
  Li  Li184     1.0  0.83630  0.98092  0.51207  1.0000
  Li  Li185     1.0  0.83619  0.98085  0.67358  1.0000
  Li  Li186     1.0  0.82513  0.00654  0.84067  1.0000
  Li  Li187     1.0  0.85837  0.18420  0.99888  1.0000
  Li  Li188     1.0  0.81320  0.17854  0.16869  1.0000
  Li  Li189     1.0  0.84305  0.14812  0.35107  1.0000
  Li  Li190     1.0  0.82028  0.17260  0.50350  1.0000
  Li  Li191     1.0  0.83916  0.13760  0.67962  1.0000
  Li  Li192     1.0  0.80078  0.18328  0.84439  1.0000
  Li  Li193     1.0  0.82956  0.34341  0.97897  1.0000
  Li  Li194     1.0  0.84284  0.30784  0.18202  1.0000
  Li  Li195     1.0  0.83280  0.33381  0.34219  1.0000
  Li  Li196     1.0  0.83295  0.34590  0.49240  1.0000
  Li  Li197     1.0  0.81958  0.33388  0.66128  1.0000
  Li  Li198     1.0  0.82166  0.32515  0.83419  1.0000
  Li  Li199     1.0  0.82665  0.49728  0.00614  1.0000
  Li  Li200     1.0  0.84135  0.48316  0.17651  1.0000
  Li  Li201     1.0  0.82774  0.47686  0.34164  1.0000
  Li  Li202     1.0  0.83434  0.50733  0.49430  1.0000
  Li  Li203     1.0  0.82029  0.48735  0.66729  1.0000
  Li  Li204     1.0  0.84244  0.50262  0.79976  1.0000
  Li  Li205     1.0  0.81281  0.65731  0.01904  1.0000
  Li  Li206     1.0  0.83490  0.64731  0.17302  1.0000
  Li  Li207     1.0  0.84457  0.66543  0.31952  1.0000
  Li  Li208     1.0  0.84021  0.66619  0.48162  1.0000
  Li  Li209     1.0  0.84408  0.67364  0.64598  1.0000
  Li  Li210     1.0  0.83267  0.65521  0.83569  1.0000
  Li  Li211     1.0  0.82473  0.85591  0.98468  1.0000
  Li  Li212     1.0  0.84151  0.83577  0.16841  1.0000
  Li  Li213     1.0  0.82513  0.83425  0.35053  1.0000
  Li  Li214     1.0  0.85604  0.82163  0.49279  1.0000
  Li  Li215     1.0  0.83653  0.84257  0.67302  1.0000
  Li  Li216     1.0  0.82302  0.82746  0.84351  1.0000
  Cl  Cl1       1.0  0.09508  0.07567  0.08626  1.0000
  Cl  Cl2       1.0  0.07286  0.08685  0.24914  1.0000
  Cl  Cl3       1.0  0.06038  0.09265  0.42040  1.0000
  Cl  Cl4       1.0  0.07806  0.09629  0.57578  1.0000
  Cl  Cl5       1.0  0.08282  0.08514  0.76065  1.0000
  Cl  Cl6       1.0  0.08095  0.08675  0.91278  1.0000
  Cl  Cl7       1.0  0.09635  0.24994  0.08231  1.0000
  Cl  Cl8       1.0  0.07873  0.23949  0.26172  1.0000
  Cl  Cl9       1.0  0.07610  0.26694  0.42081  1.0000
  Cl  Cl10      1.0  0.09950  0.25323  0.58385  1.0000
  Cl  Cl11      1.0  0.09296  0.23910  0.75199  1.0000
  Cl  Cl12      1.0  0.09751  0.24531  0.91995  1.0000
  Cl  Cl13      1.0  0.09572  0.41400  0.07945  1.0000
  Cl  Cl14      1.0  0.09074  0.42648  0.23410  1.0000
  Cl  Cl15      1.0  0.09612  0.39828  0.42973  1.0000
  Cl  Cl16      1.0  0.08854  0.41084  0.59080  1.0000
  Cl  Cl17      1.0  0.09350  0.41307  0.75800  1.0000
  Cl  Cl18      1.0  0.08035  0.41856  0.91713  1.0000
  Cl  Cl19      1.0  0.07653  0.58135  0.08584  1.0000
  Cl  Cl20      1.0  0.07777  0.57293  0.25375  1.0000
  Cl  Cl21      1.0  0.09077  0.56706  0.40943  1.0000
  Cl  Cl22      1.0  0.09955  0.57507  0.57781  1.0000
  Cl  Cl23      1.0  0.08757  0.58816  0.74769  1.0000
  Cl  Cl24      1.0  0.08764  0.58019  0.92565  1.0000
  Cl  Cl25      1.0  0.10042  0.73944  0.08103  1.0000
  Cl  Cl26      1.0  0.08655  0.75301  0.24436  1.0000
  Cl  Cl27      1.0  0.09161  0.74412  0.42711  1.0000
  Cl  Cl28      1.0  0.08802  0.74114  0.59253  1.0000
  Cl  Cl29      1.0  0.07789  0.74241  0.75822  1.0000
  Cl  Cl30      1.0  0.07366  0.74623  0.92280  1.0000
  Cl  Cl31      1.0  0.08785  0.92126  0.07659  1.0000
  Cl  Cl32      1.0  0.07742  0.91374  0.25723  1.0000
  Cl  Cl33      1.0  0.08112  0.91031  0.42446  1.0000
  Cl  Cl34      1.0  0.08319  0.91269  0.57766  1.0000
  Cl  Cl35      1.0  0.07471  0.92232  0.74877  1.0000
  Cl  Cl36      1.0  0.05662  0.92436  0.92484  1.0000
  Cl  Cl37      1.0  0.26189  0.09129  0.06781  1.0000
  Cl  Cl38      1.0  0.24725  0.09035  0.24914  1.0000
  Cl  Cl39      1.0  0.23246  0.10302  0.41234  1.0000
  Cl  Cl40      1.0  0.24534  0.08297  0.58618  1.0000
  Cl  Cl41      1.0  0.25063  0.08916  0.75076  1.0000
  Cl  Cl42      1.0  0.25506  0.07445  0.92244  1.0000
  Cl  Cl43      1.0  0.24993  0.26219  0.08072  1.0000
  Cl  Cl44      1.0  0.24561  0.26291  0.25076  1.0000
  Cl  Cl45      1.0  0.24687  0.24839  0.42984  1.0000
  Cl  Cl46      1.0  0.24786  0.25840  0.59222  1.0000
  Cl  Cl47      1.0  0.26557  0.24658  0.75912  1.0000
  Cl  Cl48      1.0  0.25906  0.24955  0.91102  1.0000
  Cl  Cl49      1.0  0.25633  0.42451  0.06781  1.0000
  Cl  Cl50      1.0  0.24627  0.41277  0.25467  1.0000
  Cl  Cl51      1.0  0.25673  0.42361  0.39594  1.0000
  Cl  Cl52      1.0  0.27267  0.40855  0.57673  1.0000
  Cl  Cl53      1.0  0.26937  0.42400  0.75346  1.0000
  Cl  Cl54      1.0  0.24428  0.40974  0.92034  1.0000
  Cl  Cl55      1.0  0.25245  0.58467  0.08097  1.0000
  Cl  Cl56      1.0  0.25017  0.58952  0.24468  1.0000
  Cl  Cl57      1.0  0.24657  0.57480  0.41851  1.0000
  Cl  Cl58      1.0  0.25024  0.56557  0.58238  1.0000
  Cl  Cl59      1.0  0.24902  0.59229  0.74722  1.0000
  Cl  Cl60      1.0  0.25559  0.58183  0.90756  1.0000
  Cl  Cl61      1.0  0.25766  0.75762  0.07457  1.0000
  Cl  Cl62      1.0  0.24894  0.74282  0.25267  1.0000
  Cl  Cl63      1.0  0.25589  0.73287  0.41877  1.0000
  Cl  Cl64      1.0  0.24570  0.74973  0.58764  1.0000
  Cl  Cl65      1.0  0.25292  0.73874  0.75416  1.0000
  Cl  Cl66      1.0  0.24073  0.76650  0.90935  1.0000
  Cl  Cl67      1.0  0.25322  0.91127  0.08140  1.0000
  Cl  Cl68      1.0  0.24342  0.91925  0.24855  1.0000
  Cl  Cl69      1.0  0.23686  0.92634  0.41752  1.0000
  Cl  Cl70      1.0  0.25046  0.93453  0.56897  1.0000
  Cl  Cl71      1.0  0.23879  0.91088  0.74735  1.0000
  Cl  Cl72      1.0  0.25423  0.91010  0.91218  1.0000
  Cl  Cl73      1.0  0.41730  0.08210  0.08230  1.0000
  Cl  Cl74      1.0  0.41338  0.09216  0.25942  1.0000
  Cl  Cl75      1.0  0.40566  0.08576  0.41810  1.0000
  Cl  Cl76      1.0  0.42034  0.08588  0.56959  1.0000
  Cl  Cl77      1.0  0.41031  0.07972  0.75702  1.0000
  Cl  Cl78      1.0  0.41713  0.08562  0.91906  1.0000
  Cl  Cl79      1.0  0.39526  0.26432  0.08864  1.0000
  Cl  Cl80      1.0  0.40255  0.25659  0.26669  1.0000
  Cl  Cl81      1.0  0.42095  0.25085  0.41327  1.0000
  Cl  Cl82      1.0  0.42248  0.24727  0.57737  1.0000
  Cl  Cl83      1.0  0.42870  0.25537  0.74599  1.0000
  Cl  Cl84      1.0  0.41614  0.25692  0.92600  1.0000
  Cl  Cl85      1.0  0.40945  0.42623  0.07747  1.0000
  Cl  Cl86      1.0  0.42619  0.42846  0.23318  1.0000
  Cl  Cl87      1.0  0.40777  0.41659  0.41531  1.0000
  Cl  Cl88      1.0  0.42627  0.40986  0.58973  1.0000
  Cl  Cl89      1.0  0.43443  0.40622  0.75963  1.0000
  Cl  Cl90      1.0  0.41855  0.42923  0.91785  1.0000
  Cl  Cl91      1.0  0.41343  0.58642  0.08652  1.0000
  Cl  Cl92      1.0  0.41767  0.58363  0.26471  1.0000
  Cl  Cl93      1.0  0.41669  0.57767  0.43453  1.0000
  Cl  Cl94      1.0  0.42211  0.57522  0.59948  1.0000
  Cl  Cl95      1.0  0.41695  0.59680  0.74125  1.0000
  Cl  Cl96      1.0  0.41519  0.59333  0.92108  1.0000
  Cl  Cl97      1.0  0.40567  0.76184  0.08346  1.0000
  Cl  Cl98      1.0  0.41519  0.74044  0.26066  1.0000
  Cl  Cl99      1.0  0.39961  0.75331  0.42522  1.0000
  Cl  Cl100     1.0  0.41878  0.76325  0.58108  1.0000
  Cl  Cl101     1.0  0.42362  0.76190  0.73808  1.0000
  Cl  Cl102     1.0  0.42569  0.75406  0.91609  1.0000
  Cl  Cl103     1.0  0.40801  0.92132  0.08821  1.0000
  Cl  Cl104     1.0  0.41519  0.90374  0.25916  1.0000
  Cl  Cl105     1.0  0.42371  0.90689  0.41089  1.0000
  Cl  Cl106     1.0  0.42509  0.92542  0.57192  1.0000
  Cl  Cl107     1.0  0.40347  0.92405  0.75085  1.0000
  Cl  Cl108     1.0  0.41885  0.92302  0.90910  1.0000
  Cl  Cl109     1.0  0.57222  0.08598  0.09012  1.0000
  Cl  Cl110     1.0  0.58465  0.09610  0.24761  1.0000
  Cl  Cl111     1.0  0.59163  0.07337  0.42675  1.0000
  Cl  Cl112     1.0  0.58364  0.08943  0.58371  1.0000
  Cl  Cl113     1.0  0.57984  0.08694  0.75185  1.0000
  Cl  Cl114     1.0  0.58236  0.08033  0.92126  1.0000
  Cl  Cl115     1.0  0.57819  0.25689  0.07638  1.0000
  Cl  Cl116     1.0  0.58931  0.26034  0.22591  1.0000
  Cl  Cl117     1.0  0.58468  0.25668  0.40329  1.0000
  Cl  Cl118     1.0  0.59282  0.25136  0.56549  1.0000
  Cl  Cl119     1.0  0.59659  0.24193  0.74239  1.0000
  Cl  Cl120     1.0  0.57647  0.25526  0.90240  1.0000
  Cl  Cl121     1.0  0.59778  0.42017  0.06452  1.0000
  Cl  Cl122     1.0  0.58534  0.41023  0.24455  1.0000
  Cl  Cl123     1.0  0.57446  0.41781  0.41513  1.0000
  Cl  Cl124     1.0  0.58568  0.40155  0.58845  1.0000
  Cl  Cl125     1.0  0.59132  0.42702  0.74081  1.0000
  Cl  Cl126     1.0  0.56210  0.42425  0.91863  1.0000
  Cl  Cl127     1.0  0.57169  0.58441  0.07733  1.0000
  Cl  Cl128     1.0  0.57195  0.58561  0.25559  1.0000
  Cl  Cl129     1.0  0.59032  0.58143  0.40693  1.0000
  Cl  Cl130     1.0  0.57607  0.57857  0.59124  1.0000
  Cl  Cl131     1.0  0.58230  0.58015  0.75155  1.0000
  Cl  Cl132     1.0  0.59188  0.58864  0.90714  1.0000
  Cl  Cl133     1.0  0.57226  0.75577  0.08356  1.0000
  Cl  Cl134     1.0  0.58572  0.75223  0.24286  1.0000
  Cl  Cl135     1.0  0.57953  0.73825  0.42227  1.0000
  Cl  Cl136     1.0  0.59371  0.74345  0.56847  1.0000
  Cl  Cl137     1.0  0.58478  0.75125  0.74621  1.0000
  Cl  Cl138     1.0  0.58216  0.75379  0.90577  1.0000
  Cl  Cl139     1.0  0.57140  0.91402  0.08485  1.0000
  Cl  Cl140     1.0  0.58057  0.91793  0.26283  1.0000
  Cl  Cl141     1.0  0.59752  0.90466  0.42668  1.0000
  Cl  Cl142     1.0  0.57680  0.90830  0.59662  1.0000
  Cl  Cl143     1.0  0.57712  0.93027  0.74582  1.0000
  Cl  Cl144     1.0  0.57452  0.91739  0.90718  1.0000
  Cl  Cl145     1.0  0.73627  0.09341  0.08149  1.0000
  Cl  Cl146     1.0  0.73826  0.08704  0.25452  1.0000
  Cl  Cl147     1.0  0.75020  0.08205  0.40885  1.0000
  Cl  Cl148     1.0  0.74332  0.08126  0.58525  1.0000
  Cl  Cl149     1.0  0.74946  0.06891  0.75741  1.0000
  Cl  Cl150     1.0  0.73372  0.08509  0.92163  1.0000
  Cl  Cl151     1.0  0.76231  0.25912  0.07070  1.0000
  Cl  Cl152     1.0  0.75880  0.24397  0.24832  1.0000
  Cl  Cl153     1.0  0.75359  0.24048  0.41569  1.0000
  Cl  Cl154     1.0  0.76299  0.23754  0.58655  1.0000
  Cl  Cl155     1.0  0.74189  0.25079  0.75973  1.0000
  Cl  Cl156     1.0  0.73403  0.25998  0.91316  1.0000
  Cl  Cl157     1.0  0.74678  0.43112  0.06715  1.0000
  Cl  Cl158     1.0  0.75057  0.41716  0.24582  1.0000
  Cl  Cl159     1.0  0.74244  0.41607  0.41869  1.0000
  Cl  Cl160     1.0  0.75074  0.40335  0.58420  1.0000
  Cl  Cl161     1.0  0.74915  0.39084  0.75853  1.0000
  Cl  Cl162     1.0  0.75691  0.42142  0.91056  1.0000
  Cl  Cl163     1.0  0.72759  0.59025  0.09394  1.0000
  Cl  Cl164     1.0  0.73435  0.57692  0.25859  1.0000
  Cl  Cl165     1.0  0.75310  0.57959  0.41245  1.0000
  Cl  Cl166     1.0  0.73933  0.58281  0.58029  1.0000
  Cl  Cl167     1.0  0.75824  0.56551  0.73343  1.0000
  Cl  Cl168     1.0  0.73838  0.59779  0.91067  1.0000
  Cl  Cl169     1.0  0.74512  0.75581  0.07533  1.0000
  Cl  Cl170     1.0  0.74944  0.74062  0.25610  1.0000
  Cl  Cl171     1.0  0.75935  0.74025  0.40945  1.0000
  Cl  Cl172     1.0  0.75086  0.73492  0.58793  1.0000
  Cl  Cl173     1.0  0.75787  0.74534  0.73417  1.0000
  Cl  Cl174     1.0  0.74173  0.75563  0.91454  1.0000
  Cl  Cl175     1.0  0.73879  0.92035  0.09019  1.0000
  Cl  Cl176     1.0  0.75578  0.91267  0.24980  1.0000
  Cl  Cl177     1.0  0.75225  0.91443  0.41623  1.0000
  Cl  Cl178     1.0  0.75748  0.91412  0.57975  1.0000
  Cl  Cl179     1.0  0.74511  0.91683  0.74471  1.0000
  Cl  Cl180     1.0  0.74317  0.91617  0.92144  1.0000
  Cl  Cl181     1.0  0.91394  0.08827  0.09027  1.0000
  Cl  Cl182     1.0  0.92155  0.07338  0.25331  1.0000
  Cl  Cl183     1.0  0.92531  0.07689  0.41948  1.0000
  Cl  Cl184     1.0  0.90846  0.08306  0.57843  1.0000
  Cl  Cl185     1.0  0.91529  0.08581  0.75717  1.0000
  Cl  Cl186     1.0  0.89971  0.10121  0.91821  1.0000
  Cl  Cl187     1.0  0.93350  0.24877  0.08660  1.0000
  Cl  Cl188     1.0  0.90859  0.23983  0.26588  1.0000
  Cl  Cl189     1.0  0.91925  0.24316  0.42308  1.0000
  Cl  Cl190     1.0  0.91503  0.24494  0.59654  1.0000
  Cl  Cl191     1.0  0.92493  0.25481  0.74729  1.0000
  Cl  Cl192     1.0  0.92915  0.26036  0.91231  1.0000
  Cl  Cl193     1.0  0.92747  0.40082  0.10029  1.0000
  Cl  Cl194     1.0  0.92277  0.41075  0.25610  1.0000
  Cl  Cl195     1.0  0.91976  0.43053  0.39976  1.0000
  Cl  Cl196     1.0  0.90500  0.42644  0.58917  1.0000
  Cl  Cl197     1.0  0.94133  0.40637  0.73781  1.0000
  Cl  Cl198     1.0  0.90856  0.43095  0.91780  1.0000
  Cl  Cl199     1.0  0.90401  0.55911  0.09873  1.0000
  Cl  Cl200     1.0  0.91673  0.58468  0.23494  1.0000
  Cl  Cl201     1.0  0.91812  0.57542  0.41359  1.0000
  Cl  Cl202     1.0  0.92030  0.59762  0.57023  1.0000
  Cl  Cl203     1.0  0.91761  0.58648  0.73879  1.0000
  Cl  Cl204     1.0  0.91651  0.59264  0.92474  1.0000
  Cl  Cl205     1.0  0.92189  0.75546  0.07621  1.0000
  Cl  Cl206     1.0  0.91904  0.74818  0.23854  1.0000
  Cl  Cl207     1.0  0.93044  0.74035  0.39997  1.0000
  Cl  Cl208     1.0  0.92639  0.75143  0.57323  1.0000
  Cl  Cl209     1.0  0.90598  0.74710  0.75883  1.0000
  Cl  Cl210     1.0  0.91241  0.75127  0.92551  1.0000
  Cl  Cl211     1.0  0.91772  0.91832  0.09944  1.0000
  Cl  Cl212     1.0  0.90848  0.92153  0.26284  1.0000
  Cl  Cl213     1.0  0.91456  0.90837  0.43047  1.0000
  Cl  Cl214     1.0  0.92499  0.90432  0.58400  1.0000
  Cl  Cl215     1.0  0.90983  0.91579  0.75392  1.0000
  Cl  Cl216     1.0  0.91178  0.91478  0.92201  1.0000
