data_image0
_chemical_formula_structural       Hf96F384
_chemical_formula_sum              "Hf96 F384"
_cell_length_a       31.0137
_cell_length_b       15.5066
_cell_length_c       15.5
_cell_angle_alpha    63.342
_cell_angle_beta     63.342
_cell_angle_gamma    80.1625

_space_group_name_H-M_alt    "P 1"
_space_group_IT_number       1

loop_
  _space_group_symop_operation_xyz
  'x, y, z'

loop_
  _atom_site_type_symbol
  _atom_site_label
  _atom_site_symmetry_multiplicity
  _atom_site_fract_x
  _atom_site_fract_y
  _atom_site_fract_z
  _atom_site_occupancy
  Hf  Hf1       1.0  0.19926  0.11348  0.36422  1.0000
  Hf  Hf2       1.0  0.19226  0.10500  0.88055  1.0000
  Hf  Hf3       1.0  0.19649  0.60826  0.37615  1.0000
  Hf  Hf4       1.0  0.19719  0.61435  0.86962  1.0000
  Hf  Hf5       1.0  0.44679  0.10897  0.37476  1.0000
  Hf  Hf6       1.0  0.44299  0.10973  0.87265  1.0000
  Hf  Hf7       1.0  0.44598  0.60314  0.37744  1.0000
  Hf  Hf8       1.0  0.44571  0.60317  0.87545  1.0000
  Hf  Hf9       1.0  0.69539  0.10415  0.38041  1.0000
  Hf  Hf10      1.0  0.69517  0.10605  0.88210  1.0000
  Hf  Hf11      1.0  0.69308  0.59872  0.38169  1.0000
  Hf  Hf12      1.0  0.69439  0.61051  0.87550  1.0000
  Hf  Hf13      1.0  0.94263  0.10234  0.38561  1.0000
  Hf  Hf14      1.0  0.94872  0.11671  0.86413  1.0000
  Hf  Hf15      1.0  0.94667  0.60972  0.37390  1.0000
  Hf  Hf16      1.0  0.94847  0.61137  0.86019  1.0000
  Hf  Hf17      1.0  0.05255  0.38887  0.13184  1.0000
  Hf  Hf18      1.0  0.05893  0.40479  0.61492  1.0000
  Hf  Hf19      1.0  0.05157  0.89199  0.13055  1.0000
  Hf  Hf20      1.0  0.05429  0.88761  0.61758  1.0000
  Hf  Hf21      1.0  0.30719  0.39122  0.12750  1.0000
  Hf  Hf22      1.0  0.30288  0.38924  0.62837  1.0000
  Hf  Hf23      1.0  0.30651  0.89136  0.12859  1.0000
  Hf  Hf24      1.0  0.30012  0.89712  0.62444  1.0000
  Hf  Hf25      1.0  0.55399  0.38565  0.12887  1.0000
  Hf  Hf26      1.0  0.55201  0.38720  0.62062  1.0000
  Hf  Hf27      1.0  0.55230  0.89355  0.12640  1.0000
  Hf  Hf28      1.0  0.55333  0.88484  0.62692  1.0000
  Hf  Hf29      1.0  0.80364  0.38700  0.12847  1.0000
  Hf  Hf30      1.0  0.80685  0.39462  0.61596  1.0000
  Hf  Hf31      1.0  0.80337  0.89494  0.13036  1.0000
  Hf  Hf32      1.0  0.80490  0.89297  0.62897  1.0000
  Hf  Hf33      1.0  0.05663  0.18685  0.41355  1.0000
  Hf  Hf34      1.0  0.05558  0.19248  0.91132  1.0000
  Hf  Hf35      1.0  0.05953  0.67990  0.41361  1.0000
  Hf  Hf36      1.0  0.05536  0.68061  0.91682  1.0000
  Hf  Hf37      1.0  0.30531  0.17961  0.42233  1.0000
  Hf  Hf38      1.0  0.30293  0.17534  0.91825  1.0000
  Hf  Hf39      1.0  0.30553  0.68093  0.42500  1.0000
  Hf  Hf40      1.0  0.30345  0.68225  0.92209  1.0000
  Hf  Hf41      1.0  0.55501  0.18260  0.42270  1.0000
  Hf  Hf42      1.0  0.55608  0.18322  0.91666  1.0000
  Hf  Hf43      1.0  0.55305  0.68531  0.42074  1.0000
  Hf  Hf44      1.0  0.55738  0.68457  0.91014  1.0000
  Hf  Hf45      1.0  0.80436  0.17489  0.42306  1.0000
  Hf  Hf46      1.0  0.80694  0.18737  0.91476  1.0000
  Hf  Hf47      1.0  0.80473  0.68050  0.41000  1.0000
  Hf  Hf48      1.0  0.80581  0.68887  0.90877  1.0000
  Hf  Hf49      1.0  0.16145  0.39327  0.32876  1.0000
  Hf  Hf50      1.0  0.15333  0.38661  0.84284  1.0000
  Hf  Hf51      1.0  0.16301  0.89304  0.32833  1.0000
  Hf  Hf52      1.0  0.15676  0.88286  0.84275  1.0000
  Hf  Hf53      1.0  0.40964  0.38256  0.33687  1.0000
  Hf  Hf54      1.0  0.41064  0.39117  0.82961  1.0000
  Hf  Hf55      1.0  0.40817  0.89368  0.32895  1.0000
  Hf  Hf56      1.0  0.40781  0.88132  0.82967  1.0000
  Hf  Hf57      1.0  0.65970  0.38571  0.33137  1.0000
  Hf  Hf58      1.0  0.65740  0.39088  0.82774  1.0000
  Hf  Hf59      1.0  0.65759  0.88353  0.34390  1.0000
  Hf  Hf60      1.0  0.65965  0.88469  0.83684  1.0000
  Hf  Hf61      1.0  0.91019  0.39059  0.33352  1.0000
  Hf  Hf62      1.0  0.90914  0.39395  0.82836  1.0000
  Hf  Hf63      1.0  0.90919  0.88895  0.33007  1.0000
  Hf  Hf64      1.0  0.91005  0.89549  0.82732  1.0000
  Hf  Hf65      1.0  0.19480  0.32169  0.08067  1.0000
  Hf  Hf66      1.0  0.19871  0.31449  0.58264  1.0000
  Hf  Hf67      1.0  0.19255  0.82308  0.08620  1.0000
  Hf  Hf68      1.0  0.19123  0.81795  0.58365  1.0000
  Hf  Hf69      1.0  0.44537  0.31213  0.08407  1.0000
  Hf  Hf70      1.0  0.44207  0.31393  0.59128  1.0000
  Hf  Hf71      1.0  0.43962  0.81722  0.08111  1.0000
  Hf  Hf72      1.0  0.43932  0.81620  0.58929  1.0000
  Hf  Hf73      1.0  0.69317  0.31564  0.08486  1.0000
  Hf  Hf74      1.0  0.69246  0.32242  0.58360  1.0000
  Hf  Hf75      1.0  0.69224  0.81784  0.09542  1.0000
  Hf  Hf76      1.0  0.69528  0.81815  0.58031  1.0000
  Hf  Hf77      1.0  0.94435  0.31505  0.08127  1.0000
  Hf  Hf78      1.0  0.94633  0.31877  0.58042  1.0000
  Hf  Hf79      1.0  0.94250  0.82832  0.07689  1.0000
  Hf  Hf80      1.0  0.94573  0.81265  0.57757  1.0000
  Hf  Hf81      1.0  0.09162  0.11292  0.16907  1.0000
  Hf  Hf82      1.0  0.08969  0.10963  0.67112  1.0000
  Hf  Hf83      1.0  0.08806  0.61103  0.17068  1.0000
  Hf  Hf84      1.0  0.09338  0.60465  0.67391  1.0000
  Hf  Hf85      1.0  0.34216  0.11564  0.16443  1.0000
  Hf  Hf86      1.0  0.34163  0.10313  0.66774  1.0000
  Hf  Hf87      1.0  0.34277  0.60252  0.17740  1.0000
  Hf  Hf88      1.0  0.34153  0.60917  0.67006  1.0000
  Hf  Hf89      1.0  0.59010  0.10948  0.17286  1.0000
  Hf  Hf90      1.0  0.58920  0.10958  0.66891  1.0000
  Hf  Hf91      1.0  0.59166  0.61694  0.16339  1.0000
  Hf  Hf92      1.0  0.59294  0.60915  0.65816  1.0000
  Hf  Hf93      1.0  0.84485  0.11113  0.16403  1.0000
  Hf  Hf94      1.0  0.83827  0.11663  0.67028  1.0000
  Hf  Hf95      1.0  0.84249  0.61773  0.15476  1.0000
  Hf  Hf96      1.0  0.84030  0.61011  0.66655  1.0000
  F   F1        1.0  0.07827  0.14238  0.30170  1.0000
  F   F2        1.0  0.08373  0.13958  0.79625  1.0000
  F   F3        1.0  0.07903  0.62090  0.30323  1.0000
  F   F4        1.0  0.08153  0.60997  0.80914  1.0000
  F   F5        1.0  0.33652  0.14068  0.29108  1.0000
  F   F6        1.0  0.32967  0.11846  0.80933  1.0000
  F   F7        1.0  0.32885  0.62418  0.31298  1.0000
  F   F8        1.0  0.32491  0.61244  0.81415  1.0000
  F   F9        1.0  0.57844  0.12765  0.30863  1.0000
  F   F10       1.0  0.57990  0.10959  0.80849  1.0000
  F   F11       1.0  0.57280  0.62234  0.31074  1.0000
  F   F12       1.0  0.58409  0.62895  0.79707  1.0000
  F   F13       1.0  0.83844  0.12664  0.29789  1.0000
  F   F14       1.0  0.82458  0.11827  0.81074  1.0000
  F   F15       1.0  0.82303  0.62618  0.30186  1.0000
  F   F16       1.0  0.82593  0.63460  0.80449  1.0000
  F   F17       1.0  0.18775  0.35403  0.43877  1.0000
  F   F18       1.0  0.19112  0.34691  0.93896  1.0000
  F   F19       1.0  0.18866  0.84753  0.44020  1.0000
  F   F20       1.0  0.18272  0.83350  0.95522  1.0000
  F   F21       1.0  0.43727  0.33622  0.45037  1.0000
  F   F22       1.0  0.43199  0.33700  0.95825  1.0000
  F   F23       1.0  0.43697  0.84757  0.43689  1.0000
  F   F24       1.0  0.43053  0.81698  0.95698  1.0000
  F   F25       1.0  0.68657  0.34079  0.44866  1.0000
  F   F26       1.0  0.69074  0.34230  0.94465  1.0000
  F   F27       1.0  0.68259  0.83801  0.45492  1.0000
  F   F28       1.0  0.68421  0.82841  0.95162  1.0000
  F   F29       1.0  0.93188  0.33837  0.45472  1.0000
  F   F30       1.0  0.93648  0.35102  0.93233  1.0000
  F   F31       1.0  0.93549  0.84191  0.45234  1.0000
  F   F32       1.0  0.93857  0.84267  0.93634  1.0000
  F   F33       1.0  0.17189  0.37289  0.19465  1.0000
  F   F34       1.0  0.16920  0.36723  0.69895  1.0000
  F   F35       1.0  0.17481  0.89563  0.18813  1.0000
  F   F36       1.0  0.16879  0.87156  0.69333  1.0000
  F   F37       1.0  0.42166  0.35977  0.20732  1.0000
  F   F38       1.0  0.42123  0.36959  0.69417  1.0000
  F   F39       1.0  0.41868  0.87092  0.19238  1.0000
  F   F40       1.0  0.42048  0.87937  0.68631  1.0000
  F   F41       1.0  0.66727  0.37158  0.19920  1.0000
  F   F42       1.0  0.66894  0.37862  0.69708  1.0000
  F   F43       1.0  0.67024  0.87724  0.19610  1.0000
  F   F44       1.0  0.67066  0.87662  0.69372  1.0000
  F   F45       1.0  0.91889  0.36768  0.19397  1.0000
  F   F46       1.0  0.92515  0.37578  0.68576  1.0000
  F   F47       1.0  0.91533  0.88277  0.18721  1.0000
  F   F48       1.0  0.92356  0.87769  0.68321  1.0000
  F   F49       1.0  0.06429  0.16529  0.05419  1.0000
  F   F50       1.0  0.05594  0.14757  0.56497  1.0000
  F   F51       1.0  0.05750  0.65470  0.05607  1.0000
  F   F52       1.0  0.07490  0.66807  0.54636  1.0000
  F   F53       1.0  0.31428  0.15597  0.05676  1.0000
  F   F54       1.0  0.31260  0.14798  0.55704  1.0000
  F   F55       1.0  0.31246  0.67022  0.04891  1.0000
  F   F56       1.0  0.31340  0.66532  0.55861  1.0000
  F   F57       1.0  0.56825  0.16376  0.05397  1.0000
  F   F58       1.0  0.56206  0.14161  0.56654  1.0000
  F   F59       1.0  0.56588  0.66663  0.04734  1.0000
  F   F60       1.0  0.56271  0.64204  0.55543  1.0000
  F   F61       1.0  0.81990  0.16640  0.04834  1.0000
  F   F62       1.0  0.80968  0.15566  0.55734  1.0000
  F   F63       1.0  0.81570  0.66300  0.04554  1.0000
  F   F64       1.0  0.81176  0.66694  0.55741  1.0000
  F   F65       1.0  0.21110  0.19873  0.20681  1.0000
  F   F66       1.0  0.20784  0.20151  0.71234  1.0000
  F   F67       1.0  0.19885  0.72179  0.21426  1.0000
  F   F68       1.0  0.19193  0.70230  0.71563  1.0000
  F   F69       1.0  0.46299  0.20483  0.20012  1.0000
  F   F70       1.0  0.45124  0.20119  0.70678  1.0000
  F   F71       1.0  0.44641  0.69658  0.21840  1.0000
  F   F72       1.0  0.45192  0.71092  0.69995  1.0000
  F   F73       1.0  0.70472  0.20329  0.21568  1.0000
  F   F74       1.0  0.69738  0.21145  0.72353  1.0000
  F   F75       1.0  0.70256  0.70625  0.21892  1.0000
  F   F76       1.0  0.70011  0.70477  0.70855  1.0000
  F   F77       1.0  0.94818  0.19784  0.20312  1.0000
  F   F78       1.0  0.96321  0.20119  0.70735  1.0000
  F   F79       1.0  0.95492  0.70563  0.22502  1.0000
  F   F80       1.0  0.95252  0.69871  0.70850  1.0000
  F   F81       1.0  0.14940  0.07984  0.04890  1.0000
  F   F82       1.0  0.14609  0.10927  0.53329  1.0000
  F   F83       1.0  0.14294  0.60056  0.04048  1.0000
  F   F84       1.0  0.15339  0.59022  0.54025  1.0000
  F   F85       1.0  0.40203  0.08390  0.03565  1.0000
  F   F86       1.0  0.39403  0.09131  0.53731  1.0000
  F   F87       1.0  0.39804  0.59342  0.04192  1.0000
  F   F88       1.0  0.40123  0.59528  0.53131  1.0000
  F   F89       1.0  0.64938  0.08394  0.04905  1.0000
  F   F90       1.0  0.65131  0.08989  0.54259  1.0000
  F   F91       1.0  0.64787  0.59362  0.04803  1.0000
  F   F92       1.0  0.64791  0.57226  0.53650  1.0000
  F   F93       1.0  0.90309  0.09653  0.02766  1.0000
  F   F94       1.0  0.90252  0.11240  0.53403  1.0000
  F   F95       1.0  0.90531  0.62239  0.03217  1.0000
  F   F96       1.0  0.90389  0.60474  0.53092  1.0000
  F   F97       1.0  0.15268  0.19952  0.13054  1.0000
  F   F98       1.0  0.15733  0.20321  0.62820  1.0000
  F   F99       1.0  0.14913  0.70290  0.14245  1.0000
  F   F100      1.0  0.14899  0.70293  0.61547  1.0000
  F   F101      1.0  0.40751  0.19333  0.12806  1.0000
  F   F102      1.0  0.40435  0.18960  0.61688  1.0000
  F   F103      1.0  0.40244  0.68802  0.13486  1.0000
  F   F104      1.0  0.40250  0.69882  0.62657  1.0000
  F   F105      1.0  0.65252  0.18691  0.12999  1.0000
  F   F106      1.0  0.64449  0.19480  0.63003  1.0000
  F   F107      1.0  0.65028  0.69125  0.13383  1.0000
  F   F108      1.0  0.65613  0.68505  0.61558  1.0000
  F   F109      1.0  0.90338  0.20090  0.10352  1.0000
  F   F110      1.0  0.90679  0.20075  0.63397  1.0000
  F   F111      1.0  0.89759  0.71290  0.14390  1.0000
  F   F112      1.0  0.89818  0.69471  0.63013  1.0000
  F   F113      1.0  0.10329  0.30081  0.36862  1.0000
  F   F114      1.0  0.09311  0.31508  0.87189  1.0000
  F   F115      1.0  0.10367  0.79776  0.35142  1.0000
  F   F116      1.0  0.10400  0.79773  0.89900  1.0000
  F   F117      1.0  0.34782  0.30675  0.38400  1.0000
  F   F118      1.0  0.35161  0.30958  0.86052  1.0000
  F   F119      1.0  0.34531  0.81092  0.38097  1.0000
  F   F120      1.0  0.35023  0.79879  0.86931  1.0000
  F   F121      1.0  0.59873  0.29934  0.39711  1.0000
  F   F122      1.0  0.59714  0.30620  0.87238  1.0000
  F   F123      1.0  0.59934  0.79839  0.38605  1.0000
  F   F124      1.0  0.59274  0.80607  0.86519  1.0000
  F   F125      1.0  0.85438  0.30594  0.36925  1.0000
  F   F126      1.0  0.85221  0.30360  0.86406  1.0000
  F   F127      1.0  0.85170  0.79963  0.36247  1.0000
  F   F128      1.0  0.85330  0.80766  0.85324  1.0000
  F   F129      1.0  0.06565  0.24878  0.14290  1.0000
  F   F130      1.0  0.07544  0.25984  0.62005  1.0000
  F   F131      1.0  0.06499  0.76055  0.13412  1.0000
  F   F132      1.0  0.04905  0.74548  0.66988  1.0000
  F   F133      1.0  0.32809  0.25912  0.12405  1.0000
  F   F134      1.0  0.31471  0.23950  0.64640  1.0000
  F   F135      1.0  0.31868  0.74486  0.15636  1.0000
  F   F136      1.0  0.31483  0.74782  0.64565  1.0000
  F   F137      1.0  0.55966  0.24392  0.16285  1.0000
  F   F138      1.0  0.56079  0.24411  0.64526  1.0000
  F   F139      1.0  0.55867  0.74651  0.15011  1.0000
  F   F140      1.0  0.57022  0.74635  0.63214  1.0000
  F   F141      1.0  0.81197  0.24229  0.15513  1.0000
  F   F142      1.0  0.83256  0.26016  0.60200  1.0000
  F   F143      1.0  0.81257  0.75423  0.14241  1.0000
  F   F144      1.0  0.81335  0.75078  0.65797  1.0000
  F   F145      1.0  0.12691  0.35936  0.10591  1.0000
  F   F146      1.0  0.12770  0.37828  0.59617  1.0000
  F   F147      1.0  0.12484  0.88689  0.10567  1.0000
  F   F148      1.0  0.12195  0.87403  0.60164  1.0000
  F   F149      1.0  0.37363  0.37782  0.11264  1.0000
  F   F150      1.0  0.37547  0.37399  0.60823  1.0000
  F   F151      1.0  0.38013  0.88860  0.09063  1.0000
  F   F152      1.0  0.37053  0.87516  0.60580  1.0000
  F   F153      1.0  0.62656  0.36971  0.09849  1.0000
  F   F154      1.0  0.62550  0.36996  0.60592  1.0000
  F   F155      1.0  0.62503  0.85823  0.11010  1.0000
  F   F156      1.0  0.62580  0.86958  0.61072  1.0000
  F   F157      1.0  0.87678  0.36448  0.09573  1.0000
  F   F158      1.0  0.87389  0.36696  0.61721  1.0000
  F   F159      1.0  0.87369  0.87700  0.09602  1.0000
  F   F160      1.0  0.87493  0.87778  0.60276  1.0000
  F   F161      1.0  0.18855  0.25039  0.35598  1.0000
  F   F162      1.0  0.17601  0.24563  0.87276  1.0000
  F   F163      1.0  0.18697  0.75035  0.35591  1.0000
  F   F164      1.0  0.19465  0.75265  0.84520  1.0000
  F   F165      1.0  0.43225  0.24665  0.37053  1.0000
  F   F166      1.0  0.43561  0.25022  0.84843  1.0000
  F   F167      1.0  0.43807  0.75360  0.34580  1.0000
  F   F168      1.0  0.43495  0.74597  0.84498  1.0000
  F   F169      1.0  0.68954  0.24294  0.36112  1.0000
  F   F170      1.0  0.67899  0.25269  0.86826  1.0000
  F   F171      1.0  0.67492  0.74042  0.37275  1.0000
  F   F172      1.0  0.67217  0.73855  0.88591  1.0000
  F   F173      1.0  0.94282  0.24910  0.34142  1.0000
  F   F174      1.0  0.93655  0.25513  0.84243  1.0000
  F   F175      1.0  0.93517  0.75610  0.36268  1.0000
  F   F176      1.0  0.94014  0.74904  0.84674  1.0000
  F   F177      1.0  0.12751  0.13947  0.38163  1.0000
  F   F178      1.0  0.12365  0.13017  0.89621  1.0000
  F   F179      1.0  0.12322  0.60811  0.40629  1.0000
  F   F180      1.0  0.12607  0.63766  0.89759  1.0000
  F   F181      1.0  0.37492  0.13624  0.39208  1.0000
  F   F182      1.0  0.37504  0.13517  0.88704  1.0000
  F   F183      1.0  0.37622  0.62962  0.39105  1.0000
  F   F184      1.0  0.37493  0.62634  0.88068  1.0000
  F   F185      1.0  0.62623  0.13233  0.38231  1.0000
  F   F186      1.0  0.62486  0.13350  0.89872  1.0000
  F   F187      1.0  0.62189  0.63404  0.38817  1.0000
  F   F188      1.0  0.62274  0.62119  0.90417  1.0000
  F   F189      1.0  0.87435  0.11624  0.40927  1.0000
  F   F190      1.0  0.87619  0.13531  0.87883  1.0000
  F   F191      1.0  0.87456  0.61546  0.39654  1.0000
  F   F192      1.0  0.87332  0.61250  0.91732  1.0000
  F   F193      1.0  0.00640  0.37015  0.08049  1.0000
  F   F194      1.0  0.01124  0.36767  0.57544  1.0000
  F   F195      1.0  0.00365  0.86793  0.07860  1.0000
  F   F196      1.0  0.01022  0.86051  0.55595  1.0000
  F   F197      1.0  0.25797  0.36800  0.07719  1.0000
  F   F198      1.0  0.25894  0.36523  0.56965  1.0000
  F   F199      1.0  0.25959  0.85688  0.08163  1.0000
  F   F200      1.0  0.25332  0.85074  0.58257  1.0000
  F   F201      1.0  0.50765  0.36045  0.07753  1.0000
  F   F202      1.0  0.50509  0.35855  0.57389  1.0000
  F   F203      1.0  0.50865  0.85566  0.07982  1.0000
  F   F204      1.0  0.50904  0.86415  0.56114  1.0000
  F   F205      1.0  0.75829  0.35611  0.07310  1.0000
  F   F206      1.0  0.76249  0.36015  0.56315  1.0000
  F   F207      1.0  0.75470  0.86841  0.09025  1.0000
  F   F208      1.0  0.75968  0.86146  0.57315  1.0000
  F   F209      1.0  0.06966  0.47714  0.18070  1.0000
  F   F210      1.0  0.06763  0.48464  0.68606  1.0000
  F   F211      1.0  0.06487  0.98290  0.18876  1.0000
  F   F212      1.0  0.06989  0.98255  0.67452  1.0000
  F   F213      1.0  0.31781  0.49108  0.17446  1.0000
  F   F214      1.0  0.32100  0.48337  0.66800  1.0000
  F   F215      1.0  0.32046  0.98428  0.17449  1.0000
  F   F216      1.0  0.31980  0.98212  0.67935  1.0000
  F   F217      1.0  0.56368  0.48432  0.17311  1.0000
  F   F218      1.0  0.56904  0.48246  0.66398  1.0000
  F   F219      1.0  0.56854  0.98464  0.17559  1.0000
  F   F220      1.0  0.56792  0.98325  0.68606  1.0000
  F   F221      1.0  0.81994  0.48704  0.17169  1.0000
  F   F222      1.0  0.81905  0.49462  0.66308  1.0000
  F   F223      1.0  0.81603  0.99513  0.17780  1.0000
  F   F224      1.0  0.82044  0.99172  0.68138  1.0000
  F   F225      1.0  0.24550  0.14864  0.42219  1.0000
  F   F226      1.0  0.23699  0.13585  0.92756  1.0000
  F   F227      1.0  0.24738  0.64079  0.41827  1.0000
  F   F228      1.0  0.24390  0.63446  0.92402  1.0000
  F   F229      1.0  0.48985  0.13348  0.42892  1.0000
  F   F230      1.0  0.49084  0.13020  0.92643  1.0000
  F   F231      1.0  0.49450  0.63477  0.42706  1.0000
  F   F232      1.0  0.49412  0.63970  0.91475  1.0000
  F   F233      1.0  0.74404  0.12943  0.43780  1.0000
  F   F234      1.0  0.74187  0.13086  0.92877  1.0000
  F   F235      1.0  0.73768  0.63632  0.41520  1.0000
  F   F236      1.0  0.74267  0.64634  0.91831  1.0000
  F   F237      1.0  0.99318  0.13770  0.43709  1.0000
  F   F238      1.0  0.99167  0.14761  0.92055  1.0000
  F   F239      1.0  0.99496  0.65308  0.41285  1.0000
  F   F240      1.0  0.99559  0.62456  0.92256  1.0000
  F   F241      1.0  0.17939  0.02012  0.32189  1.0000
  F   F242      1.0  0.17533  0.01291  0.83681  1.0000
  F   F243      1.0  0.18533  0.51885  0.32190  1.0000
  F   F244      1.0  0.17547  0.51939  0.82716  1.0000
  F   F245      1.0  0.43198  0.01830  0.31613  1.0000
  F   F246      1.0  0.42777  0.00698  0.82750  1.0000
  F   F247      1.0  0.43117  0.50538  0.32179  1.0000
  F   F248      1.0  0.43629  0.51223  0.81758  1.0000
  F   F249      1.0  0.68196  0.00425  0.32548  1.0000
  F   F250      1.0  0.68365  0.00773  0.84200  1.0000
  F   F251      1.0  0.67915  0.51279  0.31878  1.0000
  F   F252      1.0  0.68477  0.51500  0.82101  1.0000
  F   F253      1.0  0.93162  0.02063  0.32177  1.0000
  F   F254      1.0  0.93468  0.01829  0.82253  1.0000
  F   F255      1.0  0.93707  0.52359  0.31516  1.0000
  F   F256      1.0  0.92441  0.52049  0.82279  1.0000
  F   F257      1.0  0.99730  0.26199  0.98715  1.0000
  F   F258      1.0  0.00541  0.28543  0.47791  1.0000
  F   F259      1.0  0.99820  0.75475  0.98884  1.0000
  F   F260      1.0  0.00306  0.74121  0.49871  1.0000
  F   F261      1.0  0.24991  0.24657  0.00263  1.0000
  F   F262      1.0  0.25264  0.25246  0.49582  1.0000
  F   F263      1.0  0.24661  0.74245  0.01132  1.0000
  F   F264      1.0  0.24885  0.74588  0.50390  1.0000
  F   F265      1.0  0.50205  0.24275  0.00582  1.0000
  F   F266      1.0  0.49932  0.25698  0.49695  1.0000
  F   F267      1.0  0.49713  0.74664  0.99893  1.0000
  F   F268      1.0  0.49903  0.75402  0.49610  1.0000
  F   F269      1.0  0.75277  0.24345  0.00294  1.0000
  F   F270      1.0  0.74594  0.24521  0.50558  1.0000
  F   F271      1.0  0.75187  0.76641  0.99693  1.0000
  F   F272      1.0  0.75106  0.74750  0.49457  1.0000
  F   F273      1.0  0.12805  0.00394  0.25653  1.0000
  F   F274      1.0  0.12541  0.99924  0.74711  1.0000
  F   F275      1.0  0.13236  0.50691  0.23146  1.0000
  F   F276      1.0  0.13506  0.50009  0.72929  1.0000
  F   F277      1.0  0.37509  0.00239  0.24237  1.0000
  F   F278      1.0  0.37589  0.99747  0.75090  1.0000
  F   F279      1.0  0.37327  0.49447  0.25949  1.0000
  F   F280      1.0  0.38200  0.50946  0.74133  1.0000
  F   F281      1.0  0.61589  0.98817  0.26800  1.0000
  F   F282      1.0  0.63989  0.01303  0.74668  1.0000
  F   F283      1.0  0.62226  0.49876  0.25151  1.0000
  F   F284      1.0  0.62267  0.50312  0.75174  1.0000
  F   F285      1.0  0.87800  0.00204  0.24695  1.0000
  F   F286      1.0  0.87749  0.00821  0.74206  1.0000
  F   F287      1.0  0.87608  0.50315  0.23742  1.0000
  F   F288      1.0  0.86775  0.49527  0.75778  1.0000
  F   F289      1.0  0.04230  0.03819  0.02138  1.0000
  F   F290      1.0  0.05286  0.01994  0.51063  1.0000
  F   F291      1.0  0.04302  0.52175  0.02821  1.0000
  F   F292      1.0  0.03750  0.53570  0.52818  1.0000
  F   F293      1.0  0.29304  0.03105  0.01974  1.0000
  F   F294      1.0  0.28779  0.02336  0.52288  1.0000
  F   F295      1.0  0.29556  0.52939  0.02557  1.0000
  F   F296      1.0  0.29059  0.53275  0.53407  1.0000
  F   F297      1.0  0.54531  0.03786  0.01557  1.0000
  F   F298      1.0  0.54018  0.03294  0.51980  1.0000
  F   F299      1.0  0.53986  0.52343  0.02740  1.0000
  F   F300      1.0  0.54392  0.51871  0.51483  1.0000
  F   F301      1.0  0.79618  0.03341  0.02164  1.0000
  F   F302      1.0  0.79334  0.02636  0.52579  1.0000
  F   F303      1.0  0.78549  0.52728  0.03140  1.0000
  F   F304      1.0  0.78574  0.53493  0.52072  1.0000
  F   F305      1.0  0.23372  0.42210  0.22147  1.0000
  F   F306      1.0  0.23487  0.39897  0.73105  1.0000
  F   F307      1.0  0.23873  0.91651  0.23156  1.0000
  F   F308      1.0  0.23328  0.91491  0.71953  1.0000
  F   F309      1.0  0.48599  0.38634  0.23433  1.0000
  F   F310      1.0  0.48730  0.40941  0.72647  1.0000
  F   F311      1.0  0.48728  0.91695  0.22229  1.0000
  F   F312      1.0  0.48510  0.89935  0.73015  1.0000
  F   F313      1.0  0.73976  0.39712  0.24179  1.0000
  F   F314      1.0  0.73278  0.41883  0.72477  1.0000
  F   F315      1.0  0.73507  0.91655  0.23277  1.0000
  F   F316      1.0  0.73340  0.90455  0.73813  1.0000
  F   F317      1.0  0.98283  0.42582  0.22691  1.0000
  F   F318      1.0  0.98758  0.41941  0.72389  1.0000
  F   F319      1.0  0.98043  0.91822  0.22426  1.0000
  F   F320      1.0  0.99057  0.90826  0.72302  1.0000
  F   F321      1.0  0.21273  0.47302  0.48058  1.0000
  F   F322      1.0  0.20412  0.47806  0.97193  1.0000
  F   F323      1.0  0.20767  0.98130  0.47527  1.0000
  F   F324      1.0  0.21333  0.96714  0.97053  1.0000
  F   F325      1.0  0.45952  0.47106  0.47019  1.0000
  F   F326      1.0  0.45518  0.46867  0.97185  1.0000
  F   F327      1.0  0.45956  0.97063  0.47706  1.0000
  F   F328      1.0  0.46699  0.95602  0.96633  1.0000
  F   F329      1.0  0.71216  0.46308  0.47675  1.0000
  F   F330      1.0  0.70507  0.47038  0.98157  1.0000
  F   F331      1.0  0.71322  0.96220  0.47343  1.0000
  F   F332      1.0  0.70685  0.96041  0.99251  1.0000
  F   F333      1.0  0.95392  0.46790  0.47606  1.0000
  F   F334      1.0  0.95224  0.47388  0.97348  1.0000
  F   F335      1.0  0.95620  0.96927  0.48697  1.0000
  F   F336      1.0  0.95881  0.97166  0.97886  1.0000
  F   F337      1.0  0.01373  0.09072  0.28234  1.0000
  F   F338      1.0  0.02100  0.07858  0.78456  1.0000
  F   F339      1.0  0.01850  0.57626  0.27502  1.0000
  F   F340      1.0  0.01175  0.57900  0.76929  1.0000
  F   F341      1.0  0.27062  0.08982  0.26683  1.0000
  F   F342      1.0  0.26343  0.07996  0.77055  1.0000
  F   F343      1.0  0.26773  0.59401  0.26447  1.0000
  F   F344      1.0  0.26339  0.59120  0.76202  1.0000
  F   F345      1.0  0.51448  0.09104  0.26925  1.0000
  F   F346      1.0  0.51024  0.08776  0.77645  1.0000
  F   F347      1.0  0.51055  0.58959  0.27413  1.0000
  F   F348      1.0  0.51597  0.59505  0.76758  1.0000
  F   F349      1.0  0.76300  0.08344  0.28537  1.0000
  F   F350      1.0  0.76177  0.10873  0.76580  1.0000
  F   F351      1.0  0.76698  0.58047  0.26789  1.0000
  F   F352      1.0  0.75895  0.59245  0.77735  1.0000
  F   F353      1.0  0.09921  0.42040  0.44575  1.0000
  F   F354      1.0  0.09982  0.40600  0.96200  1.0000
  F   F355      1.0  0.10473  0.87923  0.46067  1.0000
  F   F356      1.0  0.09692  0.92386  0.96698  1.0000
  F   F357      1.0  0.35112  0.40249  0.46872  1.0000
  F   F358      1.0  0.35462  0.41117  0.95578  1.0000
  F   F359      1.0  0.35176  0.91842  0.45080  1.0000
  F   F360      1.0  0.35200  0.90645  0.95907  1.0000
  F   F361      1.0  0.60440  0.40438  0.46404  1.0000
  F   F362      1.0  0.60623  0.39903  0.96404  1.0000
  F   F363      1.0  0.60202  0.90773  0.46328  1.0000
  F   F364      1.0  0.60070  0.90418  0.96566  1.0000
  F   F365      1.0  0.85520  0.43428  0.44982  1.0000
  F   F366      1.0  0.84821  0.41580  0.95789  1.0000
  F   F367      1.0  0.85374  0.90194  0.45945  1.0000
  F   F368      1.0  0.85578  0.89602  0.94944  1.0000
  F   F369      1.0  0.04479  0.30335  0.28492  1.0000
  F   F370      1.0  0.04819  0.29976  0.78180  1.0000
  F   F371      1.0  0.04661  0.80403  0.28194  1.0000
  F   F372      1.0  0.06468  0.80120  0.78964  1.0000
  F   F373      1.0  0.29677  0.30108  0.28220  1.0000
  F   F374      1.0  0.29370  0.28612  0.79555  1.0000
  F   F375      1.0  0.29890  0.80598  0.28478  1.0000
  F   F376      1.0  0.29335  0.80813  0.79413  1.0000
  F   F377      1.0  0.56350  0.29990  0.28364  1.0000
  F   F378      1.0  0.55096  0.28788  0.78347  1.0000
  F   F379      1.0  0.55177  0.80254  0.28041  1.0000
  F   F380      1.0  0.54957  0.79377  0.77414  1.0000
  F   F381      1.0  0.80509  0.29644  0.28808  1.0000
  F   F382      1.0  0.79685  0.29424  0.78319  1.0000
  F   F383      1.0  0.79724  0.81841  0.28211  1.0000
  F   F384      1.0  0.79471  0.80641  0.78953  1.0000
