data_image0
_chemical_formula_structural       Hf96F384
_chemical_formula_sum              "Hf96 F384"
_cell_length_a       31.0252
_cell_length_b       15.5102
_cell_length_c       15.5036
_cell_angle_alpha    63.342
_cell_angle_beta     63.342
_cell_angle_gamma    80.1625

_space_group_name_H-M_alt    "P 1"
_space_group_IT_number       1

loop_
  _space_group_symop_operation_xyz
  'x, y, z'

loop_
  _atom_site_type_symbol
  _atom_site_label
  _atom_site_symmetry_multiplicity
  _atom_site_fract_x
  _atom_site_fract_y
  _atom_site_fract_z
  _atom_site_occupancy
  Hf  Hf1       1.0  0.20013  0.11224  0.36333  1.0000
  Hf  Hf2       1.0  0.19796  0.11610  0.86764  1.0000
  Hf  Hf3       1.0  0.19481  0.61434  0.36692  1.0000
  Hf  Hf4       1.0  0.19579  0.61235  0.87477  1.0000
  Hf  Hf5       1.0  0.44657  0.10836  0.37463  1.0000
  Hf  Hf6       1.0  0.44703  0.11372  0.86721  1.0000
  Hf  Hf7       1.0  0.44760  0.60092  0.38116  1.0000
  Hf  Hf8       1.0  0.44666  0.60579  0.87969  1.0000
  Hf  Hf9       1.0  0.69382  0.10815  0.37734  1.0000
  Hf  Hf10      1.0  0.69804  0.09916  0.87167  1.0000
  Hf  Hf11      1.0  0.69568  0.60200  0.38381  1.0000
  Hf  Hf12      1.0  0.69773  0.59866  0.88043  1.0000
  Hf  Hf13      1.0  0.94797  0.10931  0.36919  1.0000
  Hf  Hf14      1.0  0.94436  0.10844  0.87490  1.0000
  Hf  Hf15      1.0  0.94496  0.60705  0.37763  1.0000
  Hf  Hf16      1.0  0.94646  0.60287  0.87215  1.0000
  Hf  Hf17      1.0  0.05206  0.39205  0.12354  1.0000
  Hf  Hf18      1.0  0.05295  0.39943  0.61768  1.0000
  Hf  Hf19      1.0  0.05393  0.89305  0.12504  1.0000
  Hf  Hf20      1.0  0.05467  0.89986  0.61939  1.0000
  Hf  Hf21      1.0  0.30483  0.39659  0.12516  1.0000
  Hf  Hf22      1.0  0.29711  0.39630  0.62996  1.0000
  Hf  Hf23      1.0  0.30198  0.89674  0.13034  1.0000
  Hf  Hf24      1.0  0.30255  0.88708  0.62914  1.0000
  Hf  Hf25      1.0  0.55412  0.39449  0.13028  1.0000
  Hf  Hf26      1.0  0.55096  0.38492  0.63375  1.0000
  Hf  Hf27      1.0  0.55340  0.88931  0.13155  1.0000
  Hf  Hf28      1.0  0.55651  0.88715  0.62939  1.0000
  Hf  Hf29      1.0  0.80166  0.39035  0.12921  1.0000
  Hf  Hf30      1.0  0.80074  0.38798  0.62664  1.0000
  Hf  Hf31      1.0  0.80550  0.89409  0.12244  1.0000
  Hf  Hf32      1.0  0.80544  0.89355  0.62945  1.0000
  Hf  Hf33      1.0  0.05695  0.18866  0.41581  1.0000
  Hf  Hf34      1.0  0.05285  0.18098  0.92805  1.0000
  Hf  Hf35      1.0  0.05535  0.68772  0.40996  1.0000
  Hf  Hf36      1.0  0.05272  0.68856  0.91606  1.0000
  Hf  Hf37      1.0  0.30180  0.18721  0.41919  1.0000
  Hf  Hf38      1.0  0.30523  0.18275  0.91929  1.0000
  Hf  Hf39      1.0  0.30652  0.68567  0.40951  1.0000
  Hf  Hf40      1.0  0.30583  0.68824  0.91414  1.0000
  Hf  Hf41      1.0  0.55328  0.18205  0.42634  1.0000
  Hf  Hf42      1.0  0.55727  0.17072  0.92268  1.0000
  Hf  Hf43      1.0  0.56076  0.67756  0.41624  1.0000
  Hf  Hf44      1.0  0.55511  0.67837  0.92166  1.0000
  Hf  Hf45      1.0  0.80652  0.17699  0.41657  1.0000
  Hf  Hf46      1.0  0.80124  0.18481  0.91425  1.0000
  Hf  Hf47      1.0  0.80059  0.67878  0.42413  1.0000
  Hf  Hf48      1.0  0.81072  0.68311  0.90408  1.0000
  Hf  Hf49      1.0  0.15803  0.38848  0.33126  1.0000
  Hf  Hf50      1.0  0.15600  0.40001  0.83183  1.0000
  Hf  Hf51      1.0  0.16187  0.88928  0.33012  1.0000
  Hf  Hf52      1.0  0.15890  0.88976  0.83195  1.0000
  Hf  Hf53      1.0  0.41050  0.38759  0.32794  1.0000
  Hf  Hf54      1.0  0.40570  0.39129  0.83369  1.0000
  Hf  Hf55      1.0  0.41046  0.88434  0.33511  1.0000
  Hf  Hf56      1.0  0.40882  0.89000  0.83079  1.0000
  Hf  Hf57      1.0  0.65741  0.38409  0.33747  1.0000
  Hf  Hf58      1.0  0.65903  0.38341  0.82879  1.0000
  Hf  Hf59      1.0  0.65761  0.87722  0.34469  1.0000
  Hf  Hf60      1.0  0.65800  0.87277  0.84585  1.0000
  Hf  Hf61      1.0  0.90756  0.39111  0.33184  1.0000
  Hf  Hf62      1.0  0.90851  0.38400  0.83305  1.0000
  Hf  Hf63      1.0  0.91277  0.88909  0.32820  1.0000
  Hf  Hf64      1.0  0.91362  0.88766  0.82659  1.0000
  Hf  Hf65      1.0  0.19336  0.33016  0.07542  1.0000
  Hf  Hf66      1.0  0.18927  0.32548  0.58068  1.0000
  Hf  Hf67      1.0  0.20039  0.82930  0.07000  1.0000
  Hf  Hf68      1.0  0.19246  0.81762  0.58625  1.0000
  Hf  Hf69      1.0  0.44219  0.31909  0.08663  1.0000
  Hf  Hf70      1.0  0.44044  0.32018  0.58603  1.0000
  Hf  Hf71      1.0  0.44418  0.81495  0.08923  1.0000
  Hf  Hf72      1.0  0.44542  0.80972  0.58592  1.0000
  Hf  Hf73      1.0  0.69309  0.31457  0.08416  1.0000
  Hf  Hf74      1.0  0.69199  0.30900  0.58397  1.0000
  Hf  Hf75      1.0  0.69620  0.80917  0.08895  1.0000
  Hf  Hf76      1.0  0.69853  0.82009  0.58442  1.0000
  Hf  Hf77      1.0  0.94182  0.31630  0.08448  1.0000
  Hf  Hf78      1.0  0.94247  0.31569  0.58004  1.0000
  Hf  Hf79      1.0  0.94157  0.81491  0.09239  1.0000
  Hf  Hf80      1.0  0.94844  0.81984  0.57970  1.0000
  Hf  Hf81      1.0  0.09489  0.11247  0.16758  1.0000
  Hf  Hf82      1.0  0.09285  0.11706  0.66588  1.0000
  Hf  Hf83      1.0  0.09084  0.61135  0.15907  1.0000
  Hf  Hf84      1.0  0.09010  0.62166  0.66096  1.0000
  Hf  Hf85      1.0  0.34211  0.11224  0.17115  1.0000
  Hf  Hf86      1.0  0.33778  0.11474  0.66945  1.0000
  Hf  Hf87      1.0  0.34557  0.61469  0.16176  1.0000
  Hf  Hf88      1.0  0.33962  0.61142  0.66321  1.0000
  Hf  Hf89      1.0  0.58957  0.11018  0.17791  1.0000
  Hf  Hf90      1.0  0.59427  0.10859  0.67120  1.0000
  Hf  Hf91      1.0  0.59562  0.61558  0.16035  1.0000
  Hf  Hf92      1.0  0.59260  0.60358  0.66629  1.0000
  Hf  Hf93      1.0  0.83899  0.10758  0.16328  1.0000
  Hf  Hf94      1.0  0.84265  0.11354  0.66063  1.0000
  Hf  Hf95      1.0  0.84273  0.61271  0.16060  1.0000
  Hf  Hf96      1.0  0.84605  0.61487  0.66292  1.0000
  F   F1        1.0  0.07677  0.12743  0.31173  1.0000
  F   F2        1.0  0.07637  0.11540  0.81632  1.0000
  F   F3        1.0  0.08434  0.62487  0.29248  1.0000
  F   F4        1.0  0.07760  0.62655  0.80291  1.0000
  F   F5        1.0  0.33453  0.15009  0.29330  1.0000
  F   F6        1.0  0.32448  0.11749  0.81640  1.0000
  F   F7        1.0  0.33543  0.62756  0.30328  1.0000
  F   F8        1.0  0.32229  0.62835  0.80993  1.0000
  F   F9        1.0  0.57345  0.13036  0.31700  1.0000
  F   F10       1.0  0.58072  0.11188  0.81405  1.0000
  F   F11       1.0  0.58245  0.61964  0.30294  1.0000
  F   F12       1.0  0.58123  0.61655  0.81061  1.0000
  F   F13       1.0  0.83673  0.13464  0.30087  1.0000
  F   F14       1.0  0.82348  0.12183  0.80643  1.0000
  F   F15       1.0  0.82937  0.63508  0.29914  1.0000
  F   F16       1.0  0.83863  0.63399  0.79002  1.0000
  F   F17       1.0  0.17819  0.33112  0.45734  1.0000
  F   F18       1.0  0.17687  0.36372  0.95190  1.0000
  F   F19       1.0  0.18860  0.84348  0.43576  1.0000
  F   F20       1.0  0.18968  0.85354  0.93477  1.0000
  F   F21       1.0  0.43782  0.34769  0.43989  1.0000
  F   F22       1.0  0.43714  0.35290  0.93594  1.0000
  F   F23       1.0  0.43470  0.83648  0.45128  1.0000
  F   F24       1.0  0.44102  0.83194  0.94980  1.0000
  F   F25       1.0  0.68267  0.33182  0.45494  1.0000
  F   F26       1.0  0.68552  0.32026  0.95629  1.0000
  F   F27       1.0  0.68977  0.85820  0.44561  1.0000
  F   F28       1.0  0.69140  0.83665  0.94670  1.0000
  F   F29       1.0  0.93605  0.33344  0.44138  1.0000
  F   F30       1.0  0.93657  0.34538  0.94335  1.0000
  F   F31       1.0  0.94252  0.84655  0.43841  1.0000
  F   F32       1.0  0.93909  0.84133  0.93019  1.0000
  F   F33       1.0  0.17137  0.36819  0.19316  1.0000
  F   F34       1.0  0.16489  0.36929  0.70661  1.0000
  F   F35       1.0  0.16845  0.86723  0.20067  1.0000
  F   F36       1.0  0.17072  0.86795  0.69709  1.0000
  F   F37       1.0  0.42314  0.37598  0.18696  1.0000
  F   F38       1.0  0.41160  0.37874  0.69811  1.0000
  F   F39       1.0  0.42232  0.89011  0.18841  1.0000
  F   F40       1.0  0.42177  0.87550  0.69642  1.0000
  F   F41       1.0  0.66084  0.36479  0.20319  1.0000
  F   F42       1.0  0.67157  0.36175  0.70195  1.0000
  F   F43       1.0  0.67163  0.85572  0.20497  1.0000
  F   F44       1.0  0.66894  0.86596  0.69942  1.0000
  F   F45       1.0  0.91533  0.37007  0.19603  1.0000
  F   F46       1.0  0.91754  0.36412  0.70091  1.0000
  F   F47       1.0  0.91929  0.87179  0.19591  1.0000
  F   F48       1.0  0.92514  0.88317  0.68034  1.0000
  F   F49       1.0  0.06534  0.16488  0.05571  1.0000
  F   F50       1.0  0.06319  0.15566  0.56256  1.0000
  F   F51       1.0  0.06319  0.65204  0.05123  1.0000
  F   F52       1.0  0.06476  0.66377  0.54878  1.0000
  F   F53       1.0  0.31569  0.16589  0.06038  1.0000
  F   F54       1.0  0.31493  0.17108  0.55337  1.0000
  F   F55       1.0  0.32203  0.67095  0.04602  1.0000
  F   F56       1.0  0.31278  0.66443  0.54706  1.0000
  F   F57       1.0  0.56127  0.15340  0.05859  1.0000
  F   F58       1.0  0.56435  0.15965  0.56089  1.0000
  F   F59       1.0  0.56924  0.64755  0.05316  1.0000
  F   F60       1.0  0.56483  0.65872  0.55875  1.0000
  F   F61       1.0  0.80935  0.14625  0.06363  1.0000
  F   F62       1.0  0.80245  0.14453  0.56709  1.0000
  F   F63       1.0  0.81232  0.66547  0.04433  1.0000
  F   F64       1.0  0.81535  0.64649  0.55098  1.0000
  F   F65       1.0  0.20761  0.20011  0.20314  1.0000
  F   F66       1.0  0.20121  0.19950  0.72272  1.0000
  F   F67       1.0  0.19487  0.70745  0.19741  1.0000
  F   F68       1.0  0.20017  0.71269  0.70914  1.0000
  F   F69       1.0  0.45395  0.18940  0.21256  1.0000
  F   F70       1.0  0.44961  0.21225  0.71075  1.0000
  F   F71       1.0  0.45159  0.70800  0.21907  1.0000
  F   F72       1.0  0.45603  0.69545  0.70505  1.0000
  F   F73       1.0  0.70338  0.20070  0.21554  1.0000
  F   F74       1.0  0.70499  0.18688  0.70866  1.0000
  F   F75       1.0  0.70773  0.69186  0.20865  1.0000
  F   F76       1.0  0.70615  0.70473  0.70248  1.0000
  F   F77       1.0  0.94194  0.19656  0.21842  1.0000
  F   F78       1.0  0.95566  0.21350  0.71628  1.0000
  F   F79       1.0  0.95559  0.70033  0.21103  1.0000
  F   F80       1.0  0.95190  0.69756  0.70411  1.0000
  F   F81       1.0  0.14853  0.09400  0.03616  1.0000
  F   F82       1.0  0.15024  0.09641  0.54350  1.0000
  F   F83       1.0  0.14540  0.57758  0.04009  1.0000
  F   F84       1.0  0.14979  0.61282  0.51997  1.0000
  F   F85       1.0  0.39894  0.10181  0.02235  1.0000
  F   F86       1.0  0.40274  0.10513  0.53315  1.0000
  F   F87       1.0  0.39726  0.58302  0.04128  1.0000
  F   F88       1.0  0.40159  0.60399  0.54480  1.0000
  F   F89       1.0  0.64261  0.11113  0.04042  1.0000
  F   F90       1.0  0.64214  0.08506  0.54449  1.0000
  F   F91       1.0  0.65493  0.57053  0.04724  1.0000
  F   F92       1.0  0.64346  0.57376  0.53456  1.0000
  F   F93       1.0  0.89677  0.07403  0.03857  1.0000
  F   F94       1.0  0.90050  0.13150  0.52067  1.0000
  F   F95       1.0  0.90134  0.59522  0.03842  1.0000
  F   F96       1.0  0.90381  0.57292  0.54068  1.0000
  F   F97       1.0  0.14876  0.20381  0.12683  1.0000
  F   F98       1.0  0.14737  0.21032  0.63223  1.0000
  F   F99       1.0  0.15074  0.69122  0.10377  1.0000
  F   F100      1.0  0.14966  0.70695  0.60775  1.0000
  F   F101      1.0  0.41055  0.19776  0.11135  1.0000
  F   F102      1.0  0.39288  0.21052  0.62431  1.0000
  F   F103      1.0  0.40660  0.69484  0.12628  1.0000
  F   F104      1.0  0.39658  0.69988  0.63789  1.0000
  F   F105      1.0  0.64759  0.19509  0.13937  1.0000
  F   F106      1.0  0.65488  0.18364  0.62562  1.0000
  F   F107      1.0  0.65418  0.69680  0.12634  1.0000
  F   F108      1.0  0.65318  0.68655  0.60573  1.0000
  F   F109      1.0  0.89995  0.19528  0.11128  1.0000
  F   F110      1.0  0.89887  0.19603  0.64574  1.0000
  F   F111      1.0  0.89530  0.71297  0.11891  1.0000
  F   F112      1.0  0.90792  0.69180  0.61374  1.0000
  F   F113      1.0  0.09723  0.30137  0.37769  1.0000
  F   F114      1.0  0.09749  0.31661  0.88373  1.0000
  F   F115      1.0  0.10054  0.80603  0.37609  1.0000
  F   F116      1.0  0.09288  0.81012  0.88382  1.0000
  F   F117      1.0  0.35046  0.29468  0.35972  1.0000
  F   F118      1.0  0.34741  0.30544  0.89497  1.0000
  F   F119      1.0  0.34817  0.80269  0.37171  1.0000
  F   F120      1.0  0.34373  0.81219  0.88126  1.0000
  F   F121      1.0  0.59509  0.30265  0.38528  1.0000
  F   F122      1.0  0.60243  0.29254  0.86876  1.0000
  F   F123      1.0  0.59635  0.81002  0.36648  1.0000
  F   F124      1.0  0.59582  0.79535  0.88705  1.0000
  F   F125      1.0  0.84901  0.29799  0.37710  1.0000
  F   F126      1.0  0.84512  0.30048  0.87084  1.0000
  F   F127      1.0  0.85301  0.80573  0.38115  1.0000
  F   F128      1.0  0.85791  0.79167  0.85950  1.0000
  F   F129      1.0  0.06904  0.25356  0.14454  1.0000
  F   F130      1.0  0.06204  0.25586  0.64645  1.0000
  F   F131      1.0  0.06482  0.75505  0.13096  1.0000
  F   F132      1.0  0.06281  0.75889  0.63876  1.0000
  F   F133      1.0  0.32504  0.26564  0.12130  1.0000
  F   F134      1.0  0.29947  0.24387  0.67383  1.0000
  F   F135      1.0  0.32209  0.75331  0.14317  1.0000
  F   F136      1.0  0.31306  0.75106  0.63155  1.0000
  F   F137      1.0  0.57043  0.25039  0.14203  1.0000
  F   F138      1.0  0.56626  0.24551  0.64471  1.0000
  F   F139      1.0  0.56501  0.75400  0.12771  1.0000
  F   F140      1.0  0.56162  0.74063  0.65927  1.0000
  F   F141      1.0  0.80837  0.24434  0.15275  1.0000
  F   F142      1.0  0.81592  0.24408  0.63947  1.0000
  F   F143      1.0  0.81340  0.75047  0.14336  1.0000
  F   F144      1.0  0.81611  0.75525  0.63873  1.0000
  F   F145      1.0  0.11968  0.38828  0.11654  1.0000
  F   F146      1.0  0.12338  0.38854  0.60091  1.0000
  F   F147      1.0  0.12589  0.85954  0.11090  1.0000
  F   F148      1.0  0.12076  0.86720  0.63225  1.0000
  F   F149      1.0  0.37595  0.37808  0.10502  1.0000
  F   F150      1.0  0.37100  0.39347  0.57933  1.0000
  F   F151      1.0  0.37529  0.87256  0.10849  1.0000
  F   F152      1.0  0.37227  0.87986  0.61511  1.0000
  F   F153      1.0  0.62560  0.38141  0.08995  1.0000
  F   F154      1.0  0.62296  0.37397  0.61212  1.0000
  F   F155      1.0  0.62657  0.86989  0.10893  1.0000
  F   F156      1.0  0.62388  0.85950  0.61348  1.0000
  F   F157      1.0  0.87144  0.36914  0.11143  1.0000
  F   F158      1.0  0.87068  0.37206  0.60173  1.0000
  F   F159      1.0  0.87384  0.87541  0.10211  1.0000
  F   F160      1.0  0.87432  0.84692  0.62669  1.0000
  F   F161      1.0  0.19135  0.25631  0.34443  1.0000
  F   F162      1.0  0.18338  0.25708  0.86376  1.0000
  F   F163      1.0  0.19914  0.75441  0.32856  1.0000
  F   F164      1.0  0.18816  0.75134  0.85672  1.0000
  F   F165      1.0  0.43452  0.26111  0.34348  1.0000
  F   F166      1.0  0.43624  0.24950  0.85687  1.0000
  F   F167      1.0  0.43436  0.74555  0.35928  1.0000
  F   F168      1.0  0.43467  0.74136  0.85416  1.0000
  F   F169      1.0  0.67848  0.24774  0.36594  1.0000
  F   F170      1.0  0.69363  0.24210  0.84493  1.0000
  F   F171      1.0  0.68218  0.73594  0.37880  1.0000
  F   F172      1.0  0.68116  0.74246  0.86273  1.0000
  F   F173      1.0  0.94674  0.26027  0.32340  1.0000
  F   F174      1.0  0.92959  0.24569  0.87317  1.0000
  F   F175      1.0  0.93789  0.75432  0.35783  1.0000
  F   F176      1.0  0.94082  0.73943  0.85278  1.0000
  F   F177      1.0  0.12503  0.13028  0.40353  1.0000
  F   F178      1.0  0.11869  0.12479  0.91558  1.0000
  F   F179      1.0  0.12085  0.63255  0.39523  1.0000
  F   F180      1.0  0.12507  0.64453  0.87905  1.0000
  F   F181      1.0  0.37382  0.12730  0.39580  1.0000
  F   F182      1.0  0.37873  0.15713  0.86578  1.0000
  F   F183      1.0  0.37523  0.62012  0.40627  1.0000
  F   F184      1.0  0.37490  0.63126  0.88612  1.0000
  F   F185      1.0  0.62289  0.12841  0.39569  1.0000
  F   F186      1.0  0.62879  0.11844  0.88639  1.0000
  F   F187      1.0  0.63051  0.64211  0.37568  1.0000
  F   F188      1.0  0.62786  0.62436  0.90081  1.0000
  F   F189      1.0  0.87739  0.12486  0.39919  1.0000
  F   F190      1.0  0.87022  0.13540  0.89062  1.0000
  F   F191      1.0  0.87285  0.63770  0.39106  1.0000
  F   F192      1.0  0.87803  0.61648  0.89700  1.0000
  F   F193      1.0  0.00419  0.36395  0.06706  1.0000
  F   F194      1.0  0.00971  0.35872  0.57041  1.0000
  F   F195      1.0  0.00564  0.85486  0.08232  1.0000
  F   F196      1.0  0.00601  0.86588  0.58109  1.0000
  F   F197      1.0  0.25694  0.37125  0.08144  1.0000
  F   F198      1.0  0.24967  0.36265  0.58753  1.0000
  F   F199      1.0  0.26075  0.85824  0.08659  1.0000
  F   F200      1.0  0.25578  0.86707  0.56436  1.0000
  F   F201      1.0  0.51422  0.35384  0.08278  1.0000
  F   F202      1.0  0.50297  0.35143  0.59498  1.0000
  F   F203      1.0  0.50544  0.86168  0.08229  1.0000
  F   F204      1.0  0.51178  0.86698  0.56938  1.0000
  F   F205      1.0  0.75439  0.35489  0.09658  1.0000
  F   F206      1.0  0.75243  0.34493  0.59586  1.0000
  F   F207      1.0  0.75793  0.85711  0.07129  1.0000
  F   F208      1.0  0.76301  0.85538  0.56912  1.0000
  F   F209      1.0  0.06337  0.48678  0.18292  1.0000
  F   F210      1.0  0.07121  0.48844  0.67233  1.0000
  F   F211      1.0  0.07048  0.98212  0.17382  1.0000
  F   F212      1.0  0.06807  0.99460  0.66768  1.0000
  F   F213      1.0  0.31913  0.49664  0.16381  1.0000
  F   F214      1.0  0.31385  0.49230  0.67979  1.0000
  F   F215      1.0  0.32145  0.99019  0.17912  1.0000
  F   F216      1.0  0.31862  0.99061  0.67287  1.0000
  F   F217      1.0  0.56740  0.48301  0.19131  1.0000
  F   F218      1.0  0.56917  0.47784  0.68851  1.0000
  F   F219      1.0  0.57010  0.97234  0.18837  1.0000
  F   F220      1.0  0.57101  0.98080  0.67734  1.0000
  F   F221      1.0  0.81942  0.48730  0.17052  1.0000
  F   F222      1.0  0.82034  0.48170  0.67145  1.0000
  F   F223      1.0  0.81199  0.98484  0.17831  1.0000
  F   F224      1.0  0.83316  0.98577  0.65792  1.0000
  F   F225      1.0  0.23942  0.13372  0.43446  1.0000
  F   F226      1.0  0.24238  0.14033  0.92512  1.0000
  F   F227      1.0  0.24353  0.62745  0.41749  1.0000
  F   F228      1.0  0.23913  0.64854  0.92366  1.0000
  F   F229      1.0  0.49231  0.12537  0.42537  1.0000
  F   F230      1.0  0.49453  0.12273  0.93018  1.0000
  F   F231      1.0  0.49534  0.63130  0.42507  1.0000
  F   F232      1.0  0.49056  0.63948  0.93476  1.0000
  F   F233      1.0  0.73678  0.13471  0.44210  1.0000
  F   F234      1.0  0.73551  0.12914  0.94156  1.0000
  F   F235      1.0  0.73898  0.61760  0.44374  1.0000
  F   F236      1.0  0.74819  0.64319  0.90478  1.0000
  F   F237      1.0  0.99276  0.13985  0.43283  1.0000
  F   F238      1.0  0.99184  0.13952  0.92784  1.0000
  F   F239      1.0  0.99186  0.64319  0.41937  1.0000
  F   F240      1.0  0.99415  0.63022  0.91607  1.0000
  F   F241      1.0  0.18299  0.01559  0.32075  1.0000
  F   F242      1.0  0.18082  0.02046  0.82322  1.0000
  F   F243      1.0  0.17895  0.50712  0.32807  1.0000
  F   F244      1.0  0.18066  0.52502  0.82468  1.0000
  F   F245      1.0  0.43086  0.00806  0.33532  1.0000
  F   F246      1.0  0.43590  0.01328  0.82547  1.0000
  F   F247      1.0  0.43149  0.52048  0.32499  1.0000
  F   F248      1.0  0.42979  0.51196  0.82606  1.0000
  F   F249      1.0  0.68649  0.01687  0.32022  1.0000
  F   F250      1.0  0.67884  0.00589  0.82345  1.0000
  F   F251      1.0  0.67420  0.50581  0.35479  1.0000
  F   F252      1.0  0.68394  0.51037  0.82596  1.0000
  F   F253      1.0  0.93289  0.01967  0.31256  1.0000
  F   F254      1.0  0.92481  0.01309  0.83333  1.0000
  F   F255      1.0  0.93040  0.50748  0.32690  1.0000
  F   F256      1.0  0.92940  0.51084  0.82293  1.0000
  F   F257      1.0  0.00051  0.25594  0.99748  1.0000
  F   F258      1.0  0.99712  0.25340  0.49696  1.0000
  F   F259      1.0  0.00083  0.74319  0.00619  1.0000
  F   F260      1.0  0.00219  0.75049  0.49975  1.0000
  F   F261      1.0  0.24551  0.25666  0.99329  1.0000
  F   F262      1.0  0.24151  0.25391  0.50442  1.0000
  F   F263      1.0  0.24828  0.74690  0.01003  1.0000
  F   F264      1.0  0.24965  0.75217  0.48903  1.0000
  F   F265      1.0  0.50026  0.24901  0.99816  1.0000
  F   F266      1.0  0.49278  0.23213  0.51753  1.0000
  F   F267      1.0  0.50370  0.74591  0.00518  1.0000
  F   F268      1.0  0.50189  0.74037  0.49986  1.0000
  F   F269      1.0  0.75418  0.25696  0.00260  1.0000
  F   F270      1.0  0.74871  0.24841  0.49690  1.0000
  F   F271      1.0  0.75104  0.73617  0.00355  1.0000
  F   F272      1.0  0.74846  0.74047  0.50131  1.0000
  F   F273      1.0  0.12489  0.99743  0.24843  1.0000
  F   F274      1.0  0.12890  0.99899  0.74447  1.0000
  F   F275      1.0  0.12522  0.49457  0.24248  1.0000
  F   F276      1.0  0.13217  0.51861  0.73413  1.0000
  F   F277      1.0  0.37266  0.99829  0.26631  1.0000
  F   F278      1.0  0.37936  0.00084  0.74344  1.0000
  F   F279      1.0  0.37740  0.49544  0.24888  1.0000
  F   F280      1.0  0.36242  0.49569  0.76085  1.0000
  F   F281      1.0  0.62596  0.00489  0.25567  1.0000
  F   F282      1.0  0.62549  0.98472  0.75760  1.0000
  F   F283      1.0  0.63179  0.50146  0.25125  1.0000
  F   F284      1.0  0.63649  0.49789  0.72653  1.0000
  F   F285      1.0  0.87344  0.99899  0.24926  1.0000
  F   F286      1.0  0.87982  0.00158  0.74090  1.0000
  F   F287      1.0  0.87553  0.50180  0.24850  1.0000
  F   F288      1.0  0.87223  0.49766  0.75397  1.0000
  F   F289      1.0  0.03839  0.03150  0.03518  1.0000
  F   F290      1.0  0.04662  0.02467  0.51634  1.0000
  F   F291      1.0  0.04973  0.52741  0.01861  1.0000
  F   F292      1.0  0.04185  0.54116  0.51630  1.0000
  F   F293      1.0  0.30556  0.03577  0.01019  1.0000
  F   F294      1.0  0.29089  0.03908  0.52068  1.0000
  F   F295      1.0  0.29305  0.54096  0.02307  1.0000
  F   F296      1.0  0.29091  0.52824  0.51870  1.0000
  F   F297      1.0  0.54449  0.01844  0.02867  1.0000
  F   F298      1.0  0.54049  0.03537  0.52526  1.0000
  F   F299      1.0  0.54348  0.52401  0.02313  1.0000
  F   F300      1.0  0.55565  0.52708  0.52336  1.0000
  F   F301      1.0  0.78962  0.02137  0.02011  1.0000
  F   F302      1.0  0.78839  0.02859  0.53120  1.0000
  F   F303      1.0  0.79644  0.53542  0.01998  1.0000
  F   F304      1.0  0.79254  0.52047  0.50847  1.0000
  F   F305      1.0  0.23589  0.42896  0.21951  1.0000
  F   F306      1.0  0.23255  0.42499  0.72910  1.0000
  F   F307      1.0  0.23716  0.94061  0.20698  1.0000
  F   F308      1.0  0.23507  0.91426  0.72753  1.0000
  F   F309      1.0  0.48320  0.42620  0.23813  1.0000
  F   F310      1.0  0.48207  0.41575  0.73588  1.0000
  F   F311      1.0  0.48510  0.90756  0.23251  1.0000
  F   F312      1.0  0.48659  0.91341  0.72808  1.0000
  F   F313      1.0  0.72760  0.42805  0.22507  1.0000
  F   F314      1.0  0.73556  0.42182  0.72306  1.0000
  F   F315      1.0  0.73724  0.88486  0.22683  1.0000
  F   F316      1.0  0.73226  0.89327  0.73339  1.0000
  F   F317      1.0  0.97943  0.42497  0.22345  1.0000
  F   F318      1.0  0.98631  0.40518  0.72592  1.0000
  F   F319      1.0  0.98484  0.90948  0.23021  1.0000
  F   F320      1.0  0.98646  0.93490  0.71151  1.0000
  F   F321      1.0  0.20690  0.46985  0.46308  1.0000
  F   F322      1.0  0.21320  0.47271  0.97107  1.0000
  F   F323      1.0  0.20447  0.97200  0.46950  1.0000
  F   F324      1.0  0.21319  0.97458  0.97306  1.0000
  F   F325      1.0  0.45977  0.46714  0.47954  1.0000
  F   F326      1.0  0.46344  0.46624  0.97688  1.0000
  F   F327      1.0  0.45233  0.96442  0.48829  1.0000
  F   F328      1.0  0.45908  0.96726  0.97701  1.0000
  F   F329      1.0  0.71700  0.45487  0.47666  1.0000
  F   F330      1.0  0.71028  0.46376  0.98244  1.0000
  F   F331      1.0  0.70494  0.97208  0.48732  1.0000
  F   F332      1.0  0.70167  0.96753  0.97857  1.0000
  F   F333      1.0  0.96275  0.46519  0.46756  1.0000
  F   F334      1.0  0.96300  0.46721  0.97192  1.0000
  F   F335      1.0  0.95168  0.97304  0.47690  1.0000
  F   F336      1.0  0.96208  0.95805  0.96510  1.0000
  F   F337      1.0  0.01860  0.08982  0.27501  1.0000
  F   F338      1.0  0.00889  0.09474  0.77384  1.0000
  F   F339      1.0  0.01361  0.59940  0.27336  1.0000
  F   F340      1.0  0.01511  0.58626  0.75825  1.0000
  F   F341      1.0  0.26936  0.08454  0.28931  1.0000
  F   F342      1.0  0.26430  0.07647  0.77015  1.0000
  F   F343      1.0  0.26343  0.60882  0.25231  1.0000
  F   F344      1.0  0.26090  0.59407  0.76914  1.0000
  F   F345      1.0  0.51692  0.09242  0.26527  1.0000
  F   F346      1.0  0.51691  0.10110  0.76791  1.0000
  F   F347      1.0  0.51748  0.59687  0.27006  1.0000
  F   F348      1.0  0.51575  0.59476  0.77460  1.0000
  F   F349      1.0  0.76390  0.07665  0.30080  1.0000
  F   F350      1.0  0.76766  0.07543  0.76246  1.0000
  F   F351      1.0  0.76940  0.58010  0.27949  1.0000
  F   F352      1.0  0.77511  0.58050  0.76141  1.0000
  F   F353      1.0  0.10033  0.41584  0.45336  1.0000
  F   F354      1.0  0.09852  0.42006  0.95517  1.0000
  F   F355      1.0  0.10602  0.91301  0.46380  1.0000
  F   F356      1.0  0.10179  0.92534  0.95314  1.0000
  F   F357      1.0  0.34135  0.38913  0.45520  1.0000
  F   F358      1.0  0.35246  0.42200  0.96035  1.0000
  F   F359      1.0  0.34960  0.90137  0.46618  1.0000
  F   F360      1.0  0.35442  0.91671  0.94790  1.0000
  F   F361      1.0  0.59836  0.40783  0.46597  1.0000
  F   F362      1.0  0.60118  0.40367  0.94524  1.0000
  F   F363      1.0  0.60442  0.90395  0.46417  1.0000
  F   F364      1.0  0.60702  0.90727  0.95883  1.0000
  F   F365      1.0  0.84900  0.39971  0.45419  1.0000
  F   F366      1.0  0.84713  0.39827  0.96526  1.0000
  F   F367      1.0  0.85150  0.91926  0.46881  1.0000
  F   F368      1.0  0.85442  0.90365  0.96001  1.0000
  F   F369      1.0  0.04444  0.29672  0.29388  1.0000
  F   F370      1.0  0.05142  0.29841  0.79479  1.0000
  F   F371      1.0  0.04478  0.79752  0.28710  1.0000
  F   F372      1.0  0.03763  0.80182  0.79785  1.0000
  F   F373      1.0  0.28729  0.29970  0.29837  1.0000
  F   F374      1.0  0.30278  0.31098  0.78011  1.0000
  F   F375      1.0  0.29431  0.80259  0.28667  1.0000
  F   F376      1.0  0.29377  0.79898  0.78535  1.0000
  F   F377      1.0  0.54797  0.30020  0.28947  1.0000
  F   F378      1.0  0.54568  0.29245  0.78348  1.0000
  F   F379      1.0  0.54940  0.78746  0.28181  1.0000
  F   F380      1.0  0.54668  0.79200  0.79724  1.0000
  F   F381      1.0  0.79794  0.30103  0.28608  1.0000
  F   F382      1.0  0.79379  0.28555  0.78752  1.0000
  F   F383      1.0  0.80074  0.80021  0.29238  1.0000
  F   F384      1.0  0.79668  0.80345  0.78816  1.0000
