data_image0
_chemical_formula_structural       Hf96F384
_chemical_formula_sum              "Hf96 F384"
_cell_length_a       31.0237
_cell_length_b       15.5114
_cell_length_c       15.5037
_cell_angle_alpha    63.342
_cell_angle_beta     63.342
_cell_angle_gamma    80.1625

_space_group_name_H-M_alt    "P 1"
_space_group_IT_number       1

loop_
  _space_group_symop_operation_xyz
  'x, y, z'

loop_
  _atom_site_type_symbol
  _atom_site_label
  _atom_site_symmetry_multiplicity
  _atom_site_fract_x
  _atom_site_fract_y
  _atom_site_fract_z
  _atom_site_occupancy
  Hf  Hf1       1.0  0.19183  0.10379  0.38316  1.0000
  Hf  Hf2       1.0  0.19541  0.09819  0.88898  1.0000
  Hf  Hf3       1.0  0.19525  0.60605  0.37829  1.0000
  Hf  Hf4       1.0  0.19876  0.59663  0.87697  1.0000
  Hf  Hf5       1.0  0.45055  0.11172  0.36311  1.0000
  Hf  Hf6       1.0  0.44299  0.10521  0.88136  1.0000
  Hf  Hf7       1.0  0.44417  0.60734  0.37952  1.0000
  Hf  Hf8       1.0  0.44897  0.61112  0.87239  1.0000
  Hf  Hf9       1.0  0.69761  0.11524  0.36178  1.0000
  Hf  Hf10      1.0  0.69271  0.11089  0.87236  1.0000
  Hf  Hf11      1.0  0.69485  0.60005  0.38647  1.0000
  Hf  Hf12      1.0  0.69637  0.60911  0.86986  1.0000
  Hf  Hf13      1.0  0.94975  0.10940  0.36593  1.0000
  Hf  Hf14      1.0  0.94401  0.10921  0.87845  1.0000
  Hf  Hf15      1.0  0.94820  0.61076  0.37498  1.0000
  Hf  Hf16      1.0  0.94680  0.61158  0.86845  1.0000
  Hf  Hf17      1.0  0.05277  0.38994  0.13772  1.0000
  Hf  Hf18      1.0  0.05689  0.38932  0.62671  1.0000
  Hf  Hf19      1.0  0.04965  0.89154  0.12687  1.0000
  Hf  Hf20      1.0  0.05609  0.88547  0.62704  1.0000
  Hf  Hf21      1.0  0.30421  0.39246  0.12696  1.0000
  Hf  Hf22      1.0  0.30498  0.39772  0.61919  1.0000
  Hf  Hf23      1.0  0.30121  0.89406  0.13302  1.0000
  Hf  Hf24      1.0  0.30177  0.88974  0.62857  1.0000
  Hf  Hf25      1.0  0.55440  0.39559  0.11960  1.0000
  Hf  Hf26      1.0  0.55129  0.39634  0.62711  1.0000
  Hf  Hf27      1.0  0.55684  0.89913  0.12283  1.0000
  Hf  Hf28      1.0  0.55102  0.89979  0.62175  1.0000
  Hf  Hf29      1.0  0.80332  0.38701  0.13108  1.0000
  Hf  Hf30      1.0  0.80384  0.39686  0.62001  1.0000
  Hf  Hf31      1.0  0.80760  0.89653  0.12001  1.0000
  Hf  Hf32      1.0  0.80444  0.90137  0.61441  1.0000
  Hf  Hf33      1.0  0.05593  0.17439  0.42195  1.0000
  Hf  Hf34      1.0  0.05713  0.17522  0.91401  1.0000
  Hf  Hf35      1.0  0.05679  0.67862  0.41628  1.0000
  Hf  Hf36      1.0  0.05596  0.67512  0.91957  1.0000
  Hf  Hf37      1.0  0.30407  0.18043  0.41748  1.0000
  Hf  Hf38      1.0  0.30389  0.17919  0.92574  1.0000
  Hf  Hf39      1.0  0.30384  0.67525  0.42507  1.0000
  Hf  Hf40      1.0  0.30452  0.67618  0.92322  1.0000
  Hf  Hf41      1.0  0.55334  0.18279  0.41452  1.0000
  Hf  Hf42      1.0  0.55435  0.18487  0.91593  1.0000
  Hf  Hf43      1.0  0.55428  0.69247  0.41858  1.0000
  Hf  Hf44      1.0  0.55947  0.68654  0.91655  1.0000
  Hf  Hf45      1.0  0.81087  0.18453  0.40705  1.0000
  Hf  Hf46      1.0  0.80688  0.18698  0.90895  1.0000
  Hf  Hf47      1.0  0.80783  0.68689  0.41505  1.0000
  Hf  Hf48      1.0  0.80557  0.67934  0.91773  1.0000
  Hf  Hf49      1.0  0.15929  0.38784  0.33834  1.0000
  Hf  Hf50      1.0  0.15819  0.37929  0.83685  1.0000
  Hf  Hf51      1.0  0.15831  0.88789  0.33634  1.0000
  Hf  Hf52      1.0  0.15592  0.88280  0.84014  1.0000
  Hf  Hf53      1.0  0.40751  0.38602  0.33377  1.0000
  Hf  Hf54      1.0  0.40753  0.38742  0.83371  1.0000
  Hf  Hf55      1.0  0.40647  0.88713  0.33688  1.0000
  Hf  Hf56      1.0  0.40668  0.88573  0.84240  1.0000
  Hf  Hf57      1.0  0.66004  0.39798  0.32449  1.0000
  Hf  Hf58      1.0  0.65475  0.39563  0.83035  1.0000
  Hf  Hf59      1.0  0.66095  0.88564  0.32485  1.0000
  Hf  Hf60      1.0  0.65888  0.89107  0.83138  1.0000
  Hf  Hf61      1.0  0.91016  0.39066  0.32655  1.0000
  Hf  Hf62      1.0  0.90722  0.38738  0.83700  1.0000
  Hf  Hf63      1.0  0.91167  0.88935  0.32998  1.0000
  Hf  Hf64      1.0  0.90622  0.88956  0.83472  1.0000
  Hf  Hf65      1.0  0.19541  0.30417  0.08837  1.0000
  Hf  Hf66      1.0  0.19760  0.31253  0.58490  1.0000
  Hf  Hf67      1.0  0.19443  0.81333  0.08503  1.0000
  Hf  Hf68      1.0  0.19516  0.81093  0.58768  1.0000
  Hf  Hf69      1.0  0.44124  0.31782  0.08411  1.0000
  Hf  Hf70      1.0  0.43928  0.31940  0.58915  1.0000
  Hf  Hf71      1.0  0.44356  0.81509  0.08834  1.0000
  Hf  Hf72      1.0  0.44279  0.82307  0.58084  1.0000
  Hf  Hf73      1.0  0.69764  0.32095  0.06876  1.0000
  Hf  Hf74      1.0  0.69568  0.31716  0.57484  1.0000
  Hf  Hf75      1.0  0.69633  0.81873  0.08154  1.0000
  Hf  Hf76      1.0  0.69306  0.81909  0.58410  1.0000
  Hf  Hf77      1.0  0.94889  0.31582  0.07664  1.0000
  Hf  Hf78      1.0  0.94368  0.32452  0.58021  1.0000
  Hf  Hf79      1.0  0.94537  0.81330  0.08422  1.0000
  Hf  Hf80      1.0  0.94516  0.81564  0.58508  1.0000
  Hf  Hf81      1.0  0.08976  0.10644  0.17352  1.0000
  Hf  Hf82      1.0  0.09067  0.10521  0.66823  1.0000
  Hf  Hf83      1.0  0.09246  0.61184  0.16546  1.0000
  Hf  Hf84      1.0  0.08812  0.60959  0.67135  1.0000
  Hf  Hf85      1.0  0.33876  0.11320  0.17565  1.0000
  Hf  Hf86      1.0  0.34207  0.11139  0.66895  1.0000
  Hf  Hf87      1.0  0.34143  0.61306  0.16622  1.0000
  Hf  Hf88      1.0  0.34154  0.61196  0.66888  1.0000
  Hf  Hf89      1.0  0.59373  0.11487  0.16354  1.0000
  Hf  Hf90      1.0  0.58940  0.11470  0.66347  1.0000
  Hf  Hf91      1.0  0.58588  0.61803  0.16931  1.0000
  Hf  Hf92      1.0  0.59083  0.61447  0.66731  1.0000
  Hf  Hf93      1.0  0.84247  0.10952  0.16314  1.0000
  Hf  Hf94      1.0  0.83959  0.11668  0.66420  1.0000
  Hf  Hf95      1.0  0.84311  0.61483  0.16195  1.0000
  Hf  Hf96      1.0  0.84339  0.61295  0.66534  1.0000
  F   F1        1.0  0.07578  0.13470  0.30498  1.0000
  F   F2        1.0  0.08117  0.11814  0.80429  1.0000
  F   F3        1.0  0.08035  0.62115  0.30590  1.0000
  F   F4        1.0  0.06952  0.60802  0.81911  1.0000
  F   F5        1.0  0.32537  0.12339  0.30773  1.0000
  F   F6        1.0  0.33258  0.13790  0.80881  1.0000
  F   F7        1.0  0.32631  0.62203  0.30836  1.0000
  F   F8        1.0  0.33403  0.63292  0.80113  1.0000
  F   F9        1.0  0.57858  0.12386  0.30237  1.0000
  F   F10       1.0  0.57127  0.13502  0.80752  1.0000
  F   F11       1.0  0.57604  0.64937  0.29790  1.0000
  F   F12       1.0  0.58254  0.62893  0.79803  1.0000
  F   F13       1.0  0.83102  0.12917  0.29079  1.0000
  F   F14       1.0  0.82695  0.10993  0.81989  1.0000
  F   F15       1.0  0.83174  0.62036  0.29939  1.0000
  F   F16       1.0  0.82939  0.61584  0.80490  1.0000
  F   F17       1.0  0.18345  0.34195  0.44816  1.0000
  F   F18       1.0  0.19180  0.34436  0.93484  1.0000
  F   F19       1.0  0.18654  0.84496  0.45149  1.0000
  F   F20       1.0  0.18580  0.83938  0.94285  1.0000
  F   F21       1.0  0.42378  0.33396  0.45998  1.0000
  F   F22       1.0  0.42409  0.32823  0.97113  1.0000
  F   F23       1.0  0.43984  0.84603  0.43719  1.0000
  F   F24       1.0  0.43689  0.83851  0.95457  1.0000
  F   F25       1.0  0.67983  0.33643  0.44945  1.0000
  F   F26       1.0  0.67994  0.33512  0.93859  1.0000
  F   F27       1.0  0.68523  0.84841  0.44405  1.0000
  F   F28       1.0  0.69102  0.85006  0.93925  1.0000
  F   F29       1.0  0.93503  0.33521  0.44255  1.0000
  F   F30       1.0  0.92927  0.34354  0.95311  1.0000
  F   F31       1.0  0.93380  0.82558  0.45866  1.0000
  F   F32       1.0  0.93243  0.83040  0.95028  1.0000
  F   F33       1.0  0.16591  0.35533  0.20580  1.0000
  F   F34       1.0  0.16923  0.36335  0.70346  1.0000
  F   F35       1.0  0.17309  0.88198  0.19472  1.0000
  F   F36       1.0  0.16493  0.86207  0.69978  1.0000
  F   F37       1.0  0.42018  0.36614  0.20254  1.0000
  F   F38       1.0  0.42125  0.37786  0.69256  1.0000
  F   F39       1.0  0.41781  0.86644  0.19792  1.0000
  F   F40       1.0  0.41688  0.88405  0.69471  1.0000
  F   F41       1.0  0.67450  0.38277  0.18255  1.0000
  F   F42       1.0  0.67255  0.36940  0.68960  1.0000
  F   F43       1.0  0.68371  0.88802  0.17802  1.0000
  F   F44       1.0  0.67323  0.86463  0.70082  1.0000
  F   F45       1.0  0.92563  0.37743  0.18090  1.0000
  F   F46       1.0  0.92236  0.37815  0.68393  1.0000
  F   F47       1.0  0.92022  0.86064  0.20207  1.0000
  F   F48       1.0  0.91810  0.87355  0.70224  1.0000
  F   F49       1.0  0.05866  0.14278  0.05439  1.0000
  F   F50       1.0  0.06036  0.14722  0.56562  1.0000
  F   F51       1.0  0.05663  0.65147  0.05896  1.0000
  F   F52       1.0  0.06500  0.65613  0.55054  1.0000
  F   F53       1.0  0.31007  0.16236  0.06533  1.0000
  F   F54       1.0  0.31584  0.15941  0.54726  1.0000
  F   F55       1.0  0.31094  0.65711  0.05650  1.0000
  F   F56       1.0  0.31627  0.66138  0.54857  1.0000
  F   F57       1.0  0.55988  0.15899  0.06055  1.0000
  F   F58       1.0  0.56031  0.16660  0.55038  1.0000
  F   F59       1.0  0.56294  0.66477  0.05501  1.0000
  F   F60       1.0  0.57176  0.67512  0.54639  1.0000
  F   F61       1.0  0.81650  0.16587  0.04222  1.0000
  F   F62       1.0  0.81477  0.16814  0.53597  1.0000
  F   F63       1.0  0.81738  0.65812  0.04832  1.0000
  F   F64       1.0  0.82397  0.67350  0.54352  1.0000
  F   F65       1.0  0.20548  0.18718  0.20617  1.0000
  F   F66       1.0  0.20538  0.19839  0.71355  1.0000
  F   F67       1.0  0.19561  0.70969  0.21235  1.0000
  F   F68       1.0  0.20994  0.70308  0.70285  1.0000
  F   F69       1.0  0.46266  0.20363  0.20584  1.0000
  F   F70       1.0  0.44325  0.20573  0.72744  1.0000
  F   F71       1.0  0.45463  0.69831  0.22124  1.0000
  F   F72       1.0  0.44261  0.71072  0.71866  1.0000
  F   F73       1.0  0.70214  0.20208  0.20430  1.0000
  F   F74       1.0  0.71330  0.21114  0.68302  1.0000
  F   F75       1.0  0.69304  0.70541  0.21837  1.0000
  F   F76       1.0  0.70660  0.70086  0.70519  1.0000
  F   F77       1.0  0.96141  0.19372  0.20667  1.0000
  F   F78       1.0  0.94686  0.20932  0.72084  1.0000
  F   F79       1.0  0.95976  0.69840  0.20202  1.0000
  F   F80       1.0  0.95720  0.71149  0.69781  1.0000
  F   F81       1.0  0.15115  0.06803  0.04801  1.0000
  F   F82       1.0  0.14564  0.09356  0.53812  1.0000
  F   F83       1.0  0.14238  0.58990  0.02963  1.0000
  F   F84       1.0  0.14880  0.59564  0.53741  1.0000
  F   F85       1.0  0.39573  0.11353  0.04225  1.0000
  F   F86       1.0  0.39547  0.09432  0.54101  1.0000
  F   F87       1.0  0.39765  0.59470  0.04401  1.0000
  F   F88       1.0  0.39865  0.58369  0.54003  1.0000
  F   F89       1.0  0.65372  0.10223  0.02569  1.0000
  F   F90       1.0  0.64752  0.10943  0.53409  1.0000
  F   F91       1.0  0.64962  0.57807  0.01909  1.0000
  F   F92       1.0  0.65035  0.58122  0.53901  1.0000
  F   F93       1.0  0.90302  0.09026  0.03858  1.0000
  F   F94       1.0  0.89609  0.10662  0.52714  1.0000
  F   F95       1.0  0.89963  0.56827  0.02076  1.0000
  F   F96       1.0  0.90361  0.58453  0.52719  1.0000
  F   F97       1.0  0.15285  0.18839  0.12832  1.0000
  F   F98       1.0  0.15496  0.20326  0.62765  1.0000
  F   F99       1.0  0.15396  0.68966  0.12450  1.0000
  F   F100      1.0  0.15006  0.69149  0.64116  1.0000
  F   F101      1.0  0.40051  0.19688  0.14511  1.0000
  F   F102      1.0  0.40507  0.18632  0.62577  1.0000
  F   F103      1.0  0.40000  0.70161  0.13844  1.0000
  F   F104      1.0  0.40396  0.69951  0.61519  1.0000
  F   F105      1.0  0.64368  0.21105  0.11925  1.0000
  F   F106      1.0  0.64623  0.20640  0.64217  1.0000
  F   F107      1.0  0.64298  0.70308  0.08747  1.0000
  F   F108      1.0  0.64934  0.70505  0.62671  1.0000
  F   F109      1.0  0.90587  0.19401  0.12111  1.0000
  F   F110      1.0  0.89982  0.19873  0.63045  1.0000
  F   F111      1.0  0.90518  0.68380  0.12334  1.0000
  F   F112      1.0  0.90254  0.68912  0.62687  1.0000
  F   F113      1.0  0.10287  0.29805  0.38891  1.0000
  F   F114      1.0  0.09637  0.29299  0.88018  1.0000
  F   F115      1.0  0.10279  0.80687  0.36331  1.0000
  F   F116      1.0  0.09457  0.81182  0.88944  1.0000
  F   F117      1.0  0.34757  0.31265  0.37895  1.0000
  F   F118      1.0  0.34857  0.29375  0.88718  1.0000
  F   F119      1.0  0.34411  0.80341  0.36245  1.0000
  F   F120      1.0  0.35274  0.80174  0.88146  1.0000
  F   F121      1.0  0.59794  0.29825  0.37031  1.0000
  F   F122      1.0  0.60246  0.29849  0.86985  1.0000
  F   F123      1.0  0.60540  0.80278  0.35275  1.0000
  F   F124      1.0  0.60016  0.81143  0.88942  1.0000
  F   F125      1.0  0.85190  0.30288  0.36524  1.0000
  F   F126      1.0  0.84560  0.30658  0.86855  1.0000
  F   F127      1.0  0.85129  0.81653  0.37363  1.0000
  F   F128      1.0  0.84832  0.80795  0.89108  1.0000
  F   F129      1.0  0.06624  0.24241  0.13901  1.0000
  F   F130      1.0  0.07569  0.25034  0.63048  1.0000
  F   F131      1.0  0.06382  0.75278  0.14225  1.0000
  F   F132      1.0  0.06289  0.74170  0.64318  1.0000
  F   F133      1.0  0.31886  0.25820  0.14048  1.0000
  F   F134      1.0  0.32037  0.24815  0.63065  1.0000
  F   F135      1.0  0.32271  0.75547  0.13018  1.0000
  F   F136      1.0  0.31192  0.74367  0.65264  1.0000
  F   F137      1.0  0.55922  0.25191  0.13955  1.0000
  F   F138      1.0  0.56954  0.25616  0.62820  1.0000
  F   F139      1.0  0.55601  0.76008  0.14320  1.0000
  F   F140      1.0  0.55824  0.75781  0.64398  1.0000
  F   F141      1.0  0.82177  0.25609  0.13520  1.0000
  F   F142      1.0  0.82218  0.25463  0.62760  1.0000
  F   F143      1.0  0.81680  0.75536  0.13410  1.0000
  F   F144      1.0  0.81781  0.75899  0.64286  1.0000
  F   F145      1.0  0.12752  0.36746  0.10079  1.0000
  F   F146      1.0  0.12662  0.37155  0.60734  1.0000
  F   F147      1.0  0.12340  0.86140  0.10918  1.0000
  F   F148      1.0  0.12354  0.85990  0.62055  1.0000
  F   F149      1.0  0.37501  0.38987  0.09993  1.0000
  F   F150      1.0  0.37366  0.36410  0.61855  1.0000
  F   F151      1.0  0.37073  0.88072  0.11019  1.0000
  F   F152      1.0  0.37160  0.87334  0.61076  1.0000
  F   F153      1.0  0.62827  0.38545  0.08340  1.0000
  F   F154      1.0  0.62497  0.38844  0.59836  1.0000
  F   F155      1.0  0.62232  0.84600  0.14343  1.0000
  F   F156      1.0  0.62196  0.87176  0.61874  1.0000
  F   F157      1.0  0.87325  0.37085  0.11717  1.0000
  F   F158      1.0  0.87352  0.36855  0.60206  1.0000
  F   F159      1.0  0.87662  0.86657  0.11458  1.0000
  F   F160      1.0  0.87795  0.87676  0.60247  1.0000
  F   F161      1.0  0.19558  0.24734  0.34615  1.0000
  F   F162      1.0  0.17799  0.23259  0.87348  1.0000
  F   F163      1.0  0.18718  0.75245  0.35114  1.0000
  F   F164      1.0  0.18647  0.74911  0.85346  1.0000
  F   F165      1.0  0.43650  0.25091  0.36032  1.0000
  F   F166      1.0  0.44174  0.25353  0.85305  1.0000
  F   F167      1.0  0.42585  0.74817  0.37832  1.0000
  F   F168      1.0  0.43716  0.75469  0.85155  1.0000
  F   F169      1.0  0.68239  0.25779  0.35054  1.0000
  F   F170      1.0  0.68976  0.25198  0.83144  1.0000
  F   F171      1.0  0.68312  0.74320  0.36738  1.0000
  F   F172      1.0  0.69219  0.74719  0.85613  1.0000
  F   F173      1.0  0.93547  0.25181  0.34834  1.0000
  F   F174      1.0  0.92840  0.24135  0.87519  1.0000
  F   F175      1.0  0.93672  0.75008  0.35284  1.0000
  F   F176      1.0  0.93455  0.74779  0.84908  1.0000
  F   F177      1.0  0.12614  0.15751  0.36799  1.0000
  F   F178      1.0  0.12581  0.11261  0.90522  1.0000
  F   F179      1.0  0.12662  0.63904  0.38711  1.0000
  F   F180      1.0  0.12772  0.65227  0.87797  1.0000
  F   F181      1.0  0.37877  0.14875  0.37275  1.0000
  F   F182      1.0  0.37104  0.10829  0.91897  1.0000
  F   F183      1.0  0.37177  0.62059  0.39580  1.0000
  F   F184      1.0  0.37889  0.62691  0.89230  1.0000
  F   F185      1.0  0.62174  0.11638  0.40790  1.0000
  F   F186      1.0  0.62255  0.12460  0.88894  1.0000
  F   F187      1.0  0.62381  0.62889  0.39275  1.0000
  F   F188      1.0  0.62925  0.65091  0.86373  1.0000
  F   F189      1.0  0.87977  0.12822  0.37781  1.0000
  F   F190      1.0  0.87494  0.12178  0.89943  1.0000
  F   F191      1.0  0.87729  0.65773  0.37068  1.0000
  F   F192      1.0  0.88104  0.65536  0.85577  1.0000
  F   F193      1.0  0.01090  0.35978  0.08457  1.0000
  F   F194      1.0  0.01447  0.34360  0.58747  1.0000
  F   F195      1.0  0.00676  0.85578  0.07757  1.0000
  F   F196      1.0  0.00956  0.87189  0.56852  1.0000
  F   F197      1.0  0.25370  0.34842  0.09124  1.0000
  F   F198      1.0  0.25995  0.35838  0.57329  1.0000
  F   F199      1.0  0.25882  0.85526  0.09024  1.0000
  F   F200      1.0  0.25935  0.87869  0.56263  1.0000
  F   F201      1.0  0.51185  0.37427  0.06496  1.0000
  F   F202      1.0  0.50789  0.36967  0.58272  1.0000
  F   F203      1.0  0.50641  0.87109  0.05902  1.0000
  F   F204      1.0  0.50447  0.86444  0.57074  1.0000
  F   F205      1.0  0.75694  0.35028  0.08215  1.0000
  F   F206      1.0  0.76050  0.36772  0.57136  1.0000
  F   F207      1.0  0.75891  0.85418  0.06581  1.0000
  F   F208      1.0  0.75871  0.87405  0.56734  1.0000
  F   F209      1.0  0.06817  0.48216  0.18981  1.0000
  F   F210      1.0  0.06860  0.47532  0.69226  1.0000
  F   F211      1.0  0.07109  0.97187  0.17262  1.0000
  F   F212      1.0  0.07209  0.97516  0.68960  1.0000
  F   F213      1.0  0.31917  0.49029  0.18505  1.0000
  F   F214      1.0  0.32595  0.48141  0.67125  1.0000
  F   F215      1.0  0.31522  0.98621  0.18976  1.0000
  F   F216      1.0  0.31187  0.97905  0.68597  1.0000
  F   F217      1.0  0.56710  0.49091  0.18279  1.0000
  F   F218      1.0  0.56258  0.50121  0.67425  1.0000
  F   F219      1.0  0.57554  0.99832  0.15636  1.0000
  F   F220      1.0  0.56669  0.99333  0.66921  1.0000
  F   F221      1.0  0.81939  0.48437  0.19126  1.0000
  F   F222      1.0  0.82387  0.48816  0.66876  1.0000
  F   F223      1.0  0.82752  0.98064  0.16915  1.0000
  F   F224      1.0  0.81553  0.99160  0.67757  1.0000
  F   F225      1.0  0.24193  0.12991  0.44573  1.0000
  F   F226      1.0  0.24232  0.12658  0.92637  1.0000
  F   F227      1.0  0.23900  0.63780  0.43133  1.0000
  F   F228      1.0  0.24150  0.62107  0.93087  1.0000
  F   F229      1.0  0.49078  0.14104  0.42501  1.0000
  F   F230      1.0  0.48997  0.14793  0.92468  1.0000
  F   F231      1.0  0.48724  0.64574  0.43070  1.0000
  F   F232      1.0  0.49498  0.63696  0.92074  1.0000
  F   F233      1.0  0.74307  0.13921  0.41495  1.0000
  F   F234      1.0  0.74656  0.13484  0.91710  1.0000
  F   F235      1.0  0.74270  0.64095  0.42298  1.0000
  F   F236      1.0  0.74012  0.60724  0.94893  1.0000
  F   F237      1.0  0.99156  0.13240  0.43839  1.0000
  F   F238      1.0  0.99408  0.14154  0.91850  1.0000
  F   F239      1.0  0.99277  0.63812  0.41990  1.0000
  F   F240      1.0  0.99002  0.63551  0.93702  1.0000
  F   F241      1.0  0.17138  0.00990  0.34737  1.0000
  F   F242      1.0  0.18234  0.00060  0.83831  1.0000
  F   F243      1.0  0.18408  0.51652  0.32182  1.0000
  F   F244      1.0  0.18551  0.52282  0.82294  1.0000
  F   F245      1.0  0.43066  0.01578  0.32040  1.0000
  F   F246      1.0  0.43506  0.01704  0.82385  1.0000
  F   F247      1.0  0.43355  0.50973  0.32804  1.0000
  F   F248      1.0  0.43689  0.51214  0.82074  1.0000
  F   F249      1.0  0.68195  0.01226  0.31305  1.0000
  F   F250      1.0  0.67601  0.01939  0.81177  1.0000
  F   F251      1.0  0.68196  0.51290  0.32984  1.0000
  F   F252      1.0  0.68028  0.52346  0.81940  1.0000
  F   F253      1.0  0.93068  0.01312  0.32701  1.0000
  F   F254      1.0  0.93000  0.01515  0.82832  1.0000
  F   F255      1.0  0.92672  0.52159  0.32912  1.0000
  F   F256      1.0  0.92835  0.51984  0.82302  1.0000
  F   F257      1.0  0.00320  0.25006  0.98795  1.0000
  F   F258      1.0  0.00302  0.26180  0.49413  1.0000
  F   F259      1.0  0.00121  0.76683  0.98833  1.0000
  F   F260      1.0  0.99902  0.74762  0.50407  1.0000
  F   F261      1.0  0.24734  0.24532  0.99857  1.0000
  F   F262      1.0  0.25151  0.25718  0.49367  1.0000
  F   F263      1.0  0.24677  0.73344  0.00574  1.0000
  F   F264      1.0  0.24921  0.74819  0.50546  1.0000
  F   F265      1.0  0.50098  0.26331  0.98631  1.0000
  F   F266      1.0  0.50342  0.27952  0.47993  1.0000
  F   F267      1.0  0.50164  0.73983  0.00138  1.0000
  F   F268      1.0  0.49713  0.73878  0.52123  1.0000
  F   F269      1.0  0.74829  0.24431  0.99775  1.0000
  F   F270      1.0  0.75325  0.25462  0.48417  1.0000
  F   F271      1.0  0.74523  0.72280  0.02177  1.0000
  F   F272      1.0  0.75417  0.75183  0.50494  1.0000
  F   F273      1.0  0.11410  0.00100  0.26781  1.0000
  F   F274      1.0  0.13851  0.00292  0.73356  1.0000
  F   F275      1.0  0.12642  0.49229  0.25107  1.0000
  F   F276      1.0  0.12589  0.49789  0.75329  1.0000
  F   F277      1.0  0.37914  0.00964  0.23423  1.0000
  F   F278      1.0  0.36887  0.00448  0.76016  1.0000
  F   F279      1.0  0.37494  0.50030  0.25209  1.0000
  F   F280      1.0  0.37370  0.50520  0.75204  1.0000
  F   F281      1.0  0.62765  0.99656  0.24738  1.0000
  F   F282      1.0  0.62777  0.00001  0.74293  1.0000
  F   F283      1.0  0.62264  0.50520  0.24747  1.0000
  F   F284      1.0  0.62854  0.50949  0.74009  1.0000
  F   F285      1.0  0.87873  0.00199  0.23782  1.0000
  F   F286      1.0  0.87322  0.00226  0.74947  1.0000
  F   F287      1.0  0.88240  0.50553  0.24045  1.0000
  F   F288      1.0  0.88178  0.50630  0.73255  1.0000
  F   F289      1.0  0.03733  0.02350  0.02947  1.0000
  F   F290      1.0  0.05367  0.02778  0.52128  1.0000
  F   F291      1.0  0.05209  0.51722  0.02061  1.0000
  F   F292      1.0  0.04041  0.52349  0.53767  1.0000
  F   F293      1.0  0.28750  0.02939  0.03308  1.0000
  F   F294      1.0  0.31098  0.02405  0.50979  1.0000
  F   F295      1.0  0.30094  0.52304  0.02045  1.0000
  F   F296      1.0  0.28573  0.52825  0.53541  1.0000
  F   F297      1.0  0.54901  0.02610  0.00891  1.0000
  F   F298      1.0  0.53655  0.03575  0.52165  1.0000
  F   F299      1.0  0.54631  0.53328  0.02671  1.0000
  F   F300      1.0  0.54538  0.53969  0.52192  1.0000
  F   F301      1.0  0.78659  0.04023  0.03728  1.0000
  F   F302      1.0  0.78997  0.03774  0.51667  1.0000
  F   F303      1.0  0.79700  0.53055  0.02756  1.0000
  F   F304      1.0  0.79480  0.54530  0.51458  1.0000
  F   F305      1.0  0.23656  0.41635  0.22927  1.0000
  F   F306      1.0  0.23383  0.41118  0.73029  1.0000
  F   F307      1.0  0.23328  0.92863  0.23321  1.0000
  F   F308      1.0  0.23285  0.91653  0.72008  1.0000
  F   F309      1.0  0.48315  0.41618  0.22749  1.0000
  F   F310      1.0  0.48246  0.41014  0.73855  1.0000
  F   F311      1.0  0.48497  0.90751  0.22005  1.0000
  F   F312      1.0  0.48569  0.91095  0.73796  1.0000
  F   F313      1.0  0.73941  0.41712  0.22343  1.0000
  F   F314      1.0  0.73561  0.42510  0.71941  1.0000
  F   F315      1.0  0.73897  0.89478  0.24607  1.0000
  F   F316      1.0  0.73694  0.91073  0.72443  1.0000
  F   F317      1.0  0.98384  0.43109  0.22166  1.0000
  F   F318      1.0  0.98263  0.40696  0.73535  1.0000
  F   F319      1.0  0.98262  0.91324  0.22905  1.0000
  F   F320      1.0  0.98756  0.90378  0.73127  1.0000
  F   F321      1.0  0.21127  0.46762  0.46960  1.0000
  F   F322      1.0  0.20679  0.46810  0.98387  1.0000
  F   F323      1.0  0.20214  0.97293  0.48411  1.0000
  F   F324      1.0  0.21616  0.95765  0.96945  1.0000
  F   F325      1.0  0.45537  0.46238  0.48227  1.0000
  F   F326      1.0  0.44805  0.46932  0.98609  1.0000
  F   F327      1.0  0.45811  0.97406  0.47677  1.0000
  F   F328      1.0  0.45000  0.98094  0.98372  1.0000
  F   F329      1.0  0.71529  0.46674  0.47589  1.0000
  F   F330      1.0  0.71210  0.45820  0.96408  1.0000
  F   F331      1.0  0.69857  0.97586  0.48105  1.0000
  F   F332      1.0  0.70549  0.97831  0.97087  1.0000
  F   F333      1.0  0.96915  0.45893  0.47191  1.0000
  F   F334      1.0  0.97207  0.45336  0.95921  1.0000
  F   F335      1.0  0.95792  0.97610  0.47060  1.0000
  F   F336      1.0  0.95616  0.97042  0.98264  1.0000
  F   F337      1.0  0.01653  0.07138  0.28169  1.0000
  F   F338      1.0  0.01086  0.09427  0.76398  1.0000
  F   F339      1.0  0.01674  0.57906  0.26881  1.0000
  F   F340      1.0  0.01236  0.58551  0.76240  1.0000
  F   F341      1.0  0.26033  0.09338  0.27739  1.0000
  F   F342      1.0  0.27085  0.09644  0.76545  1.0000
  F   F343      1.0  0.26155  0.60946  0.25846  1.0000
  F   F344      1.0  0.27163  0.57879  0.77000  1.0000
  F   F345      1.0  0.51765  0.07481  0.28284  1.0000
  F   F346      1.0  0.51326  0.08513  0.76994  1.0000
  F   F347      1.0  0.51638  0.58353  0.29251  1.0000
  F   F348      1.0  0.51768  0.58243  0.77222  1.0000
  F   F349      1.0  0.76511  0.08877  0.25918  1.0000
  F   F350      1.0  0.75967  0.09423  0.77237  1.0000
  F   F351      1.0  0.76258  0.60719  0.26319  1.0000
  F   F352      1.0  0.76570  0.58686  0.77162  1.0000
  F   F353      1.0  0.10261  0.41791  0.45635  1.0000
  F   F354      1.0  0.10388  0.39742  0.95981  1.0000
  F   F355      1.0  0.09852  0.89348  0.47113  1.0000
  F   F356      1.0  0.09943  0.92203  0.96796  1.0000
  F   F357      1.0  0.35121  0.42327  0.46689  1.0000
  F   F358      1.0  0.34719  0.40983  0.94900  1.0000
  F   F359      1.0  0.35139  0.88629  0.46020  1.0000
  F   F360      1.0  0.35167  0.90836  0.96836  1.0000
  F   F361      1.0  0.60309  0.40831  0.44833  1.0000
  F   F362      1.0  0.60194  0.41662  0.95374  1.0000
  F   F363      1.0  0.60032  0.90122  0.45640  1.0000
  F   F364      1.0  0.60358  0.91087  0.96403  1.0000
  F   F365      1.0  0.85005  0.41190  0.45051  1.0000
  F   F366      1.0  0.85049  0.39622  0.96648  1.0000
  F   F367      1.0  0.85228  0.91312  0.45491  1.0000
  F   F368      1.0  0.85174  0.92476  0.95651  1.0000
  F   F369      1.0  0.03949  0.30075  0.29672  1.0000
  F   F370      1.0  0.04802  0.29102  0.78013  1.0000
  F   F371      1.0  0.04568  0.79065  0.29572  1.0000
  F   F372      1.0  0.05792  0.78901  0.78223  1.0000
  F   F373      1.0  0.29364  0.29596  0.28637  1.0000
  F   F374      1.0  0.29680  0.30426  0.79319  1.0000
  F   F375      1.0  0.28569  0.79741  0.29198  1.0000
  F   F376      1.0  0.29405  0.78554  0.80814  1.0000
  F   F377      1.0  0.55187  0.30367  0.27626  1.0000
  F   F378      1.0  0.54398  0.30925  0.78852  1.0000
  F   F379      1.0  0.53947  0.81049  0.29479  1.0000
  F   F380      1.0  0.54860  0.79393  0.78853  1.0000
  F   F381      1.0  0.79667  0.29178  0.28756  1.0000
  F   F382      1.0  0.79148  0.30060  0.78323  1.0000
  F   F383      1.0  0.79541  0.79005  0.29580  1.0000
  F   F384      1.0  0.79560  0.79254  0.80240  1.0000
