data_image0
_chemical_formula_structural       Hf96F384
_chemical_formula_sum              "Hf96 F384"
_cell_length_a       31.041
_cell_length_b       15.5185
_cell_length_c       15.509
_cell_angle_alpha    63.342
_cell_angle_beta     63.342
_cell_angle_gamma    80.1625

_space_group_name_H-M_alt    "P 1"
_space_group_IT_number       1

loop_
  _space_group_symop_operation_xyz
  'x, y, z'

loop_
  _atom_site_type_symbol
  _atom_site_label
  _atom_site_symmetry_multiplicity
  _atom_site_fract_x
  _atom_site_fract_y
  _atom_site_fract_z
  _atom_site_occupancy
  Hf  Hf1       1.0  0.19670  0.09836  0.38390  1.0000
  Hf  Hf2       1.0  0.19219  0.10411  0.88176  1.0000
  Hf  Hf3       1.0  0.19805  0.60899  0.36994  1.0000
  Hf  Hf4       1.0  0.19592  0.59893  0.88487  1.0000
  Hf  Hf5       1.0  0.44491  0.09794  0.38167  1.0000
  Hf  Hf6       1.0  0.44408  0.10361  0.87987  1.0000
  Hf  Hf7       1.0  0.44751  0.60999  0.38068  1.0000
  Hf  Hf8       1.0  0.44920  0.60987  0.86463  1.0000
  Hf  Hf9       1.0  0.69869  0.10542  0.37878  1.0000
  Hf  Hf10      1.0  0.69627  0.10010  0.87442  1.0000
  Hf  Hf11      1.0  0.69983  0.61646  0.37699  1.0000
  Hf  Hf12      1.0  0.69479  0.60760  0.87734  1.0000
  Hf  Hf13      1.0  0.94764  0.11071  0.37509  1.0000
  Hf  Hf14      1.0  0.94723  0.11239  0.87565  1.0000
  Hf  Hf15      1.0  0.94612  0.60726  0.36967  1.0000
  Hf  Hf16      1.0  0.94992  0.60768  0.87204  1.0000
  Hf  Hf17      1.0  0.05376  0.38724  0.12868  1.0000
  Hf  Hf18      1.0  0.05174  0.39687  0.62514  1.0000
  Hf  Hf19      1.0  0.05741  0.89144  0.12503  1.0000
  Hf  Hf20      1.0  0.05533  0.89533  0.61627  1.0000
  Hf  Hf21      1.0  0.30293  0.38758  0.12858  1.0000
  Hf  Hf22      1.0  0.30351  0.38348  0.62919  1.0000
  Hf  Hf23      1.0  0.30581  0.88892  0.12392  1.0000
  Hf  Hf24      1.0  0.30205  0.88815  0.62599  1.0000
  Hf  Hf25      1.0  0.55485  0.38769  0.11982  1.0000
  Hf  Hf26      1.0  0.55515  0.39289  0.62291  1.0000
  Hf  Hf27      1.0  0.55197  0.89851  0.12597  1.0000
  Hf  Hf28      1.0  0.55252  0.89970  0.62224  1.0000
  Hf  Hf29      1.0  0.80104  0.40597  0.12633  1.0000
  Hf  Hf30      1.0  0.80596  0.39282  0.62452  1.0000
  Hf  Hf31      1.0  0.80587  0.89585  0.12171  1.0000
  Hf  Hf32      1.0  0.80257  0.89251  0.62405  1.0000
  Hf  Hf33      1.0  0.05267  0.17850  0.43092  1.0000
  Hf  Hf34      1.0  0.05454  0.18263  0.91902  1.0000
  Hf  Hf35      1.0  0.05679  0.69228  0.41741  1.0000
  Hf  Hf36      1.0  0.05615  0.68206  0.91148  1.0000
  Hf  Hf37      1.0  0.30643  0.18493  0.41330  1.0000
  Hf  Hf38      1.0  0.30432  0.17839  0.92217  1.0000
  Hf  Hf39      1.0  0.30429  0.67447  0.42250  1.0000
  Hf  Hf40      1.0  0.30874  0.67672  0.91902  1.0000
  Hf  Hf41      1.0  0.55794  0.18504  0.40811  1.0000
  Hf  Hf42      1.0  0.55401  0.18832  0.91843  1.0000
  Hf  Hf43      1.0  0.55369  0.68414  0.41334  1.0000
  Hf  Hf44      1.0  0.55418  0.67246  0.92386  1.0000
  Hf  Hf45      1.0  0.80547  0.18303  0.41656  1.0000
  Hf  Hf46      1.0  0.80728  0.18515  0.91661  1.0000
  Hf  Hf47      1.0  0.80791  0.68335  0.41324  1.0000
  Hf  Hf48      1.0  0.80336  0.68312  0.92274  1.0000
  Hf  Hf49      1.0  0.15645  0.38660  0.33255  1.0000
  Hf  Hf50      1.0  0.16071  0.39027  0.82948  1.0000
  Hf  Hf51      1.0  0.16258  0.89059  0.33033  1.0000
  Hf  Hf52      1.0  0.15759  0.88554  0.83542  1.0000
  Hf  Hf53      1.0  0.40749  0.38019  0.33460  1.0000
  Hf  Hf54      1.0  0.40747  0.37628  0.84212  1.0000
  Hf  Hf55      1.0  0.40491  0.88484  0.33320  1.0000
  Hf  Hf56      1.0  0.41029  0.88126  0.83914  1.0000
  Hf  Hf57      1.0  0.65623  0.39777  0.33407  1.0000
  Hf  Hf58      1.0  0.66112  0.38954  0.82729  1.0000
  Hf  Hf59      1.0  0.66138  0.88526  0.32626  1.0000
  Hf  Hf60      1.0  0.65605  0.88887  0.82687  1.0000
  Hf  Hf61      1.0  0.90692  0.39761  0.33126  1.0000
  Hf  Hf62      1.0  0.90761  0.39530  0.82948  1.0000
  Hf  Hf63      1.0  0.90828  0.89226  0.33268  1.0000
  Hf  Hf64      1.0  0.91295  0.88919  0.83152  1.0000
  Hf  Hf65      1.0  0.19426  0.30065  0.08518  1.0000
  Hf  Hf66      1.0  0.19374  0.32643  0.57967  1.0000
  Hf  Hf67      1.0  0.19559  0.81698  0.08577  1.0000
  Hf  Hf68      1.0  0.19285  0.80666  0.59007  1.0000
  Hf  Hf69      1.0  0.44340  0.31089  0.08910  1.0000
  Hf  Hf70      1.0  0.44610  0.31420  0.58350  1.0000
  Hf  Hf71      1.0  0.44597  0.81433  0.08118  1.0000
  Hf  Hf72      1.0  0.44297  0.81780  0.58096  1.0000
  Hf  Hf73      1.0  0.69553  0.31807  0.08450  1.0000
  Hf  Hf74      1.0  0.69470  0.31550  0.58423  1.0000
  Hf  Hf75      1.0  0.69568  0.81763  0.07943  1.0000
  Hf  Hf76      1.0  0.69026  0.82286  0.57912  1.0000
  Hf  Hf77      1.0  0.94328  0.31690  0.08364  1.0000
  Hf  Hf78      1.0  0.94402  0.32325  0.58718  1.0000
  Hf  Hf79      1.0  0.94652  0.82478  0.07862  1.0000
  Hf  Hf80      1.0  0.94406  0.82501  0.58200  1.0000
  Hf  Hf81      1.0  0.08974  0.10805  0.17832  1.0000
  Hf  Hf82      1.0  0.09470  0.11313  0.66064  1.0000
  Hf  Hf83      1.0  0.08953  0.60949  0.17118  1.0000
  Hf  Hf84      1.0  0.09255  0.61541  0.66106  1.0000
  Hf  Hf85      1.0  0.34207  0.10920  0.16214  1.0000
  Hf  Hf86      1.0  0.33844  0.10449  0.67612  1.0000
  Hf  Hf87      1.0  0.33767  0.61582  0.16601  1.0000
  Hf  Hf88      1.0  0.34389  0.61446  0.66720  1.0000
  Hf  Hf89      1.0  0.59492  0.11403  0.15893  1.0000
  Hf  Hf90      1.0  0.59247  0.11608  0.66197  1.0000
  Hf  Hf91      1.0  0.59041  0.61016  0.16821  1.0000
  Hf  Hf92      1.0  0.58824  0.61783  0.66736  1.0000
  Hf  Hf93      1.0  0.84190  0.12040  0.16013  1.0000
  Hf  Hf94      1.0  0.83753  0.11074  0.67480  1.0000
  Hf  Hf95      1.0  0.84216  0.62236  0.15502  1.0000
  Hf  Hf96      1.0  0.83974  0.61984  0.66285  1.0000
  F   F1        1.0  0.08107  0.14952  0.30015  1.0000
  F   F2        1.0  0.07869  0.13560  0.79965  1.0000
  F   F3        1.0  0.07425  0.62369  0.30686  1.0000
  F   F4        1.0  0.07536  0.62686  0.79967  1.0000
  F   F5        1.0  0.32387  0.13898  0.29508  1.0000
  F   F6        1.0  0.32334  0.11495  0.81809  1.0000
  F   F7        1.0  0.33116  0.62242  0.30450  1.0000
  F   F8        1.0  0.32396  0.62105  0.80862  1.0000
  F   F9        1.0  0.57957  0.12921  0.29589  1.0000
  F   F10       1.0  0.58176  0.12768  0.79563  1.0000
  F   F11       1.0  0.58056  0.61727  0.31114  1.0000
  F   F12       1.0  0.57792  0.61698  0.81387  1.0000
  F   F13       1.0  0.82703  0.12998  0.30658  1.0000
  F   F14       1.0  0.83220  0.12212  0.80781  1.0000
  F   F15       1.0  0.82056  0.61210  0.31863  1.0000
  F   F16       1.0  0.82314  0.61595  0.80792  1.0000
  F   F17       1.0  0.18292  0.34202  0.45406  1.0000
  F   F18       1.0  0.18448  0.33021  0.95128  1.0000
  F   F19       1.0  0.19437  0.84486  0.43941  1.0000
  F   F20       1.0  0.17342  0.83925  0.95742  1.0000
  F   F21       1.0  0.43136  0.33714  0.46028  1.0000
  F   F22       1.0  0.44274  0.33699  0.94581  1.0000
  F   F23       1.0  0.43214  0.81885  0.45706  1.0000
  F   F24       1.0  0.44001  0.82794  0.94630  1.0000
  F   F25       1.0  0.67867  0.34058  0.45268  1.0000
  F   F26       1.0  0.69077  0.34013  0.93944  1.0000
  F   F27       1.0  0.67506  0.83847  0.45543  1.0000
  F   F28       1.0  0.68626  0.83837  0.94651  1.0000
  F   F29       1.0  0.93874  0.35183  0.45243  1.0000
  F   F30       1.0  0.94030  0.35795  0.93026  1.0000
  F   F31       1.0  0.93685  0.84125  0.44885  1.0000
  F   F32       1.0  0.94838  0.84063  0.93528  1.0000
  F   F33       1.0  0.17320  0.35693  0.20156  1.0000
  F   F34       1.0  0.16915  0.37280  0.69386  1.0000
  F   F35       1.0  0.17074  0.87693  0.18881  1.0000
  F   F36       1.0  0.17536  0.87561  0.68688  1.0000
  F   F37       1.0  0.42093  0.38356  0.18474  1.0000
  F   F38       1.0  0.42182  0.36408  0.70170  1.0000
  F   F39       1.0  0.41883  0.87894  0.19470  1.0000
  F   F40       1.0  0.41756  0.86288  0.70061  1.0000
  F   F41       1.0  0.67610  0.39166  0.18007  1.0000
  F   F42       1.0  0.66994  0.36186  0.69609  1.0000
  F   F43       1.0  0.66995  0.87152  0.19689  1.0000
  F   F44       1.0  0.66268  0.86465  0.70248  1.0000
  F   F45       1.0  0.91707  0.37365  0.19413  1.0000
  F   F46       1.0  0.92753  0.37356  0.69684  1.0000
  F   F47       1.0  0.91854  0.87300  0.19646  1.0000
  F   F48       1.0  0.92195  0.88366  0.69629  1.0000
  F   F49       1.0  0.05418  0.15794  0.06759  1.0000
  F   F50       1.0  0.06195  0.15810  0.55713  1.0000
  F   F51       1.0  0.07231  0.66251  0.04559  1.0000
  F   F52       1.0  0.07002  0.67296  0.54448  1.0000
  F   F53       1.0  0.31546  0.16375  0.05829  1.0000
  F   F54       1.0  0.31136  0.16142  0.54958  1.0000
  F   F55       1.0  0.30019  0.65077  0.06687  1.0000
  F   F56       1.0  0.31620  0.65112  0.56296  1.0000
  F   F57       1.0  0.56820  0.16457  0.05172  1.0000
  F   F58       1.0  0.57123  0.17427  0.54026  1.0000
  F   F59       1.0  0.56326  0.65463  0.05964  1.0000
  F   F60       1.0  0.56854  0.66101  0.54584  1.0000
  F   F61       1.0  0.81122  0.15339  0.05965  1.0000
  F   F62       1.0  0.81132  0.15944  0.55976  1.0000
  F   F63       1.0  0.80400  0.65353  0.05987  1.0000
  F   F64       1.0  0.81434  0.64967  0.55614  1.0000
  F   F65       1.0  0.21147  0.19390  0.20218  1.0000
  F   F66       1.0  0.20636  0.21206  0.71019  1.0000
  F   F67       1.0  0.21167  0.70739  0.20546  1.0000
  F   F68       1.0  0.20261  0.69587  0.71331  1.0000
  F   F69       1.0  0.44953  0.19959  0.21508  1.0000
  F   F70       1.0  0.45642  0.19874  0.72197  1.0000
  F   F71       1.0  0.45144  0.70283  0.20211  1.0000
  F   F72       1.0  0.45807  0.69456  0.70439  1.0000
  F   F73       1.0  0.70297  0.20810  0.20332  1.0000
  F   F74       1.0  0.70435  0.19755  0.71259  1.0000
  F   F75       1.0  0.71331  0.71837  0.18982  1.0000
  F   F76       1.0  0.70239  0.71181  0.69984  1.0000
  F   F77       1.0  0.95802  0.19566  0.21931  1.0000
  F   F78       1.0  0.95046  0.20056  0.71152  1.0000
  F   F79       1.0  0.95808  0.71412  0.19883  1.0000
  F   F80       1.0  0.95866  0.71609  0.69628  1.0000
  F   F81       1.0  0.14431  0.08091  0.04194  1.0000
  F   F82       1.0  0.14955  0.07511  0.55570  1.0000
  F   F83       1.0  0.15498  0.58469  0.04126  1.0000
  F   F84       1.0  0.14672  0.58945  0.53240  1.0000
  F   F85       1.0  0.39611  0.07863  0.04537  1.0000
  F   F86       1.0  0.39406  0.09407  0.53962  1.0000
  F   F87       1.0  0.38897  0.58386  0.04407  1.0000
  F   F88       1.0  0.40591  0.59510  0.54519  1.0000
  F   F89       1.0  0.65212  0.08642  0.02356  1.0000
  F   F90       1.0  0.64929  0.08778  0.54208  1.0000
  F   F91       1.0  0.64975  0.59762  0.03063  1.0000
  F   F92       1.0  0.64677  0.59528  0.53818  1.0000
  F   F93       1.0  0.90474  0.10203  0.03552  1.0000
  F   F94       1.0  0.90422  0.10967  0.53165  1.0000
  F   F95       1.0  0.89598  0.58979  0.04250  1.0000
  F   F96       1.0  0.89938  0.61129  0.52243  1.0000
  F   F97       1.0  0.15873  0.18459  0.12011  1.0000
  F   F98       1.0  0.15481  0.17974  0.64129  1.0000
  F   F99       1.0  0.14457  0.70466  0.13075  1.0000
  F   F100      1.0  0.15566  0.68874  0.61565  1.0000
  F   F101      1.0  0.40468  0.18081  0.12304  1.0000
  F   F102      1.0  0.39737  0.18170  0.65220  1.0000
  F   F103      1.0  0.39918  0.69213  0.11768  1.0000
  F   F104      1.0  0.40328  0.69123  0.64350  1.0000
  F   F105      1.0  0.65152  0.20219  0.11288  1.0000
  F   F106      1.0  0.65505  0.19816  0.62364  1.0000
  F   F107      1.0  0.65823  0.70132  0.10957  1.0000
  F   F108      1.0  0.64469  0.70403  0.63819  1.0000
  F   F109      1.0  0.89847  0.19985  0.14070  1.0000
  F   F110      1.0  0.89857  0.20766  0.63978  1.0000
  F   F111      1.0  0.90188  0.70574  0.13486  1.0000
  F   F112      1.0  0.89744  0.69521  0.63071  1.0000
  F   F113      1.0  0.09346  0.30566  0.36842  1.0000
  F   F114      1.0  0.09125  0.31030  0.87101  1.0000
  F   F115      1.0  0.10605  0.80776  0.38092  1.0000
  F   F116      1.0  0.09626  0.80950  0.87822  1.0000
  F   F117      1.0  0.35285  0.29507  0.36434  1.0000
  F   F118      1.0  0.34362  0.29616  0.88532  1.0000
  F   F119      1.0  0.33951  0.79632  0.38650  1.0000
  F   F120      1.0  0.35416  0.78258  0.89961  1.0000
  F   F121      1.0  0.60179  0.31128  0.35580  1.0000
  F   F122      1.0  0.59746  0.30231  0.86630  1.0000
  F   F123      1.0  0.59900  0.81358  0.36806  1.0000
  F   F124      1.0  0.59653  0.80010  0.86005  1.0000
  F   F125      1.0  0.84477  0.31999  0.36625  1.0000
  F   F126      1.0  0.84867  0.30150  0.87567  1.0000
  F   F127      1.0  0.84548  0.80156  0.37911  1.0000
  F   F128      1.0  0.85292  0.80782  0.88414  1.0000
  F   F129      1.0  0.06947  0.25095  0.13109  1.0000
  F   F130      1.0  0.07710  0.25727  0.62150  1.0000
  F   F131      1.0  0.05987  0.75149  0.14057  1.0000
  F   F132      1.0  0.07319  0.75502  0.62611  1.0000
  F   F133      1.0  0.31787  0.24754  0.14224  1.0000
  F   F134      1.0  0.31304  0.24149  0.64905  1.0000
  F   F135      1.0  0.31158  0.75299  0.12625  1.0000
  F   F136      1.0  0.31369  0.74641  0.64483  1.0000
  F   F137      1.0  0.55837  0.24926  0.14984  1.0000
  F   F138      1.0  0.56428  0.25362  0.65093  1.0000
  F   F139      1.0  0.56820  0.75089  0.14632  1.0000
  F   F140      1.0  0.55932  0.75308  0.65119  1.0000
  F   F141      1.0  0.81626  0.25622  0.13789  1.0000
  F   F142      1.0  0.81815  0.24803  0.64547  1.0000
  F   F143      1.0  0.81655  0.75036  0.12202  1.0000
  F   F144      1.0  0.81228  0.75820  0.63335  1.0000
  F   F145      1.0  0.12452  0.35470  0.11709  1.0000
  F   F146      1.0  0.12106  0.37665  0.60764  1.0000
  F   F147      1.0  0.12153  0.85745  0.12741  1.0000
  F   F148      1.0  0.12694  0.86344  0.60734  1.0000
  F   F149      1.0  0.37366  0.34684  0.11902  1.0000
  F   F150      1.0  0.37090  0.37115  0.60932  1.0000
  F   F151      1.0  0.37412  0.85037  0.11529  1.0000
  F   F152      1.0  0.36751  0.87890  0.59544  1.0000
  F   F153      1.0  0.62534  0.35208  0.12684  1.0000
  F   F154      1.0  0.62325  0.38281  0.60686  1.0000
  F   F155      1.0  0.62373  0.86902  0.10857  1.0000
  F   F156      1.0  0.62726  0.88000  0.58653  1.0000
  F   F157      1.0  0.87283  0.37196  0.10615  1.0000
  F   F158      1.0  0.87538  0.38416  0.60719  1.0000
  F   F159      1.0  0.87360  0.86822  0.09844  1.0000
  F   F160      1.0  0.86948  0.84779  0.62757  1.0000
  F   F161      1.0  0.17471  0.24347  0.37739  1.0000
  F   F162      1.0  0.17767  0.24188  0.86800  1.0000
  F   F163      1.0  0.18929  0.74022  0.36623  1.0000
  F   F164      1.0  0.18758  0.74738  0.84995  1.0000
  F   F165      1.0  0.42881  0.23895  0.37045  1.0000
  F   F166      1.0  0.43087  0.23918  0.87627  1.0000
  F   F167      1.0  0.44497  0.75718  0.33993  1.0000
  F   F168      1.0  0.44707  0.75213  0.83391  1.0000
  F   F169      1.0  0.68779  0.24566  0.35749  1.0000
  F   F170      1.0  0.69051  0.25717  0.84051  1.0000
  F   F171      1.0  0.70086  0.75615  0.34134  1.0000
  F   F172      1.0  0.68747  0.75012  0.85158  1.0000
  F   F173      1.0  0.93253  0.26267  0.36058  1.0000
  F   F174      1.0  0.93886  0.25696  0.84739  1.0000
  F   F175      1.0  0.93163  0.75030  0.36010  1.0000
  F   F176      1.0  0.94020  0.75199  0.85673  1.0000
  F   F177      1.0  0.12144  0.11516  0.41463  1.0000
  F   F178      1.0  0.12358  0.12143  0.89292  1.0000
  F   F179      1.0  0.12909  0.65430  0.36259  1.0000
  F   F180      1.0  0.12505  0.63254  0.88354  1.0000
  F   F181      1.0  0.37739  0.10980  0.38973  1.0000
  F   F182      1.0  0.37039  0.12455  0.89966  1.0000
  F   F183      1.0  0.37910  0.62852  0.40000  1.0000
  F   F184      1.0  0.37872  0.63735  0.88267  1.0000
  F   F185      1.0  0.62511  0.13711  0.38050  1.0000
  F   F186      1.0  0.62683  0.13151  0.87948  1.0000
  F   F187      1.0  0.62872  0.65716  0.37975  1.0000
  F   F188      1.0  0.62165  0.62732  0.89561  1.0000
  F   F189      1.0  0.87828  0.13103  0.38615  1.0000
  F   F190      1.0  0.87471  0.12377  0.89951  1.0000
  F   F191      1.0  0.88117  0.65676  0.36066  1.0000
  F   F192      1.0  0.87330  0.64214  0.89179  1.0000
  F   F193      1.0  0.00817  0.34955  0.07604  1.0000
  F   F194      1.0  0.01038  0.36448  0.56950  1.0000
  F   F195      1.0  0.01182  0.86812  0.05367  1.0000
  F   F196      1.0  0.01013  0.86803  0.55115  1.0000
  F   F197      1.0  0.25556  0.34850  0.10028  1.0000
  F   F198      1.0  0.25552  0.37117  0.57891  1.0000
  F   F199      1.0  0.25639  0.86969  0.06960  1.0000
  F   F200      1.0  0.25771  0.86352  0.57010  1.0000
  F   F201      1.0  0.51053  0.36989  0.05183  1.0000
  F   F202      1.0  0.50495  0.36941  0.56568  1.0000
  F   F203      1.0  0.50728  0.86539  0.06328  1.0000
  F   F204      1.0  0.50378  0.87256  0.56721  1.0000
  F   F205      1.0  0.75800  0.36230  0.08004  1.0000
  F   F206      1.0  0.75713  0.35902  0.57545  1.0000
  F   F207      1.0  0.76480  0.88016  0.05627  1.0000
  F   F208      1.0  0.75233  0.86917  0.57654  1.0000
  F   F209      1.0  0.08002  0.48542  0.16700  1.0000
  F   F210      1.0  0.06230  0.48620  0.68817  1.0000
  F   F211      1.0  0.06282  0.98398  0.19967  1.0000
  F   F212      1.0  0.07041  0.99009  0.66577  1.0000
  F   F213      1.0  0.31671  0.48332  0.17587  1.0000
  F   F214      1.0  0.32255  0.49369  0.66493  1.0000
  F   F215      1.0  0.32560  0.98389  0.15814  1.0000
  F   F216      1.0  0.31845  0.98402  0.68169  1.0000
  F   F217      1.0  0.56922  0.48330  0.17661  1.0000
  F   F218      1.0  0.56478  0.48340  0.67352  1.0000
  F   F219      1.0  0.56981  0.98868  0.17773  1.0000
  F   F220      1.0  0.56698  0.99324  0.67409  1.0000
  F   F221      1.0  0.82437  0.49540  0.16364  1.0000
  F   F222      1.0  0.81894  0.48695  0.68133  1.0000
  F   F223      1.0  0.81904  0.98271  0.18659  1.0000
  F   F224      1.0  0.82478  0.99087  0.65509  1.0000
  F   F225      1.0  0.23980  0.12681  0.43942  1.0000
  F   F226      1.0  0.24073  0.14113  0.93465  1.0000
  F   F227      1.0  0.24387  0.62843  0.42528  1.0000
  F   F228      1.0  0.23971  0.65261  0.92458  1.0000
  F   F229      1.0  0.49434  0.13113  0.42387  1.0000
  F   F230      1.0  0.49298  0.13035  0.93674  1.0000
  F   F231      1.0  0.49711  0.64268  0.41573  1.0000
  F   F232      1.0  0.49277  0.62929  0.93112  1.0000
  F   F233      1.0  0.74559  0.12677  0.42677  1.0000
  F   F234      1.0  0.74502  0.14455  0.90979  1.0000
  F   F235      1.0  0.74010  0.63121  0.44555  1.0000
  F   F236      1.0  0.74360  0.64382  0.91941  1.0000
  F   F237      1.0  0.99675  0.14206  0.42374  1.0000
  F   F238      1.0  0.99427  0.11785  0.94282  1.0000
  F   F239      1.0  0.99117  0.64419  0.41037  1.0000
  F   F240      1.0  0.99506  0.63356  0.92325  1.0000
  F   F241      1.0  0.17809  0.01523  0.33262  1.0000
  F   F242      1.0  0.18344  0.01808  0.81976  1.0000
  F   F243      1.0  0.17875  0.51927  0.31909  1.0000
  F   F244      1.0  0.18443  0.51171  0.80976  1.0000
  F   F245      1.0  0.43457  0.99245  0.34068  1.0000
  F   F246      1.0  0.43511  0.00563  0.82576  1.0000
  F   F247      1.0  0.42881  0.51792  0.33270  1.0000
  F   F248      1.0  0.43553  0.50704  0.80505  1.0000
  F   F249      1.0  0.67951  0.01022  0.32704  1.0000
  F   F250      1.0  0.67622  0.00330  0.84092  1.0000
  F   F251      1.0  0.67316  0.52222  0.33682  1.0000
  F   F252      1.0  0.68044  0.52468  0.82057  1.0000
  F   F253      1.0  0.93325  0.01677  0.31260  1.0000
  F   F254      1.0  0.93517  0.02184  0.81195  1.0000
  F   F255      1.0  0.92719  0.51557  0.33254  1.0000
  F   F256      1.0  0.92603  0.53123  0.82766  1.0000
  F   F257      1.0  0.99275  0.25839  0.99266  1.0000
  F   F258      1.0  0.99899  0.25077  0.50093  1.0000
  F   F259      1.0  0.00046  0.73531  0.99913  1.0000
  F   F260      1.0  0.99698  0.73465  0.51657  1.0000
  F   F261      1.0  0.25267  0.25114  0.00221  1.0000
  F   F262      1.0  0.25172  0.25747  0.49264  1.0000
  F   F263      1.0  0.24915  0.76865  0.98993  1.0000
  F   F264      1.0  0.24607  0.72963  0.51299  1.0000
  F   F265      1.0  0.49792  0.23832  0.01036  1.0000
  F   F266      1.0  0.49826  0.23701  0.51509  1.0000
  F   F267      1.0  0.49724  0.72774  0.01430  1.0000
  F   F268      1.0  0.49629  0.75319  0.49415  1.0000
  F   F269      1.0  0.74585  0.24315  0.01267  1.0000
  F   F270      1.0  0.75149  0.23642  0.50645  1.0000
  F   F271      1.0  0.75862  0.77197  0.98294  1.0000
  F   F272      1.0  0.74955  0.75605  0.49964  1.0000
  F   F273      1.0  0.12952  0.00279  0.25026  1.0000
  F   F274      1.0  0.12197  0.98941  0.76517  1.0000
  F   F275      1.0  0.13082  0.49227  0.24111  1.0000
  F   F276      1.0  0.12608  0.50306  0.74994  1.0000
  F   F277      1.0  0.36727  0.99243  0.25727  1.0000
  F   F278      1.0  0.36701  0.98178  0.77112  1.0000
  F   F279      1.0  0.37933  0.49077  0.25013  1.0000
  F   F280      1.0  0.37207  0.48601  0.75677  1.0000
  F   F281      1.0  0.62535  0.99882  0.25439  1.0000
  F   F282      1.0  0.62558  0.00041  0.74808  1.0000
  F   F283      1.0  0.62640  0.50467  0.24277  1.0000
  F   F284      1.0  0.62209  0.48389  0.76087  1.0000
  F   F285      1.0  0.87974  0.01529  0.23900  1.0000
  F   F286      1.0  0.86992  0.99484  0.75204  1.0000
  F   F287      1.0  0.88624  0.51464  0.22150  1.0000
  F   F288      1.0  0.88064  0.50825  0.72929  1.0000
  F   F289      1.0  0.04159  0.03001  0.04908  1.0000
  F   F290      1.0  0.03325  0.03127  0.52949  1.0000
  F   F291      1.0  0.04770  0.52480  0.02056  1.0000
  F   F292      1.0  0.04158  0.53919  0.52209  1.0000
  F   F293      1.0  0.28678  0.03398  0.03524  1.0000
  F   F294      1.0  0.29363  0.02757  0.53461  1.0000
  F   F295      1.0  0.30197  0.53023  0.01688  1.0000
  F   F296      1.0  0.29307  0.53209  0.52210  1.0000
  F   F297      1.0  0.54901  0.03243  0.01985  1.0000
  F   F298      1.0  0.54410  0.04005  0.53479  1.0000
  F   F299      1.0  0.53508  0.52696  0.03500  1.0000
  F   F300      1.0  0.54918  0.52946  0.50631  1.0000
  F   F301      1.0  0.79274  0.03544  0.02862  1.0000
  F   F302      1.0  0.79896  0.02692  0.51209  1.0000
  F   F303      1.0  0.78279  0.52680  0.03251  1.0000
  F   F304      1.0  0.80299  0.52975  0.51046  1.0000
  F   F305      1.0  0.23393  0.42582  0.22397  1.0000
  F   F306      1.0  0.23530  0.40185  0.73847  1.0000
  F   F307      1.0  0.23291  0.91952  0.22434  1.0000
  F   F308      1.0  0.23531  0.91238  0.73426  1.0000
  F   F309      1.0  0.48217  0.39668  0.22272  1.0000
  F   F310      1.0  0.48408  0.39680  0.72720  1.0000
  F   F311      1.0  0.48750  0.92705  0.20864  1.0000
  F   F312      1.0  0.48302  0.93117  0.70690  1.0000
  F   F313      1.0  0.73797  0.43393  0.22695  1.0000
  F   F314      1.0  0.73935  0.42326  0.71305  1.0000
  F   F315      1.0  0.73579  0.92111  0.20920  1.0000
  F   F316      1.0  0.73653  0.92902  0.72085  1.0000
  F   F317      1.0  0.98749  0.42885  0.21551  1.0000
  F   F318      1.0  0.98323  0.43732  0.72852  1.0000
  F   F319      1.0  0.98730  0.89986  0.23061  1.0000
  F   F320      1.0  0.98977  0.90710  0.72751  1.0000
  F   F321      1.0  0.20243  0.47161  0.47959  1.0000
  F   F322      1.0  0.20985  0.45582  0.97535  1.0000
  F   F323      1.0  0.20771  0.96125  0.47756  1.0000
  F   F324      1.0  0.20062  0.96389  0.97945  1.0000
  F   F325      1.0  0.45438  0.47829  0.48258  1.0000
  F   F326      1.0  0.44784  0.47460  0.97085  1.0000
  F   F327      1.0  0.44967  0.96270  0.48318  1.0000
  F   F328      1.0  0.44950  0.97008  0.98503  1.0000
  F   F329      1.0  0.70999  0.47023  0.47409  1.0000
  F   F330      1.0  0.70463  0.46343  0.98078  1.0000
  F   F331      1.0  0.70259  0.97177  0.48805  1.0000
  F   F332      1.0  0.70702  0.97316  0.98044  1.0000
  F   F333      1.0  0.95457  0.47843  0.47949  1.0000
  F   F334      1.0  0.95543  0.47012  0.98113  1.0000
  F   F335      1.0  0.95187  0.97856  0.49065  1.0000
  F   F336      1.0  0.95444  0.97233  0.98222  1.0000
  F   F337      1.0  0.02068  0.07877  0.28699  1.0000
  F   F338      1.0  0.01205  0.11928  0.76452  1.0000
  F   F339      1.0  0.01739  0.56098  0.27202  1.0000
  F   F340      1.0  0.01102  0.58622  0.78603  1.0000
  F   F341      1.0  0.26423  0.06205  0.29180  1.0000
  F   F342      1.0  0.26425  0.08410  0.77415  1.0000
  F   F343      1.0  0.26847  0.58279  0.27864  1.0000
  F   F344      1.0  0.26233  0.58237  0.77891  1.0000
  F   F345      1.0  0.51425  0.07705  0.27115  1.0000
  F   F346      1.0  0.51414  0.08290  0.78717  1.0000
  F   F347      1.0  0.51650  0.57218  0.28574  1.0000
  F   F348      1.0  0.51719  0.58086  0.76797  1.0000
  F   F349      1.0  0.76522  0.09332  0.27460  1.0000
  F   F350      1.0  0.76547  0.08255  0.77217  1.0000
  F   F351      1.0  0.76187  0.59898  0.26029  1.0000
  F   F352      1.0  0.76276  0.58566  0.76844  1.0000
  F   F353      1.0  0.09796  0.41917  0.45461  1.0000
  F   F354      1.0  0.10469  0.40758  0.95086  1.0000
  F   F355      1.0  0.10517  0.92256  0.45784  1.0000
  F   F356      1.0  0.09899  0.91720  0.97203  1.0000
  F   F357      1.0  0.35020  0.39243  0.45906  1.0000
  F   F358      1.0  0.34959  0.39959  0.96167  1.0000
  F   F359      1.0  0.34531  0.90411  0.45687  1.0000
  F   F360      1.0  0.35496  0.91731  0.95726  1.0000
  F   F361      1.0  0.59752  0.40734  0.45609  1.0000
  F   F362      1.0  0.60302  0.40732  0.95757  1.0000
  F   F363      1.0  0.59347  0.91172  0.46879  1.0000
  F   F364      1.0  0.59749  0.90667  0.95802  1.0000
  F   F365      1.0  0.85234  0.39998  0.46144  1.0000
  F   F366      1.0  0.85194  0.41512  0.95539  1.0000
  F   F367      1.0  0.85249  0.91453  0.46014  1.0000
  F   F368      1.0  0.85411  0.91383  0.95619  1.0000
  F   F369      1.0  0.03667  0.30824  0.29336  1.0000
  F   F370      1.0  0.04623  0.30563  0.78613  1.0000
  F   F371      1.0  0.05328  0.79242  0.29445  1.0000
  F   F372      1.0  0.05530  0.79332  0.77508  1.0000
  F   F373      1.0  0.29322  0.29496  0.28525  1.0000
  F   F374      1.0  0.29379  0.29569  0.79438  1.0000
  F   F375      1.0  0.29510  0.79036  0.28408  1.0000
  F   F376      1.0  0.30481  0.79732  0.78512  1.0000
  F   F377      1.0  0.54337  0.30705  0.28833  1.0000
  F   F378      1.0  0.53846  0.29879  0.80001  1.0000
  F   F379      1.0  0.54337  0.79982  0.28305  1.0000
  F   F380      1.0  0.54292  0.78399  0.79586  1.0000
  F   F381      1.0  0.79208  0.30257  0.29165  1.0000
  F   F382      1.0  0.79988  0.29396  0.78648  1.0000
  F   F383      1.0  0.79933  0.79383  0.28229  1.0000
  F   F384      1.0  0.79924  0.80689  0.78746  1.0000
