data_image0
_chemical_formula_structural       Hf96F384
_chemical_formula_sum              "Hf96 F384"
_cell_length_a       31.0412
_cell_length_b       15.5238
_cell_length_c       15.5173
_cell_angle_alpha    63.342
_cell_angle_beta     63.342
_cell_angle_gamma    80.1625

_space_group_name_H-M_alt    "P 1"
_space_group_IT_number       1

loop_
  _space_group_symop_operation_xyz
  'x, y, z'

loop_
  _atom_site_type_symbol
  _atom_site_label
  _atom_site_symmetry_multiplicity
  _atom_site_fract_x
  _atom_site_fract_y
  _atom_site_fract_z
  _atom_site_occupancy
  Hf  Hf1       1.0  0.19171  0.11192  0.37320  1.0000
  Hf  Hf2       1.0  0.19732  0.10549  0.87074  1.0000
  Hf  Hf3       1.0  0.19463  0.61396  0.37448  1.0000
  Hf  Hf4       1.0  0.19473  0.60603  0.87914  1.0000
  Hf  Hf5       1.0  0.44327  0.09924  0.38631  1.0000
  Hf  Hf6       1.0  0.44497  0.10683  0.88025  1.0000
  Hf  Hf7       1.0  0.44918  0.59360  0.37835  1.0000
  Hf  Hf8       1.0  0.45159  0.60359  0.87382  1.0000
  Hf  Hf9       1.0  0.69564  0.10194  0.37400  1.0000
  Hf  Hf10      1.0  0.70153  0.11074  0.86678  1.0000
  Hf  Hf11      1.0  0.69616  0.60435  0.37129  1.0000
  Hf  Hf12      1.0  0.69507  0.60568  0.88060  1.0000
  Hf  Hf13      1.0  0.94614  0.10812  0.37153  1.0000
  Hf  Hf14      1.0  0.94430  0.11209  0.87892  1.0000
  Hf  Hf15      1.0  0.94466  0.60886  0.38186  1.0000
  Hf  Hf16      1.0  0.94380  0.60358  0.88274  1.0000
  Hf  Hf17      1.0  0.05444  0.38703  0.12993  1.0000
  Hf  Hf18      1.0  0.05499  0.39712  0.62206  1.0000
  Hf  Hf19      1.0  0.05321  0.89885  0.11618  1.0000
  Hf  Hf20      1.0  0.05788  0.89226  0.61369  1.0000
  Hf  Hf21      1.0  0.30160  0.38858  0.13605  1.0000
  Hf  Hf22      1.0  0.30723  0.38880  0.62924  1.0000
  Hf  Hf23      1.0  0.30434  0.89109  0.12272  1.0000
  Hf  Hf24      1.0  0.30549  0.88608  0.62703  1.0000
  Hf  Hf25      1.0  0.55437  0.38191  0.13593  1.0000
  Hf  Hf26      1.0  0.55536  0.39301  0.62933  1.0000
  Hf  Hf27      1.0  0.55295  0.89543  0.12369  1.0000
  Hf  Hf28      1.0  0.55444  0.89910  0.62630  1.0000
  Hf  Hf29      1.0  0.80416  0.39499  0.11866  1.0000
  Hf  Hf30      1.0  0.80251  0.39868  0.62196  1.0000
  Hf  Hf31      1.0  0.80344  0.89826  0.12492  1.0000
  Hf  Hf32      1.0  0.80593  0.90682  0.61171  1.0000
  Hf  Hf33      1.0  0.05514  0.17780  0.42527  1.0000
  Hf  Hf34      1.0  0.05633  0.18787  0.91050  1.0000
  Hf  Hf35      1.0  0.05668  0.68735  0.40719  1.0000
  Hf  Hf36      1.0  0.05128  0.69035  0.91252  1.0000
  Hf  Hf37      1.0  0.30365  0.17331  0.42736  1.0000
  Hf  Hf38      1.0  0.30250  0.17804  0.92275  1.0000
  Hf  Hf39      1.0  0.30889  0.68468  0.41461  1.0000
  Hf  Hf40      1.0  0.31380  0.67750  0.92038  1.0000
  Hf  Hf41      1.0  0.55507  0.17660  0.41690  1.0000
  Hf  Hf42      1.0  0.55872  0.18783  0.91141  1.0000
  Hf  Hf43      1.0  0.55524  0.67878  0.42030  1.0000
  Hf  Hf44      1.0  0.55790  0.68082  0.91305  1.0000
  Hf  Hf45      1.0  0.81067  0.19019  0.40251  1.0000
  Hf  Hf46      1.0  0.80431  0.19121  0.91396  1.0000
  Hf  Hf47      1.0  0.80530  0.68375  0.41507  1.0000
  Hf  Hf48      1.0  0.80399  0.68492  0.91605  1.0000
  Hf  Hf49      1.0  0.15825  0.39549  0.32806  1.0000
  Hf  Hf50      1.0  0.16005  0.38786  0.83733  1.0000
  Hf  Hf51      1.0  0.16065  0.89431  0.32406  1.0000
  Hf  Hf52      1.0  0.15675  0.88549  0.83026  1.0000
  Hf  Hf53      1.0  0.40377  0.38294  0.34582  1.0000
  Hf  Hf54      1.0  0.41082  0.38222  0.83427  1.0000
  Hf  Hf55      1.0  0.41236  0.87547  0.34074  1.0000
  Hf  Hf56      1.0  0.41102  0.88571  0.83613  1.0000
  Hf  Hf57      1.0  0.65324  0.38435  0.34409  1.0000
  Hf  Hf58      1.0  0.65939  0.37752  0.83330  1.0000
  Hf  Hf59      1.0  0.65738  0.87994  0.33845  1.0000
  Hf  Hf60      1.0  0.65832  0.89514  0.82862  1.0000
  Hf  Hf61      1.0  0.90636  0.39454  0.32696  1.0000
  Hf  Hf62      1.0  0.90736  0.38794  0.83527  1.0000
  Hf  Hf63      1.0  0.90647  0.88866  0.33266  1.0000
  Hf  Hf64      1.0  0.91233  0.89302  0.82270  1.0000
  Hf  Hf65      1.0  0.19506  0.32366  0.08093  1.0000
  Hf  Hf66      1.0  0.19887  0.32591  0.57579  1.0000
  Hf  Hf67      1.0  0.19366  0.82052  0.07761  1.0000
  Hf  Hf68      1.0  0.19670  0.81094  0.58268  1.0000
  Hf  Hf69      1.0  0.44554  0.31789  0.08550  1.0000
  Hf  Hf70      1.0  0.44555  0.30884  0.58959  1.0000
  Hf  Hf71      1.0  0.44346  0.81670  0.08362  1.0000
  Hf  Hf72      1.0  0.44533  0.80681  0.58728  1.0000
  Hf  Hf73      1.0  0.69412  0.31962  0.08524  1.0000
  Hf  Hf74      1.0  0.69696  0.31317  0.58206  1.0000
  Hf  Hf75      1.0  0.69395  0.82371  0.07923  1.0000
  Hf  Hf76      1.0  0.69561  0.81440  0.59149  1.0000
  Hf  Hf77      1.0  0.94694  0.32493  0.07482  1.0000
  Hf  Hf78      1.0  0.94070  0.32183  0.58808  1.0000
  Hf  Hf79      1.0  0.94418  0.82006  0.08040  1.0000
  Hf  Hf80      1.0  0.94462  0.81672  0.57702  1.0000
  Hf  Hf81      1.0  0.09026  0.11377  0.15990  1.0000
  Hf  Hf82      1.0  0.08759  0.10949  0.67332  1.0000
  Hf  Hf83      1.0  0.08530  0.61987  0.16216  1.0000
  Hf  Hf84      1.0  0.08599  0.61586  0.67057  1.0000
  Hf  Hf85      1.0  0.34316  0.12030  0.16387  1.0000
  Hf  Hf86      1.0  0.34096  0.10766  0.67171  1.0000
  Hf  Hf87      1.0  0.33944  0.60392  0.17934  1.0000
  Hf  Hf88      1.0  0.33890  0.61149  0.67764  1.0000
  Hf  Hf89      1.0  0.59241  0.10666  0.17547  1.0000
  Hf  Hf90      1.0  0.58849  0.11079  0.67229  1.0000
  Hf  Hf91      1.0  0.59071  0.60917  0.16927  1.0000
  Hf  Hf92      1.0  0.59731  0.61177  0.66201  1.0000
  Hf  Hf93      1.0  0.84135  0.11214  0.16577  1.0000
  Hf  Hf94      1.0  0.84178  0.11889  0.65947  1.0000
  Hf  Hf95      1.0  0.83768  0.61712  0.16480  1.0000
  Hf  Hf96      1.0  0.84235  0.61243  0.66981  1.0000
  F   F1        1.0  0.08476  0.13516  0.29851  1.0000
  F   F2        1.0  0.07889  0.11409  0.80697  1.0000
  F   F3        1.0  0.07313  0.62375  0.30475  1.0000
  F   F4        1.0  0.07753  0.63607  0.79781  1.0000
  F   F5        1.0  0.31950  0.10458  0.32635  1.0000
  F   F6        1.0  0.33289  0.11092  0.81649  1.0000
  F   F7        1.0  0.32855  0.61975  0.31628  1.0000
  F   F8        1.0  0.33214  0.61219  0.81772  1.0000
  F   F9        1.0  0.58065  0.11358  0.30808  1.0000
  F   F10       1.0  0.58079  0.13346  0.79811  1.0000
  F   F11       1.0  0.57407  0.60441  0.31959  1.0000
  F   F12       1.0  0.57624  0.60681  0.81201  1.0000
  F   F13       1.0  0.82552  0.12153  0.31000  1.0000
  F   F14       1.0  0.83252  0.13218  0.80857  1.0000
  F   F15       1.0  0.82447  0.62897  0.30241  1.0000
  F   F16       1.0  0.82320  0.61538  0.81864  1.0000
  F   F17       1.0  0.18611  0.35188  0.43931  1.0000
  F   F18       1.0  0.19697  0.34737  0.93632  1.0000
  F   F19       1.0  0.18462  0.83864  0.45813  1.0000
  F   F20       1.0  0.18366  0.84344  0.94265  1.0000
  F   F21       1.0  0.42939  0.34110  0.45133  1.0000
  F   F22       1.0  0.43473  0.33547  0.95556  1.0000
  F   F23       1.0  0.43604  0.83310  0.45241  1.0000
  F   F24       1.0  0.43964  0.83942  0.94732  1.0000
  F   F25       1.0  0.67648  0.34371  0.45334  1.0000
  F   F26       1.0  0.69017  0.34353  0.93185  1.0000
  F   F27       1.0  0.68441  0.84405  0.45423  1.0000
  F   F28       1.0  0.67571  0.83078  0.95634  1.0000
  F   F29       1.0  0.93076  0.33638  0.43935  1.0000
  F   F30       1.0  0.93204  0.34186  0.94421  1.0000
  F   F31       1.0  0.92973  0.83381  0.45549  1.0000
  F   F32       1.0  0.93044  0.83225  0.94842  1.0000
  F   F33       1.0  0.17080  0.37799  0.19532  1.0000
  F   F34       1.0  0.17155  0.38128  0.69501  1.0000
  F   F35       1.0  0.16761  0.87508  0.19129  1.0000
  F   F36       1.0  0.16619  0.85319  0.70419  1.0000
  F   F37       1.0  0.41476  0.37057  0.20012  1.0000
  F   F38       1.0  0.42975  0.38700  0.68176  1.0000
  F   F39       1.0  0.42666  0.87228  0.19561  1.0000
  F   F40       1.0  0.42157  0.84556  0.71703  1.0000
  F   F41       1.0  0.66964  0.36883  0.20475  1.0000
  F   F42       1.0  0.66656  0.35454  0.70187  1.0000
  F   F43       1.0  0.66987  0.86903  0.19668  1.0000
  F   F44       1.0  0.67296  0.87266  0.69221  1.0000
  F   F45       1.0  0.92030  0.38541  0.18332  1.0000
  F   F46       1.0  0.91995  0.39201  0.68147  1.0000
  F   F47       1.0  0.92676  0.88035  0.19115  1.0000
  F   F48       1.0  0.91994  0.86432  0.70218  1.0000
  F   F49       1.0  0.06593  0.17024  0.03754  1.0000
  F   F50       1.0  0.05279  0.14430  0.57950  1.0000
  F   F51       1.0  0.04991  0.65160  0.05993  1.0000
  F   F52       1.0  0.05456  0.66025  0.54704  1.0000
  F   F53       1.0  0.32397  0.18403  0.03912  1.0000
  F   F54       1.0  0.31808  0.15369  0.55363  1.0000
  F   F55       1.0  0.31413  0.66238  0.05954  1.0000
  F   F56       1.0  0.32717  0.67948  0.53913  1.0000
  F   F57       1.0  0.57275  0.16488  0.04552  1.0000
  F   F58       1.0  0.56182  0.14444  0.55398  1.0000
  F   F59       1.0  0.57070  0.66162  0.03671  1.0000
  F   F60       1.0  0.57548  0.66060  0.54442  1.0000
  F   F61       1.0  0.81196  0.15768  0.05630  1.0000
  F   F62       1.0  0.81151  0.15980  0.55479  1.0000
  F   F63       1.0  0.81452  0.66829  0.04336  1.0000
  F   F64       1.0  0.81335  0.65484  0.55301  1.0000
  F   F65       1.0  0.19903  0.20836  0.21120  1.0000
  F   F66       1.0  0.21632  0.21396  0.69862  1.0000
  F   F67       1.0  0.20322  0.71045  0.20719  1.0000
  F   F68       1.0  0.20410  0.68451  0.71730  1.0000
  F   F69       1.0  0.45487  0.20130  0.21557  1.0000
  F   F70       1.0  0.44616  0.20777  0.72919  1.0000
  F   F71       1.0  0.44617  0.69719  0.20667  1.0000
  F   F72       1.0  0.45135  0.68527  0.70184  1.0000
  F   F73       1.0  0.70200  0.19862  0.20734  1.0000
  F   F74       1.0  0.71831  0.20227  0.70272  1.0000
  F   F75       1.0  0.70955  0.70863  0.19738  1.0000
  F   F76       1.0  0.70605  0.69146  0.71071  1.0000
  F   F77       1.0  0.95245  0.18740  0.21199  1.0000
  F   F78       1.0  0.95369  0.20540  0.70735  1.0000
  F   F79       1.0  0.95222  0.70694  0.19113  1.0000
  F   F80       1.0  0.94983  0.70415  0.70667  1.0000
  F   F81       1.0  0.15022  0.07950  0.03262  1.0000
  F   F82       1.0  0.14339  0.10932  0.54124  1.0000
  F   F83       1.0  0.14761  0.59301  0.03583  1.0000
  F   F84       1.0  0.14049  0.61693  0.52900  1.0000
  F   F85       1.0  0.40144  0.09826  0.04733  1.0000
  F   F86       1.0  0.39676  0.08420  0.54057  1.0000
  F   F87       1.0  0.39592  0.57918  0.04839  1.0000
  F   F88       1.0  0.40562  0.57900  0.54183  1.0000
  F   F89       1.0  0.64558  0.08192  0.04550  1.0000
  F   F90       1.0  0.64915  0.10076  0.53314  1.0000
  F   F91       1.0  0.64894  0.59790  0.03499  1.0000
  F   F92       1.0  0.65246  0.58390  0.53044  1.0000
  F   F93       1.0  0.90000  0.11162  0.02622  1.0000
  F   F94       1.0  0.89850  0.09952  0.52655  1.0000
  F   F95       1.0  0.89981  0.58929  0.03046  1.0000
  F   F96       1.0  0.90129  0.60198  0.53690  1.0000
  F   F97       1.0  0.15110  0.19373  0.10921  1.0000
  F   F98       1.0  0.15137  0.21307  0.64399  1.0000
  F   F99       1.0  0.14441  0.70147  0.12858  1.0000
  F   F100      1.0  0.15482  0.69616  0.62696  1.0000
  F   F101      1.0  0.39994  0.21126  0.12424  1.0000
  F   F102      1.0  0.40081  0.18850  0.61687  1.0000
  F   F103      1.0  0.39981  0.70032  0.12094  1.0000
  F   F104      1.0  0.39941  0.69084  0.62440  1.0000
  F   F105      1.0  0.65048  0.20102  0.11913  1.0000
  F   F106      1.0  0.66251  0.18384  0.64011  1.0000
  F   F107      1.0  0.65144  0.68985  0.12968  1.0000
  F   F108      1.0  0.66188  0.68812  0.61618  1.0000
  F   F109      1.0  0.89646  0.21299  0.12633  1.0000
  F   F110      1.0  0.90082  0.19381  0.62735  1.0000
  F   F111      1.0  0.90154  0.69169  0.12259  1.0000
  F   F112      1.0  0.89932  0.69635  0.63471  1.0000
  F   F113      1.0  0.09695  0.28864  0.39082  1.0000
  F   F114      1.0  0.09669  0.30881  0.86291  1.0000
  F   F115      1.0  0.10575  0.80236  0.37316  1.0000
  F   F116      1.0  0.09132  0.80664  0.88532  1.0000
  F   F117      1.0  0.34672  0.30286  0.38160  1.0000
  F   F118      1.0  0.35712  0.29950  0.85206  1.0000
  F   F119      1.0  0.35538  0.80601  0.34974  1.0000
  F   F120      1.0  0.35235  0.79800  0.88361  1.0000
  F   F121      1.0  0.59627  0.29147  0.38852  1.0000
  F   F122      1.0  0.59899  0.31173  0.85834  1.0000
  F   F123      1.0  0.60219  0.80007  0.37628  1.0000
  F   F124      1.0  0.60609  0.81846  0.84364  1.0000
  F   F125      1.0  0.85299  0.29451  0.38357  1.0000
  F   F126      1.0  0.84708  0.30733  0.88367  1.0000
  F   F127      1.0  0.84766  0.80547  0.37249  1.0000
  F   F128      1.0  0.85007  0.80581  0.87426  1.0000
  F   F129      1.0  0.06318  0.24226  0.14730  1.0000
  F   F130      1.0  0.07091  0.25116  0.62451  1.0000
  F   F131      1.0  0.05554  0.75130  0.13870  1.0000
  F   F132      1.0  0.06796  0.74973  0.63484  1.0000
  F   F133      1.0  0.30231  0.24140  0.16882  1.0000
  F   F134      1.0  0.31076  0.25003  0.65053  1.0000
  F   F135      1.0  0.31725  0.76047  0.13123  1.0000
  F   F136      1.0  0.30320  0.73845  0.67237  1.0000
  F   F137      1.0  0.56695  0.24833  0.15582  1.0000
  F   F138      1.0  0.58246  0.25371  0.62933  1.0000
  F   F139      1.0  0.57242  0.74983  0.14080  1.0000
  F   F140      1.0  0.56994  0.75302  0.64559  1.0000
  F   F141      1.0  0.80821  0.25098  0.14383  1.0000
  F   F142      1.0  0.81406  0.25596  0.64516  1.0000
  F   F143      1.0  0.81931  0.75729  0.13118  1.0000
  F   F144      1.0  0.80944  0.74985  0.65433  1.0000
  F   F145      1.0  0.12551  0.36861  0.11549  1.0000
  F   F146      1.0  0.12339  0.38769  0.60706  1.0000
  F   F147      1.0  0.12223  0.87399  0.10397  1.0000
  F   F148      1.0  0.12468  0.86904  0.60147  1.0000
  F   F149      1.0  0.36862  0.37930  0.11406  1.0000
  F   F150      1.0  0.37460  0.36001  0.62572  1.0000
  F   F151      1.0  0.37187  0.87759  0.10322  1.0000
  F   F152      1.0  0.37640  0.87572  0.60059  1.0000
  F   F153      1.0  0.62810  0.37703  0.10293  1.0000
  F   F154      1.0  0.62797  0.38029  0.60045  1.0000
  F   F155      1.0  0.62203  0.89347  0.09893  1.0000
  F   F156      1.0  0.62103  0.87118  0.62414  1.0000
  F   F157      1.0  0.87937  0.39907  0.08095  1.0000
  F   F158      1.0  0.87129  0.36065  0.61258  1.0000
  F   F159      1.0  0.87213  0.86403  0.11771  1.0000
  F   F160      1.0  0.87378  0.87257  0.61322  1.0000
  F   F161      1.0  0.18382  0.24877  0.35499  1.0000
  F   F162      1.0  0.17680  0.23795  0.87951  1.0000
  F   F163      1.0  0.19454  0.76082  0.33705  1.0000
  F   F164      1.0  0.18138  0.74296  0.86825  1.0000
  F   F165      1.0  0.42893  0.24000  0.36209  1.0000
  F   F166      1.0  0.43942  0.25510  0.84446  1.0000
  F   F167      1.0  0.43847  0.74291  0.36115  1.0000
  F   F168      1.0  0.43662  0.73437  0.87262  1.0000
  F   F169      1.0  0.67914  0.23522  0.36927  1.0000
  F   F170      1.0  0.68491  0.24435  0.86080  1.0000
  F   F171      1.0  0.69039  0.74704  0.34881  1.0000
  F   F172      1.0  0.68995  0.75797  0.83666  1.0000
  F   F173      1.0  0.93507  0.24659  0.35045  1.0000
  F   F174      1.0  0.93572  0.26321  0.84003  1.0000
  F   F175      1.0  0.93548  0.75646  0.35015  1.0000
  F   F176      1.0  0.93748  0.74820  0.84986  1.0000
  F   F177      1.0  0.12027  0.11333  0.41372  1.0000
  F   F178      1.0  0.12335  0.12388  0.88436  1.0000
  F   F179      1.0  0.12473  0.64247  0.37455  1.0000
  F   F180      1.0  0.11999  0.63750  0.89436  1.0000
  F   F181      1.0  0.37373  0.12156  0.39226  1.0000
  F   F182      1.0  0.37544  0.12255  0.90149  1.0000
  F   F183      1.0  0.37803  0.62948  0.39591  1.0000
  F   F184      1.0  0.38314  0.63623  0.87802  1.0000
  F   F185      1.0  0.61999  0.11493  0.40055  1.0000
  F   F186      1.0  0.62716  0.14312  0.87998  1.0000
  F   F187      1.0  0.62400  0.64218  0.37697  1.0000
  F   F188      1.0  0.62761  0.63124  0.88243  1.0000
  F   F189      1.0  0.87773  0.14059  0.36435  1.0000
  F   F190      1.0  0.87580  0.13154  0.89809  1.0000
  F   F191      1.0  0.87623  0.63282  0.38763  1.0000
  F   F192      1.0  0.87096  0.62544  0.90187  1.0000
  F   F193      1.0  0.00674  0.36045  0.07269  1.0000
  F   F194      1.0  0.00793  0.35615  0.58272  1.0000
  F   F195      1.0  0.01015  0.87154  0.05646  1.0000
  F   F196      1.0  0.00651  0.86747  0.56870  1.0000
  F   F197      1.0  0.25725  0.35924  0.06720  1.0000
  F   F198      1.0  0.25851  0.38825  0.55665  1.0000
  F   F199      1.0  0.25621  0.87054  0.06261  1.0000
  F   F200      1.0  0.25469  0.86762  0.57249  1.0000
  F   F201      1.0  0.50663  0.35396  0.08856  1.0000
  F   F202      1.0  0.51104  0.34019  0.59002  1.0000
  F   F203      1.0  0.50959  0.85480  0.06995  1.0000
  F   F204      1.0  0.50881  0.83976  0.59017  1.0000
  F   F205      1.0  0.75892  0.35830  0.06914  1.0000
  F   F206      1.0  0.75852  0.36666  0.57356  1.0000
  F   F207      1.0  0.75872  0.85297  0.07890  1.0000
  F   F208      1.0  0.75817  0.87424  0.56532  1.0000
  F   F209      1.0  0.06594  0.48517  0.18108  1.0000
  F   F210      1.0  0.05901  0.48717  0.68722  1.0000
  F   F211      1.0  0.07143  0.99102  0.15645  1.0000
  F   F212      1.0  0.06859  0.97837  0.67443  1.0000
  F   F213      1.0  0.30712  0.48940  0.18894  1.0000
  F   F214      1.0  0.32462  0.49237  0.65664  1.0000
  F   F215      1.0  0.32163  0.99619  0.16667  1.0000
  F   F216      1.0  0.32023  0.96897  0.68547  1.0000
  F   F217      1.0  0.56481  0.47645  0.19782  1.0000
  F   F218      1.0  0.56761  0.48946  0.68418  1.0000
  F   F219      1.0  0.55999  0.97480  0.19646  1.0000
  F   F220      1.0  0.56471  0.98155  0.69144  1.0000
  F   F221      1.0  0.81883  0.49390  0.17310  1.0000
  F   F222      1.0  0.81540  0.48281  0.67980  1.0000
  F   F223      1.0  0.82210  0.97930  0.18239  1.0000
  F   F224      1.0  0.81394  0.98782  0.67583  1.0000
  F   F225      1.0  0.23439  0.13774  0.44584  1.0000
  F   F226      1.0  0.24470  0.14101  0.90383  1.0000
  F   F227      1.0  0.24380  0.64307  0.41505  1.0000
  F   F228      1.0  0.24923  0.62112  0.92056  1.0000
  F   F229      1.0  0.49384  0.14170  0.42565  1.0000
  F   F230      1.0  0.49523  0.12947  0.93011  1.0000
  F   F231      1.0  0.49484  0.62893  0.42564  1.0000
  F   F232      1.0  0.49208  0.63366  0.93816  1.0000
  F   F233      1.0  0.74157  0.15286  0.41405  1.0000
  F   F234      1.0  0.73653  0.14877  0.93034  1.0000
  F   F235      1.0  0.74337  0.64932  0.42014  1.0000
  F   F236      1.0  0.74047  0.63866  0.93280  1.0000
  F   F237      1.0  0.99129  0.13675  0.42834  1.0000
  F   F238      1.0  0.99655  0.15256  0.90252  1.0000
  F   F239      1.0  0.99535  0.64299  0.41292  1.0000
  F   F240      1.0  0.98936  0.61666  0.94918  1.0000
  F   F241      1.0  0.17804  0.00947  0.33233  1.0000
  F   F242      1.0  0.18438  0.01295  0.82407  1.0000
  F   F243      1.0  0.18435  0.52826  0.30343  1.0000
  F   F244      1.0  0.17576  0.50899  0.82830  1.0000
  F   F245      1.0  0.42736  0.00610  0.33653  1.0000
  F   F246      1.0  0.42988  0.01084  0.83940  1.0000
  F   F247      1.0  0.43022  0.50513  0.32984  1.0000
  F   F248      1.0  0.43318  0.50564  0.83636  1.0000
  F   F249      1.0  0.68390  0.01224  0.31179  1.0000
  F   F250      1.0  0.68240  0.02212  0.81490  1.0000
  F   F251      1.0  0.68230  0.51452  0.31917  1.0000
  F   F252      1.0  0.67550  0.50867  0.83545  1.0000
  F   F253      1.0  0.93384  0.00728  0.32320  1.0000
  F   F254      1.0  0.93092  0.01229  0.82982  1.0000
  F   F255      1.0  0.93826  0.51556  0.31511  1.0000
  F   F256      1.0  0.93137  0.52050  0.81667  1.0000
  F   F257      1.0  0.00320  0.25786  0.98929  1.0000
  F   F258      1.0  0.00174  0.26348  0.49467  1.0000
  F   F259      1.0  0.99902  0.77588  0.97538  1.0000
  F   F260      1.0  0.00036  0.76401  0.47053  1.0000
  F   F261      1.0  0.24511  0.22554  0.02859  1.0000
  F   F262      1.0  0.25271  0.24824  0.51035  1.0000
  F   F263      1.0  0.24974  0.74721  0.99457  1.0000
  F   F264      1.0  0.25082  0.74397  0.49953  1.0000
  F   F265      1.0  0.50264  0.25864  0.99413  1.0000
  F   F266      1.0  0.49410  0.23569  0.51805  1.0000
  F   F267      1.0  0.50110  0.74573  0.00902  1.0000
  F   F268      1.0  0.49933  0.73042  0.51449  1.0000
  F   F269      1.0  0.75120  0.26060  0.99434  1.0000
  F   F270      1.0  0.75692  0.26319  0.48340  1.0000
  F   F271      1.0  0.74786  0.77290  0.98829  1.0000
  F   F272      1.0  0.75467  0.76335  0.49519  1.0000
  F   F273      1.0  0.12213  0.99742  0.24921  1.0000
  F   F274      1.0  0.13143  0.99613  0.73756  1.0000
  F   F275      1.0  0.12523  0.51118  0.24083  1.0000
  F   F276      1.0  0.12325  0.50184  0.74755  1.0000
  F   F277      1.0  0.37488  0.00791  0.24187  1.0000
  F   F278      1.0  0.38033  0.99966  0.74187  1.0000
  F   F279      1.0  0.36369  0.48190  0.26690  1.0000
  F   F280      1.0  0.37559  0.49236  0.75917  1.0000
  F   F281      1.0  0.62980  0.00420  0.24596  1.0000
  F   F282      1.0  0.62548  0.00465  0.74361  1.0000
  F   F283      1.0  0.62646  0.50475  0.24454  1.0000
  F   F284      1.0  0.63127  0.50489  0.73294  1.0000
  F   F285      1.0  0.89083  0.01570  0.21501  1.0000
  F   F286      1.0  0.87434  0.99794  0.74251  1.0000
  F   F287      1.0  0.87475  0.50784  0.25131  1.0000
  F   F288      1.0  0.86372  0.48704  0.76882  1.0000
  F   F289      1.0  0.03045  0.02970  0.03880  1.0000
  F   F290      1.0  0.04099  0.02972  0.51966  1.0000
  F   F291      1.0  0.04492  0.52051  0.01807  1.0000
  F   F292      1.0  0.04480  0.53492  0.50951  1.0000
  F   F293      1.0  0.29058  0.03731  0.02975  1.0000
  F   F294      1.0  0.29475  0.01323  0.51996  1.0000
  F   F295      1.0  0.29153  0.52404  0.03138  1.0000
  F   F296      1.0  0.29605  0.54610  0.51606  1.0000
  F   F297      1.0  0.54427  0.02853  0.03029  1.0000
  F   F298      1.0  0.53420  0.02321  0.53312  1.0000
  F   F299      1.0  0.54606  0.51432  0.03705  1.0000
  F   F300      1.0  0.54203  0.53123  0.53828  1.0000
  F   F301      1.0  0.78921  0.03893  0.03466  1.0000
  F   F302      1.0  0.79067  0.04449  0.51569  1.0000
  F   F303      1.0  0.79371  0.53017  0.03272  1.0000
  F   F304      1.0  0.79254  0.52975  0.52071  1.0000
  F   F305      1.0  0.23308  0.40754  0.22837  1.0000
  F   F306      1.0  0.23950  0.40107  0.72706  1.0000
  F   F307      1.0  0.23619  0.92063  0.22410  1.0000
  F   F308      1.0  0.23453  0.90552  0.73284  1.0000
  F   F309      1.0  0.48529  0.38705  0.24832  1.0000
  F   F310      1.0  0.48478  0.42115  0.72505  1.0000
  F   F311      1.0  0.48463  0.90405  0.22672  1.0000
  F   F312      1.0  0.48484  0.91479  0.72834  1.0000
  F   F313      1.0  0.73473  0.38820  0.24148  1.0000
  F   F314      1.0  0.72805  0.41927  0.72692  1.0000
  F   F315      1.0  0.73532  0.90414  0.24442  1.0000
  F   F316      1.0  0.73177  0.91307  0.72864  1.0000
  F   F317      1.0  0.98754  0.42025  0.21423  1.0000
  F   F318      1.0  0.98279  0.41461  0.71690  1.0000
  F   F319      1.0  0.98620  0.91363  0.23098  1.0000
  F   F320      1.0  0.98283  0.92370  0.71867  1.0000
  F   F321      1.0  0.19876  0.48117  0.48039  1.0000
  F   F322      1.0  0.19843  0.47539  0.98558  1.0000
  F   F323      1.0  0.20221  0.97916  0.47788  1.0000
  F   F324      1.0  0.20718  0.96658  0.96906  1.0000
  F   F325      1.0  0.46522  0.45973  0.46740  1.0000
  F   F326      1.0  0.46237  0.46419  0.97541  1.0000
  F   F327      1.0  0.46186  0.96385  0.48144  1.0000
  F   F328      1.0  0.45657  0.97952  0.98871  1.0000
  F   F329      1.0  0.71955  0.46553  0.46952  1.0000
  F   F330      1.0  0.71022  0.48105  0.97216  1.0000
  F   F331      1.0  0.70941  0.96912  0.46803  1.0000
  F   F332      1.0  0.70382  0.96809  0.98015  1.0000
  F   F333      1.0  0.95539  0.46521  0.47717  1.0000
  F   F334      1.0  0.96533  0.46684  0.95182  1.0000
  F   F335      1.0  0.95651  0.97395  0.46904  1.0000
  F   F336      1.0  0.94492  0.97365  0.97906  1.0000
  F   F337      1.0  0.01493  0.09126  0.26762  1.0000
  F   F338      1.0  0.01477  0.08953  0.77870  1.0000
  F   F339      1.0  0.01118  0.60470  0.26960  1.0000
  F   F340      1.0  0.01494  0.60075  0.77137  1.0000
  F   F341      1.0  0.25998  0.08276  0.27729  1.0000
  F   F342      1.0  0.26997  0.07790  0.77039  1.0000
  F   F343      1.0  0.26439  0.59974  0.26483  1.0000
  F   F344      1.0  0.26532  0.57623  0.77860  1.0000
  F   F345      1.0  0.51423  0.07957  0.28430  1.0000
  F   F346      1.0  0.51245  0.10202  0.75921  1.0000
  F   F347      1.0  0.51410  0.60503  0.24819  1.0000
  F   F348      1.0  0.51633  0.58250  0.77504  1.0000
  F   F349      1.0  0.76314  0.08852  0.27422  1.0000
  F   F350      1.0  0.77359  0.07205  0.78153  1.0000
  F   F351      1.0  0.76288  0.58629  0.27486  1.0000
  F   F352      1.0  0.76249  0.58916  0.76139  1.0000
  F   F353      1.0  0.09830  0.40893  0.44993  1.0000
  F   F354      1.0  0.10133  0.39164  0.96174  1.0000
  F   F355      1.0  0.09903  0.90870  0.45853  1.0000
  F   F356      1.0  0.10179  0.91286  0.95134  1.0000
  F   F357      1.0  0.34840  0.41032  0.47192  1.0000
  F   F358      1.0  0.35300  0.40029  0.96301  1.0000
  F   F359      1.0  0.35226  0.87993  0.47060  1.0000
  F   F360      1.0  0.35124  0.91640  0.95381  1.0000
  F   F361      1.0  0.60111  0.41884  0.46227  1.0000
  F   F362      1.0  0.59916  0.38969  0.96537  1.0000
  F   F363      1.0  0.60347  0.91077  0.45962  1.0000
  F   F364      1.0  0.59948  0.92031  0.94489  1.0000
  F   F365      1.0  0.84796  0.42136  0.45789  1.0000
  F   F366      1.0  0.85001  0.41293  0.96341  1.0000
  F   F367      1.0  0.84585  0.92292  0.46090  1.0000
  F   F368      1.0  0.85027  0.91755  0.95831  1.0000
  F   F369      1.0  0.03896  0.30946  0.28955  1.0000
  F   F370      1.0  0.04807  0.29628  0.77804  1.0000
  F   F371      1.0  0.04982  0.80471  0.27929  1.0000
  F   F372      1.0  0.03870  0.79195  0.78677  1.0000
  F   F373      1.0  0.29096  0.28089  0.30379  1.0000
  F   F374      1.0  0.29356  0.29918  0.80107  1.0000
  F   F375      1.0  0.29533  0.80790  0.28237  1.0000
  F   F376      1.0  0.30326  0.78905  0.80070  1.0000
  F   F377      1.0  0.55839  0.29582  0.28560  1.0000
  F   F378      1.0  0.54481  0.30501  0.78496  1.0000
  F   F379      1.0  0.55124  0.78859  0.28664  1.0000
  F   F380      1.0  0.54047  0.79291  0.79874  1.0000
  F   F381      1.0  0.80802  0.30043  0.28487  1.0000
  F   F382      1.0  0.79408  0.29969  0.78521  1.0000
  F   F383      1.0  0.79573  0.79057  0.28845  1.0000
  F   F384      1.0  0.80146  0.79563  0.78211  1.0000
