data_image0
_chemical_formula_structural       Hf96F384
_chemical_formula_sum              "Hf96 F384"
_cell_length_a       31.0222
_cell_length_b       15.5126
_cell_length_c       15.5047
_cell_angle_alpha    63.342
_cell_angle_beta     63.342
_cell_angle_gamma    80.1625

_space_group_name_H-M_alt    "P 1"
_space_group_IT_number       1

loop_
  _space_group_symop_operation_xyz
  'x, y, z'

loop_
  _atom_site_type_symbol
  _atom_site_label
  _atom_site_symmetry_multiplicity
  _atom_site_fract_x
  _atom_site_fract_y
  _atom_site_fract_z
  _atom_site_occupancy
  Hf  Hf1       1.0  0.19450  0.11226  0.37076  1.0000
  Hf  Hf2       1.0  0.19440  0.10805  0.87621  1.0000
  Hf  Hf3       1.0  0.19440  0.61003  0.37751  1.0000
  Hf  Hf4       1.0  0.19263  0.61082  0.86905  1.0000
  Hf  Hf5       1.0  0.44729  0.10624  0.37458  1.0000
  Hf  Hf6       1.0  0.45140  0.10842  0.86486  1.0000
  Hf  Hf7       1.0  0.44415  0.60932  0.36926  1.0000
  Hf  Hf8       1.0  0.44859  0.60091  0.87551  1.0000
  Hf  Hf9       1.0  0.69681  0.09840  0.37758  1.0000
  Hf  Hf10      1.0  0.69738  0.09680  0.88821  1.0000
  Hf  Hf11      1.0  0.69707  0.60892  0.36848  1.0000
  Hf  Hf12      1.0  0.69735  0.60053  0.88680  1.0000
  Hf  Hf13      1.0  0.94929  0.10660  0.36939  1.0000
  Hf  Hf14      1.0  0.94761  0.11202  0.87602  1.0000
  Hf  Hf15      1.0  0.94451  0.61014  0.38012  1.0000
  Hf  Hf16      1.0  0.94476  0.60445  0.87741  1.0000
  Hf  Hf17      1.0  0.05468  0.40411  0.11560  1.0000
  Hf  Hf18      1.0  0.05283  0.39820  0.61249  1.0000
  Hf  Hf19      1.0  0.05331  0.89742  0.12029  1.0000
  Hf  Hf20      1.0  0.05355  0.90558  0.61566  1.0000
  Hf  Hf21      1.0  0.30457  0.39020  0.12479  1.0000
  Hf  Hf22      1.0  0.30770  0.39818  0.61802  1.0000
  Hf  Hf23      1.0  0.30367  0.88717  0.11721  1.0000
  Hf  Hf24      1.0  0.30257  0.90592  0.62486  1.0000
  Hf  Hf25      1.0  0.55685  0.39254  0.12101  1.0000
  Hf  Hf26      1.0  0.55429  0.39350  0.62295  1.0000
  Hf  Hf27      1.0  0.55269  0.88694  0.12811  1.0000
  Hf  Hf28      1.0  0.55554  0.88840  0.63014  1.0000
  Hf  Hf29      1.0  0.80083  0.39337  0.12947  1.0000
  Hf  Hf30      1.0  0.80435  0.40044  0.62295  1.0000
  Hf  Hf31      1.0  0.80217  0.88857  0.13151  1.0000
  Hf  Hf32      1.0  0.80156  0.89223  0.63440  1.0000
  Hf  Hf33      1.0  0.05770  0.19451  0.40433  1.0000
  Hf  Hf34      1.0  0.05736  0.18751  0.91623  1.0000
  Hf  Hf35      1.0  0.05606  0.68662  0.41188  1.0000
  Hf  Hf36      1.0  0.05334  0.68928  0.91418  1.0000
  Hf  Hf37      1.0  0.30366  0.18682  0.41160  1.0000
  Hf  Hf38      1.0  0.30533  0.18321  0.91729  1.0000
  Hf  Hf39      1.0  0.30450  0.68125  0.42039  1.0000
  Hf  Hf40      1.0  0.30519  0.67648  0.91198  1.0000
  Hf  Hf41      1.0  0.55326  0.18408  0.42268  1.0000
  Hf  Hf42      1.0  0.55316  0.17551  0.92310  1.0000
  Hf  Hf43      1.0  0.55325  0.67733  0.42911  1.0000
  Hf  Hf44      1.0  0.55636  0.68128  0.91845  1.0000
  Hf  Hf45      1.0  0.80351  0.18089  0.41754  1.0000
  Hf  Hf46      1.0  0.80850  0.18294  0.91631  1.0000
  Hf  Hf47      1.0  0.80555  0.68292  0.41488  1.0000
  Hf  Hf48      1.0  0.80989  0.68841  0.91578  1.0000
  Hf  Hf49      1.0  0.15973  0.39687  0.33241  1.0000
  Hf  Hf50      1.0  0.15909  0.39774  0.82002  1.0000
  Hf  Hf51      1.0  0.16040  0.88956  0.32816  1.0000
  Hf  Hf52      1.0  0.15454  0.89085  0.83399  1.0000
  Hf  Hf53      1.0  0.40578  0.38736  0.33162  1.0000
  Hf  Hf54      1.0  0.41095  0.38522  0.83302  1.0000
  Hf  Hf55      1.0  0.40949  0.88760  0.33025  1.0000
  Hf  Hf56      1.0  0.41187  0.88013  0.83346  1.0000
  Hf  Hf57      1.0  0.65899  0.38618  0.33285  1.0000
  Hf  Hf58      1.0  0.66005  0.37915  0.84062  1.0000
  Hf  Hf59      1.0  0.66110  0.88332  0.33928  1.0000
  Hf  Hf60      1.0  0.65732  0.87633  0.83831  1.0000
  Hf  Hf61      1.0  0.90970  0.38292  0.33795  1.0000
  Hf  Hf62      1.0  0.91013  0.38989  0.83173  1.0000
  Hf  Hf63      1.0  0.90987  0.89216  0.33268  1.0000
  Hf  Hf64      1.0  0.91031  0.88975  0.83176  1.0000
  Hf  Hf65      1.0  0.19728  0.32747  0.07383  1.0000
  Hf  Hf66      1.0  0.19470  0.32310  0.57631  1.0000
  Hf  Hf67      1.0  0.19251  0.81673  0.08679  1.0000
  Hf  Hf68      1.0  0.19190  0.82168  0.57787  1.0000
  Hf  Hf69      1.0  0.44504  0.31703  0.08680  1.0000
  Hf  Hf70      1.0  0.44493  0.32411  0.57692  1.0000
  Hf  Hf71      1.0  0.44473  0.81840  0.07815  1.0000
  Hf  Hf72      1.0  0.44429  0.82108  0.58111  1.0000
  Hf  Hf73      1.0  0.69501  0.31390  0.08315  1.0000
  Hf  Hf74      1.0  0.69402  0.31682  0.58462  1.0000
  Hf  Hf75      1.0  0.69156  0.81942  0.08468  1.0000
  Hf  Hf76      1.0  0.69648  0.80855  0.59129  1.0000
  Hf  Hf77      1.0  0.94167  0.31452  0.08529  1.0000
  Hf  Hf78      1.0  0.94747  0.31620  0.58238  1.0000
  Hf  Hf79      1.0  0.94312  0.81256  0.09034  1.0000
  Hf  Hf80      1.0  0.94243  0.80742  0.59592  1.0000
  Hf  Hf81      1.0  0.09653  0.11679  0.15676  1.0000
  Hf  Hf82      1.0  0.09151  0.11474  0.66537  1.0000
  Hf  Hf83      1.0  0.09016  0.61803  0.16469  1.0000
  Hf  Hf84      1.0  0.08878  0.61217  0.67264  1.0000
  Hf  Hf85      1.0  0.33737  0.10432  0.16685  1.0000
  Hf  Hf86      1.0  0.34312  0.11634  0.66564  1.0000
  Hf  Hf87      1.0  0.34133  0.60960  0.16328  1.0000
  Hf  Hf88      1.0  0.33883  0.61119  0.66882  1.0000
  Hf  Hf89      1.0  0.59042  0.09938  0.17856  1.0000
  Hf  Hf90      1.0  0.59487  0.10218  0.67296  1.0000
  Hf  Hf91      1.0  0.59102  0.60912  0.16917  1.0000
  Hf  Hf92      1.0  0.59253  0.60714  0.66893  1.0000
  Hf  Hf93      1.0  0.83871  0.11391  0.16604  1.0000
  Hf  Hf94      1.0  0.84521  0.11523  0.66521  1.0000
  Hf  Hf95      1.0  0.84121  0.60601  0.17401  1.0000
  Hf  Hf96      1.0  0.84256  0.61697  0.66153  1.0000
  F   F1        1.0  0.08323  0.13789  0.29411  1.0000
  F   F2        1.0  0.08474  0.13455  0.79716  1.0000
  F   F3        1.0  0.08310  0.63100  0.30077  1.0000
  F   F4        1.0  0.07050  0.62908  0.80551  1.0000
  F   F5        1.0  0.32849  0.12998  0.30165  1.0000
  F   F6        1.0  0.32517  0.11816  0.81449  1.0000
  F   F7        1.0  0.33362  0.63650  0.29872  1.0000
  F   F8        1.0  0.32352  0.60475  0.81414  1.0000
  F   F9        1.0  0.57533  0.12925  0.30945  1.0000
  F   F10       1.0  0.57859  0.11769  0.81137  1.0000
  F   F11       1.0  0.57718  0.62769  0.30295  1.0000
  F   F12       1.0  0.58353  0.63786  0.79539  1.0000
  F   F13       1.0  0.82545  0.12438  0.30876  1.0000
  F   F14       1.0  0.83254  0.12903  0.80695  1.0000
  F   F15       1.0  0.83572  0.62438  0.30186  1.0000
  F   F16       1.0  0.83189  0.63199  0.80209  1.0000
  F   F17       1.0  0.18095  0.33939  0.45586  1.0000
  F   F18       1.0  0.18274  0.34288  0.94341  1.0000
  F   F19       1.0  0.17865  0.84133  0.45261  1.0000
  F   F20       1.0  0.18302  0.83840  0.94887  1.0000
  F   F21       1.0  0.43709  0.35204  0.44264  1.0000
  F   F22       1.0  0.43036  0.32742  0.95934  1.0000
  F   F23       1.0  0.42420  0.83062  0.45993  1.0000
  F   F24       1.0  0.43899  0.85063  0.93131  1.0000
  F   F25       1.0  0.68435  0.35086  0.44095  1.0000
  F   F26       1.0  0.69005  0.34113  0.94304  1.0000
  F   F27       1.0  0.67958  0.82480  0.46154  1.0000
  F   F28       1.0  0.69047  0.83226  0.93606  1.0000
  F   F29       1.0  0.94026  0.34098  0.43813  1.0000
  F   F30       1.0  0.94296  0.34501  0.93878  1.0000
  F   F31       1.0  0.94134  0.85313  0.43672  1.0000
  F   F32       1.0  0.93386  0.84156  0.95065  1.0000
  F   F33       1.0  0.17198  0.37996  0.19349  1.0000
  F   F34       1.0  0.17315  0.38175  0.68701  1.0000
  F   F35       1.0  0.17433  0.88231  0.19135  1.0000
  F   F36       1.0  0.16579  0.86275  0.70424  1.0000
  F   F37       1.0  0.41931  0.37718  0.19106  1.0000
  F   F38       1.0  0.41716  0.35579  0.70607  1.0000
  F   F39       1.0  0.42609  0.88283  0.19461  1.0000
  F   F40       1.0  0.41905  0.85508  0.70786  1.0000
  F   F41       1.0  0.66832  0.35903  0.20572  1.0000
  F   F42       1.0  0.67314  0.36880  0.70417  1.0000
  F   F43       1.0  0.66992  0.86898  0.19371  1.0000
  F   F44       1.0  0.67064  0.87806  0.69217  1.0000
  F   F45       1.0  0.92489  0.37849  0.18432  1.0000
  F   F46       1.0  0.92367  0.37160  0.68821  1.0000
  F   F47       1.0  0.92497  0.86960  0.19414  1.0000
  F   F48       1.0  0.91807  0.86133  0.70828  1.0000
  F   F49       1.0  0.06467  0.15102  0.05856  1.0000
  F   F50       1.0  0.06550  0.16667  0.55153  1.0000
  F   F51       1.0  0.06740  0.66042  0.05283  1.0000
  F   F52       1.0  0.06330  0.65868  0.55871  1.0000
  F   F53       1.0  0.30390  0.15043  0.06573  1.0000
  F   F54       1.0  0.32274  0.16919  0.53710  1.0000
  F   F55       1.0  0.31650  0.65059  0.04822  1.0000
  F   F56       1.0  0.30403  0.64612  0.57085  1.0000
  F   F57       1.0  0.56559  0.14298  0.05685  1.0000
  F   F58       1.0  0.57164  0.16218  0.55332  1.0000
  F   F59       1.0  0.55682  0.65943  0.05491  1.0000
  F   F60       1.0  0.56175  0.65246  0.55950  1.0000
  F   F61       1.0  0.81629  0.17951  0.04450  1.0000
  F   F62       1.0  0.81336  0.16656  0.56015  1.0000
  F   F63       1.0  0.82586  0.67096  0.04440  1.0000
  F   F64       1.0  0.81112  0.65865  0.56327  1.0000
  F   F65       1.0  0.20408  0.20635  0.20991  1.0000
  F   F66       1.0  0.18753  0.19747  0.71594  1.0000
  F   F67       1.0  0.20058  0.70796  0.20930  1.0000
  F   F68       1.0  0.20580  0.70263  0.69902  1.0000
  F   F69       1.0  0.46509  0.21019  0.22062  1.0000
  F   F70       1.0  0.46360  0.20212  0.69617  1.0000
  F   F71       1.0  0.45047  0.69362  0.19806  1.0000
  F   F72       1.0  0.45945  0.69066  0.71536  1.0000
  F   F73       1.0  0.71065  0.20980  0.21186  1.0000
  F   F74       1.0  0.69641  0.19794  0.71897  1.0000
  F   F75       1.0  0.70969  0.70390  0.20785  1.0000
  F   F76       1.0  0.70275  0.68710  0.72196  1.0000
  F   F77       1.0  0.95626  0.20246  0.21303  1.0000
  F   F78       1.0  0.95561  0.20225  0.70984  1.0000
  F   F79       1.0  0.95423  0.69966  0.21974  1.0000
  F   F80       1.0  0.95471  0.69005  0.71849  1.0000
  F   F81       1.0  0.15111  0.09241  0.04155  1.0000
  F   F82       1.0  0.14383  0.08489  0.53215  1.0000
  F   F83       1.0  0.14735  0.58882  0.02935  1.0000
  F   F84       1.0  0.14594  0.59261  0.53141  1.0000
  F   F85       1.0  0.40075  0.09560  0.04917  1.0000
  F   F86       1.0  0.40210  0.09878  0.54172  1.0000
  F   F87       1.0  0.39911  0.57357  0.03785  1.0000
  F   F88       1.0  0.39696  0.61802  0.53507  1.0000
  F   F89       1.0  0.65581  0.08174  0.05015  1.0000
  F   F90       1.0  0.64928  0.08252  0.54472  1.0000
  F   F91       1.0  0.65010  0.60300  0.03578  1.0000
  F   F92       1.0  0.64902  0.58868  0.52668  1.0000
  F   F93       1.0  0.89935  0.11147  0.03531  1.0000
  F   F94       1.0  0.89619  0.10090  0.53443  1.0000
  F   F95       1.0  0.90640  0.58912  0.04546  1.0000
  F   F96       1.0  0.89911  0.58022  0.54669  1.0000
  F   F97       1.0  0.15563  0.20240  0.12180  1.0000
  F   F98       1.0  0.14997  0.19853  0.60930  1.0000
  F   F99       1.0  0.14711  0.70051  0.12338  1.0000
  F   F100      1.0  0.14569  0.69284  0.63306  1.0000
  F   F101      1.0  0.40550  0.19871  0.15568  1.0000
  F   F102      1.0  0.40511  0.19289  0.63177  1.0000
  F   F103      1.0  0.39670  0.69602  0.11092  1.0000
  F   F104      1.0  0.39787  0.70330  0.64427  1.0000
  F   F105      1.0  0.65361  0.19319  0.13314  1.0000
  F   F106      1.0  0.64493  0.19532  0.63806  1.0000
  F   F107      1.0  0.65106  0.69977  0.12819  1.0000
  F   F108      1.0  0.65325  0.68642  0.62353  1.0000
  F   F109      1.0  0.89849  0.20821  0.12406  1.0000
  F   F110      1.0  0.90407  0.19406  0.62455  1.0000
  F   F111      1.0  0.90432  0.69237  0.12061  1.0000
  F   F112      1.0  0.90201  0.69713  0.61995  1.0000
  F   F113      1.0  0.09608  0.31050  0.36812  1.0000
  F   F114      1.0  0.10389  0.29487  0.89052  1.0000
  F   F115      1.0  0.09955  0.79953  0.37034  1.0000
  F   F116      1.0  0.09265  0.81900  0.87665  1.0000
  F   F117      1.0  0.34956  0.30464  0.34867  1.0000
  F   F118      1.0  0.35382  0.29643  0.88055  1.0000
  F   F119      1.0  0.35017  0.79530  0.37853  1.0000
  F   F120      1.0  0.35018  0.79902  0.87830  1.0000
  F   F121      1.0  0.59056  0.30222  0.38484  1.0000
  F   F122      1.0  0.59707  0.30376  0.88593  1.0000
  F   F123      1.0  0.59880  0.80123  0.39519  1.0000
  F   F124      1.0  0.60049  0.78980  0.86932  1.0000
  F   F125      1.0  0.85335  0.30191  0.35548  1.0000
  F   F126      1.0  0.85145  0.30841  0.84108  1.0000
  F   F127      1.0  0.84257  0.80170  0.37811  1.0000
  F   F128      1.0  0.84878  0.82099  0.85614  1.0000
  F   F129      1.0  0.06645  0.25429  0.13143  1.0000
  F   F130      1.0  0.05804  0.25291  0.65195  1.0000
  F   F131      1.0  0.06396  0.75754  0.12883  1.0000
  F   F132      1.0  0.05472  0.75741  0.65334  1.0000
  F   F133      1.0  0.32850  0.24789  0.12554  1.0000
  F   F134      1.0  0.32269  0.25659  0.62725  1.0000
  F   F135      1.0  0.31140  0.74799  0.13218  1.0000
  F   F136      1.0  0.31080  0.74958  0.64619  1.0000
  F   F137      1.0  0.56648  0.23828  0.14082  1.0000
  F   F138      1.0  0.55895  0.25142  0.65676  1.0000
  F   F139      1.0  0.57051  0.75251  0.12775  1.0000
  F   F140      1.0  0.56518  0.75300  0.63943  1.0000
  F   F141      1.0  0.80621  0.24596  0.16280  1.0000
  F   F142      1.0  0.82260  0.25653  0.63135  1.0000
  F   F143      1.0  0.80884  0.74060  0.16639  1.0000
  F   F144      1.0  0.81037  0.74856  0.66096  1.0000
  F   F145      1.0  0.12419  0.37028  0.11453  1.0000
  F   F146      1.0  0.12604  0.36833  0.60684  1.0000
  F   F147      1.0  0.12090  0.86162  0.12457  1.0000
  F   F148      1.0  0.11951  0.87134  0.61191  1.0000
  F   F149      1.0  0.37400  0.39039  0.09884  1.0000
  F   F150      1.0  0.37302  0.39227  0.59630  1.0000
  F   F151      1.0  0.37427  0.85296  0.11255  1.0000
  F   F152      1.0  0.37128  0.89080  0.60419  1.0000
  F   F153      1.0  0.62492  0.36519  0.10836  1.0000
  F   F154      1.0  0.62393  0.35871  0.61486  1.0000
  F   F155      1.0  0.62783  0.88110  0.09339  1.0000
  F   F156      1.0  0.62316  0.84180  0.63209  1.0000
  F   F157      1.0  0.87280  0.37427  0.09276  1.0000
  F   F158      1.0  0.87658  0.36986  0.60619  1.0000
  F   F159      1.0  0.86648  0.85355  0.13702  1.0000
  F   F160      1.0  0.87198  0.85825  0.61640  1.0000
  F   F161      1.0  0.17884  0.25322  0.36737  1.0000
  F   F162      1.0  0.18695  0.25261  0.84325  1.0000
  F   F163      1.0  0.18229  0.75102  0.36948  1.0000
  F   F164      1.0  0.17879  0.75122  0.85960  1.0000
  F   F165      1.0  0.42575  0.24444  0.38159  1.0000
  F   F166      1.0  0.43608  0.23727  0.86583  1.0000
  F   F167      1.0  0.43654  0.74386  0.33717  1.0000
  F   F168      1.0  0.43745  0.74359  0.86512  1.0000
  F   F169      1.0  0.68376  0.23929  0.36561  1.0000
  F   F170      1.0  0.69186  0.24767  0.85915  1.0000
  F   F171      1.0  0.68755  0.75047  0.34925  1.0000
  F   F172      1.0  0.68864  0.74869  0.84918  1.0000
  F   F173      1.0  0.93240  0.24816  0.35854  1.0000
  F   F174      1.0  0.93847  0.25782  0.84802  1.0000
  F   F175      1.0  0.92396  0.74551  0.38720  1.0000
  F   F176      1.0  0.93358  0.75083  0.86599  1.0000
  F   F177      1.0  0.12547  0.14523  0.37363  1.0000
  F   F178      1.0  0.12047  0.10855  0.91363  1.0000
  F   F179      1.0  0.12185  0.62814  0.39284  1.0000
  F   F180      1.0  0.11977  0.63414  0.88094  1.0000
  F   F181      1.0  0.37674  0.12038  0.39507  1.0000
  F   F182      1.0  0.37517  0.12449  0.89624  1.0000
  F   F183      1.0  0.37153  0.62885  0.40449  1.0000
  F   F184      1.0  0.37795  0.62324  0.89249  1.0000
  F   F185      1.0  0.62519  0.13650  0.38699  1.0000
  F   F186      1.0  0.62979  0.12387  0.89922  1.0000
  F   F187      1.0  0.62445  0.63538  0.37646  1.0000
  F   F188      1.0  0.62266  0.61902  0.90330  1.0000
  F   F189      1.0  0.87579  0.12685  0.38945  1.0000
  F   F190      1.0  0.87673  0.12704  0.90270  1.0000
  F   F191      1.0  0.86917  0.61729  0.41396  1.0000
  F   F192      1.0  0.87682  0.64093  0.88000  1.0000
  F   F193      1.0  0.00760  0.35647  0.08431  1.0000
  F   F194      1.0  0.01403  0.37678  0.54573  1.0000
  F   F195      1.0  0.01075  0.85950  0.06788  1.0000
  F   F196      1.0  0.00083  0.87706  0.56916  1.0000
  F   F197      1.0  0.26349  0.35756  0.07472  1.0000
  F   F198      1.0  0.25597  0.35855  0.57533  1.0000
  F   F199      1.0  0.25747  0.86410  0.05527  1.0000
  F   F200      1.0  0.25447  0.86389  0.58238  1.0000
  F   F201      1.0  0.50908  0.36081  0.07073  1.0000
  F   F202      1.0  0.50654  0.36342  0.56640  1.0000
  F   F203      1.0  0.50480  0.85300  0.08975  1.0000
  F   F204      1.0  0.50679  0.87195  0.56761  1.0000
  F   F205      1.0  0.76156  0.38089  0.06750  1.0000
  F   F206      1.0  0.75913  0.36130  0.57176  1.0000
  F   F207      1.0  0.75478  0.86497  0.08264  1.0000
  F   F208      1.0  0.75764  0.86641  0.57955  1.0000
  F   F209      1.0  0.06925  0.49514  0.15933  1.0000
  F   F210      1.0  0.06828  0.48521  0.67218  1.0000
  F   F211      1.0  0.07390  0.99651  0.16441  1.0000
  F   F212      1.0  0.06494  0.99709  0.66486  1.0000
  F   F213      1.0  0.31463  0.48354  0.19147  1.0000
  F   F214      1.0  0.31750  0.48011  0.68468  1.0000
  F   F215      1.0  0.32391  0.97652  0.16624  1.0000
  F   F216      1.0  0.31305  0.99750  0.68221  1.0000
  F   F217      1.0  0.57327  0.48962  0.16513  1.0000
  F   F218      1.0  0.57196  0.48446  0.67246  1.0000
  F   F219      1.0  0.57290  0.97999  0.17941  1.0000
  F   F220      1.0  0.57311  0.96473  0.69221  1.0000
  F   F221      1.0  0.81900  0.48456  0.18174  1.0000
  F   F222      1.0  0.81828  0.49595  0.67208  1.0000
  F   F223      1.0  0.81743  0.98756  0.17515  1.0000
  F   F224      1.0  0.81928  0.97992  0.67316  1.0000
  F   F225      1.0  0.23421  0.14208  0.42658  1.0000
  F   F226      1.0  0.23982  0.15426  0.92586  1.0000
  F   F227      1.0  0.23745  0.63708  0.44178  1.0000
  F   F228      1.0  0.24172  0.64353  0.92396  1.0000
  F   F229      1.0  0.49354  0.15164  0.41209  1.0000
  F   F230      1.0  0.49535  0.12175  0.92831  1.0000
  F   F231      1.0  0.49158  0.64474  0.42008  1.0000
  F   F232      1.0  0.49192  0.63844  0.93701  1.0000
  F   F233      1.0  0.74021  0.11718  0.43395  1.0000
  F   F234      1.0  0.74503  0.13322  0.92375  1.0000
  F   F235      1.0  0.74835  0.61869  0.41770  1.0000
  F   F236      1.0  0.74637  0.62721  0.93376  1.0000
  F   F237      1.0  0.98884  0.14699  0.42058  1.0000
  F   F238      1.0  0.99613  0.14961  0.90935  1.0000
  F   F239      1.0  0.99722  0.64367  0.41252  1.0000
  F   F240      1.0  0.99295  0.65484  0.90004  1.0000
  F   F241      1.0  0.17666  0.01695  0.32409  1.0000
  F   F242      1.0  0.18252  0.01451  0.82616  1.0000
  F   F243      1.0  0.17960  0.51628  0.32770  1.0000
  F   F244      1.0  0.17644  0.52162  0.82144  1.0000
  F   F245      1.0  0.43290  0.01725  0.31056  1.0000
  F   F246      1.0  0.44069  0.01679  0.82115  1.0000
  F   F247      1.0  0.42451  0.51899  0.33419  1.0000
  F   F248      1.0  0.43959  0.50346  0.82655  1.0000
  F   F249      1.0  0.68442  0.01401  0.32162  1.0000
  F   F250      1.0  0.68751  0.00360  0.83895  1.0000
  F   F251      1.0  0.68205  0.51810  0.31330  1.0000
  F   F252      1.0  0.67792  0.50509  0.83505  1.0000
  F   F253      1.0  0.93010  0.01608  0.31631  1.0000
  F   F254      1.0  0.93217  0.00336  0.83535  1.0000
  F   F255      1.0  0.92997  0.52068  0.32542  1.0000
  F   F256      1.0  0.92655  0.51305  0.83267  1.0000
  F   F257      1.0  0.99568  0.22654  0.02563  1.0000
  F   F258      1.0  0.00184  0.24622  0.50790  1.0000
  F   F259      1.0  0.99283  0.72542  0.02319  1.0000
  F   F260      1.0  0.00358  0.76182  0.50249  1.0000
  F   F261      1.0  0.25801  0.27267  0.97699  1.0000
  F   F262      1.0  0.24869  0.25169  0.50316  1.0000
  F   F263      1.0  0.24737  0.72949  0.01695  1.0000
  F   F264      1.0  0.24777  0.75920  0.49388  1.0000
  F   F265      1.0  0.49955  0.23583  0.00785  1.0000
  F   F266      1.0  0.50141  0.24841  0.49582  1.0000
  F   F267      1.0  0.50432  0.77440  0.98160  1.0000
  F   F268      1.0  0.49550  0.73952  0.50911  1.0000
  F   F269      1.0  0.75634  0.26771  0.98170  1.0000
  F   F270      1.0  0.74377  0.23592  0.50952  1.0000
  F   F271      1.0  0.75154  0.75018  0.00812  1.0000
  F   F272      1.0  0.75247  0.77392  0.49044  1.0000
  F   F273      1.0  0.12636  0.99665  0.24968  1.0000
  F   F274      1.0  0.11981  0.99678  0.74553  1.0000
  F   F275      1.0  0.12395  0.50679  0.24331  1.0000
  F   F276      1.0  0.11883  0.49768  0.75249  1.0000
  F   F277      1.0  0.36437  0.98846  0.26571  1.0000
  F   F278      1.0  0.37479  0.99887  0.75227  1.0000
  F   F279      1.0  0.37031  0.49691  0.25650  1.0000
  F   F280      1.0  0.38655  0.50578  0.74163  1.0000
  F   F281      1.0  0.62130  0.99080  0.26287  1.0000
  F   F282      1.0  0.62249  0.99138  0.76257  1.0000
  F   F283      1.0  0.62232  0.50089  0.25964  1.0000
  F   F284      1.0  0.61991  0.49732  0.75315  1.0000
  F   F285      1.0  0.87352  0.99638  0.24527  1.0000
  F   F286      1.0  0.87477  0.00418  0.74933  1.0000
  F   F287      1.0  0.87791  0.48911  0.24574  1.0000
  F   F288      1.0  0.87277  0.49546  0.75057  1.0000
  F   F289      1.0  0.03228  0.03290  0.04130  1.0000
  F   F290      1.0  0.04507  0.04965  0.50655  1.0000
  F   F291      1.0  0.03400  0.55273  0.01621  1.0000
  F   F292      1.0  0.04611  0.54119  0.51984  1.0000
  F   F293      1.0  0.28933  0.02325  0.01902  1.0000
  F   F294      1.0  0.28874  0.04476  0.52331  1.0000
  F   F295      1.0  0.29620  0.52545  0.02115  1.0000
  F   F296      1.0  0.29740  0.53652  0.50732  1.0000
  F   F297      1.0  0.54654  0.01843  0.02816  1.0000
  F   F298      1.0  0.53976  0.03337  0.53256  1.0000
  F   F299      1.0  0.54326  0.52376  0.02109  1.0000
  F   F300      1.0  0.53603  0.52497  0.52008  1.0000
  F   F301      1.0  0.79545  0.03686  0.03157  1.0000
  F   F302      1.0  0.79442  0.02951  0.52373  1.0000
  F   F303      1.0  0.80628  0.52482  0.01256  1.0000
  F   F304      1.0  0.78635  0.54057  0.53123  1.0000
  F   F305      1.0  0.23276  0.42960  0.21676  1.0000
  F   F306      1.0  0.23559  0.43485  0.71179  1.0000
  F   F307      1.0  0.23774  0.90450  0.22979  1.0000
  F   F308      1.0  0.23183  0.91246  0.72740  1.0000
  F   F309      1.0  0.47934  0.41073  0.23718  1.0000
  F   F310      1.0  0.48492  0.40597  0.72507  1.0000
  F   F311      1.0  0.48917  0.90644  0.23905  1.0000
  F   F312      1.0  0.48479  0.90947  0.71888  1.0000
  F   F313      1.0  0.73371  0.40538  0.23164  1.0000
  F   F314      1.0  0.73642  0.42025  0.72392  1.0000
  F   F315      1.0  0.73359  0.90630  0.22923  1.0000
  F   F316      1.0  0.73297  0.92151  0.72420  1.0000
  F   F317      1.0  0.98363  0.43652  0.22332  1.0000
  F   F318      1.0  0.98318  0.41242  0.71687  1.0000
  F   F319      1.0  0.98548  0.90244  0.22989  1.0000
  F   F320      1.0  0.98311  0.91438  0.72348  1.0000
  F   F321      1.0  0.21212  0.47175  0.46901  1.0000
  F   F322      1.0  0.21019  0.47088  0.96715  1.0000
  F   F323      1.0  0.20162  0.96894  0.47469  1.0000
  F   F324      1.0  0.20221  0.97471  0.97811  1.0000
  F   F325      1.0  0.45464  0.48511  0.48641  1.0000
  F   F326      1.0  0.47028  0.46674  0.95755  1.0000
  F   F327      1.0  0.45290  0.95873  0.48134  1.0000
  F   F328      1.0  0.45499  0.97387  0.97633  1.0000
  F   F329      1.0  0.70497  0.46896  0.48584  1.0000
  F   F330      1.0  0.69949  0.46379  0.00480  1.0000
  F   F331      1.0  0.70151  0.95556  0.48253  1.0000
  F   F332      1.0  0.71673  0.96331  0.97268  1.0000
  F   F333      1.0  0.95509  0.47589  0.47669  1.0000
  F   F334      1.0  0.96504  0.46705  0.96916  1.0000
  F   F335      1.0  0.94434  0.97564  0.48907  1.0000
  F   F336      1.0  0.95311  0.97578  0.98822  1.0000
  F   F337      1.0  0.01708  0.06435  0.29275  1.0000
  F   F338      1.0  0.01136  0.08189  0.77583  1.0000
  F   F339      1.0  0.01513  0.58646  0.26831  1.0000
  F   F340      1.0  0.01560  0.57393  0.77314  1.0000
  F   F341      1.0  0.26376  0.07926  0.26116  1.0000
  F   F342      1.0  0.26545  0.10811  0.76170  1.0000
  F   F343      1.0  0.26272  0.57918  0.27978  1.0000
  F   F344      1.0  0.26030  0.58313  0.77232  1.0000
  F   F345      1.0  0.51488  0.08106  0.27131  1.0000
  F   F346      1.0  0.51737  0.08732  0.77001  1.0000
  F   F347      1.0  0.51244  0.59015  0.26772  1.0000
  F   F348      1.0  0.52277  0.58665  0.77415  1.0000
  F   F349      1.0  0.76406  0.08510  0.27169  1.0000
  F   F350      1.0  0.76721  0.09409  0.76715  1.0000
  F   F351      1.0  0.76270  0.57891  0.26707  1.0000
  F   F352      1.0  0.76266  0.56301  0.80603  1.0000
  F   F353      1.0  0.10200  0.41656  0.45437  1.0000
  F   F354      1.0  0.10241  0.42197  0.95858  1.0000
  F   F355      1.0  0.09615  0.91355  0.45989  1.0000
  F   F356      1.0  0.09882  0.92469  0.95809  1.0000
  F   F357      1.0  0.34907  0.40148  0.45731  1.0000
  F   F358      1.0  0.35569  0.40609  0.95446  1.0000
  F   F359      1.0  0.34448  0.91177  0.47142  1.0000
  F   F360      1.0  0.35529  0.90915  0.96400  1.0000
  F   F361      1.0  0.59979  0.40775  0.46386  1.0000
  F   F362      1.0  0.60184  0.40605  0.96701  1.0000
  F   F363      1.0  0.60669  0.91778  0.46847  1.0000
  F   F364      1.0  0.60079  0.89693  0.96140  1.0000
  F   F365      1.0  0.85206  0.41136  0.45269  1.0000
  F   F366      1.0  0.85283  0.37784  0.96434  1.0000
  F   F367      1.0  0.84923  0.90024  0.46834  1.0000
  F   F368      1.0  0.85138  0.89229  0.97818  1.0000
  F   F369      1.0  0.04164  0.29336  0.27926  1.0000
  F   F370      1.0  0.05306  0.30168  0.79311  1.0000
  F   F371      1.0  0.04234  0.79679  0.28490  1.0000
  F   F372      1.0  0.04532  0.80938  0.78878  1.0000
  F   F373      1.0  0.28671  0.29042  0.29642  1.0000
  F   F374      1.0  0.30300  0.30322  0.77655  1.0000
  F   F375      1.0  0.29728  0.79547  0.28619  1.0000
  F   F376      1.0  0.30404  0.78977  0.78451  1.0000
  F   F377      1.0  0.54642  0.30757  0.28079  1.0000
  F   F378      1.0  0.54701  0.29279  0.79390  1.0000
  F   F379      1.0  0.55493  0.80402  0.28619  1.0000
  F   F380      1.0  0.54197  0.80204  0.79509  1.0000
  F   F381      1.0  0.79571  0.29591  0.29346  1.0000
  F   F382      1.0  0.79871  0.30057  0.76933  1.0000
  F   F383      1.0  0.78564  0.78626  0.30765  1.0000
  F   F384      1.0  0.79285  0.79046  0.79731  1.0000
