data_image0
_chemical_formula_structural       Hf96F384
_chemical_formula_sum              "Hf96 F384"
_cell_length_a       31.0673
_cell_length_b       15.5248
_cell_length_c       15.5146
_cell_angle_alpha    63.342
_cell_angle_beta     63.342
_cell_angle_gamma    80.1625

_space_group_name_H-M_alt    "P 1"
_space_group_IT_number       1

loop_
  _space_group_symop_operation_xyz
  'x, y, z'

loop_
  _atom_site_type_symbol
  _atom_site_label
  _atom_site_symmetry_multiplicity
  _atom_site_fract_x
  _atom_site_fract_y
  _atom_site_fract_z
  _atom_site_occupancy
  Hf  Hf1       1.0  0.19374  0.11046  0.38397  1.0000
  Hf  Hf2       1.0  0.19820  0.10799  0.86637  1.0000
  Hf  Hf3       1.0  0.19677  0.60895  0.36483  1.0000
  Hf  Hf4       1.0  0.19324  0.59983  0.88061  1.0000
  Hf  Hf5       1.0  0.44658  0.10922  0.37239  1.0000
  Hf  Hf6       1.0  0.44489  0.10661  0.88269  1.0000
  Hf  Hf7       1.0  0.44463  0.60748  0.37381  1.0000
  Hf  Hf8       1.0  0.45035  0.61148  0.86328  1.0000
  Hf  Hf9       1.0  0.69425  0.09990  0.38462  1.0000
  Hf  Hf10      1.0  0.69668  0.11202  0.87429  1.0000
  Hf  Hf11      1.0  0.69455  0.61437  0.36888  1.0000
  Hf  Hf12      1.0  0.70392  0.60606  0.87273  1.0000
  Hf  Hf13      1.0  0.94949  0.11040  0.36228  1.0000
  Hf  Hf14      1.0  0.94338  0.11201  0.87962  1.0000
  Hf  Hf15      1.0  0.94628  0.61534  0.36998  1.0000
  Hf  Hf16      1.0  0.94590  0.60533  0.88936  1.0000
  Hf  Hf17      1.0  0.05023  0.39096  0.12900  1.0000
  Hf  Hf18      1.0  0.05334  0.39766  0.62790  1.0000
  Hf  Hf19      1.0  0.05174  0.89394  0.12972  1.0000
  Hf  Hf20      1.0  0.05229  0.88794  0.63267  1.0000
  Hf  Hf21      1.0  0.30282  0.38348  0.12748  1.0000
  Hf  Hf22      1.0  0.30696  0.38279  0.62608  1.0000
  Hf  Hf23      1.0  0.30537  0.88534  0.12747  1.0000
  Hf  Hf24      1.0  0.29832  0.88921  0.63641  1.0000
  Hf  Hf25      1.0  0.55911  0.39254  0.12248  1.0000
  Hf  Hf26      1.0  0.55722  0.39812  0.61295  1.0000
  Hf  Hf27      1.0  0.54938  0.89739  0.12115  1.0000
  Hf  Hf28      1.0  0.55416  0.89511  0.62704  1.0000
  Hf  Hf29      1.0  0.79820  0.39399  0.13227  1.0000
  Hf  Hf30      1.0  0.80421  0.38545  0.62897  1.0000
  Hf  Hf31      1.0  0.80710  0.89166  0.12628  1.0000
  Hf  Hf32      1.0  0.80053  0.89049  0.63073  1.0000
  Hf  Hf33      1.0  0.05593  0.17304  0.42457  1.0000
  Hf  Hf34      1.0  0.05564  0.18208  0.92174  1.0000
  Hf  Hf35      1.0  0.05649  0.68627  0.41146  1.0000
  Hf  Hf36      1.0  0.05184  0.67309  0.92609  1.0000
  Hf  Hf37      1.0  0.30787  0.18058  0.41205  1.0000
  Hf  Hf38      1.0  0.30588  0.18118  0.91552  1.0000
  Hf  Hf39      1.0  0.30819  0.67753  0.40561  1.0000
  Hf  Hf40      1.0  0.30440  0.68011  0.91903  1.0000
  Hf  Hf41      1.0  0.55549  0.17868  0.41490  1.0000
  Hf  Hf42      1.0  0.55703  0.18088  0.91908  1.0000
  Hf  Hf43      1.0  0.55379  0.68927  0.41024  1.0000
  Hf  Hf44      1.0  0.55775  0.67636  0.91290  1.0000
  Hf  Hf45      1.0  0.80666  0.19226  0.41691  1.0000
  Hf  Hf46      1.0  0.80748  0.18187  0.91020  1.0000
  Hf  Hf47      1.0  0.80599  0.67475  0.41871  1.0000
  Hf  Hf48      1.0  0.80886  0.68810  0.91911  1.0000
  Hf  Hf49      1.0  0.15615  0.38957  0.33423  1.0000
  Hf  Hf50      1.0  0.15988  0.38225  0.83918  1.0000
  Hf  Hf51      1.0  0.16318  0.88774  0.33303  1.0000
  Hf  Hf52      1.0  0.15675  0.88852  0.83803  1.0000
  Hf  Hf53      1.0  0.41154  0.38926  0.32775  1.0000
  Hf  Hf54      1.0  0.40896  0.38774  0.83197  1.0000
  Hf  Hf55      1.0  0.41270  0.88847  0.33206  1.0000
  Hf  Hf56      1.0  0.41079  0.89165  0.83043  1.0000
  Hf  Hf57      1.0  0.65598  0.39050  0.32469  1.0000
  Hf  Hf58      1.0  0.66139  0.39140  0.82492  1.0000
  Hf  Hf59      1.0  0.66326  0.89253  0.32178  1.0000
  Hf  Hf60      1.0  0.65225  0.88670  0.83680  1.0000
  Hf  Hf61      1.0  0.91153  0.39580  0.32939  1.0000
  Hf  Hf62      1.0  0.90866  0.38977  0.83283  1.0000
  Hf  Hf63      1.0  0.90090  0.88252  0.34604  1.0000
  Hf  Hf64      1.0  0.91056  0.89579  0.83568  1.0000
  Hf  Hf65      1.0  0.18733  0.31131  0.09421  1.0000
  Hf  Hf66      1.0  0.19584  0.32258  0.57797  1.0000
  Hf  Hf67      1.0  0.19509  0.82422  0.07380  1.0000
  Hf  Hf68      1.0  0.19252  0.81711  0.58616  1.0000
  Hf  Hf69      1.0  0.44402  0.32230  0.08416  1.0000
  Hf  Hf70      1.0  0.44439  0.31695  0.58253  1.0000
  Hf  Hf71      1.0  0.44171  0.80966  0.09056  1.0000
  Hf  Hf72      1.0  0.44865  0.82018  0.57642  1.0000
  Hf  Hf73      1.0  0.69611  0.31169  0.07808  1.0000
  Hf  Hf74      1.0  0.69252  0.32557  0.57662  1.0000
  Hf  Hf75      1.0  0.69563  0.82076  0.07807  1.0000
  Hf  Hf76      1.0  0.69655  0.81083  0.58267  1.0000
  Hf  Hf77      1.0  0.93900  0.32333  0.08318  1.0000
  Hf  Hf78      1.0  0.94658  0.31675  0.58768  1.0000
  Hf  Hf79      1.0  0.95022  0.82537  0.07987  1.0000
  Hf  Hf80      1.0  0.94224  0.81791  0.58347  1.0000
  Hf  Hf81      1.0  0.09555  0.10878  0.16856  1.0000
  Hf  Hf82      1.0  0.08452  0.11819  0.67809  1.0000
  Hf  Hf83      1.0  0.09117  0.61578  0.16583  1.0000
  Hf  Hf84      1.0  0.09430  0.61360  0.66023  1.0000
  Hf  Hf85      1.0  0.33807  0.10880  0.17072  1.0000
  Hf  Hf86      1.0  0.33874  0.10629  0.66210  1.0000
  Hf  Hf87      1.0  0.33991  0.60183  0.17218  1.0000
  Hf  Hf88      1.0  0.34260  0.61836  0.65974  1.0000
  Hf  Hf89      1.0  0.59101  0.11285  0.16670  1.0000
  Hf  Hf90      1.0  0.59060  0.11454  0.66521  1.0000
  Hf  Hf91      1.0  0.58971  0.62163  0.16217  1.0000
  Hf  Hf92      1.0  0.58908  0.61314  0.66154  1.0000
  Hf  Hf93      1.0  0.83956  0.11431  0.17859  1.0000
  Hf  Hf94      1.0  0.83896  0.10548  0.66771  1.0000
  Hf  Hf95      1.0  0.83910  0.61791  0.16944  1.0000
  Hf  Hf96      1.0  0.84171  0.60973  0.67104  1.0000
  F   F1        1.0  0.08373  0.12602  0.30754  1.0000
  F   F2        1.0  0.08331  0.13593  0.80244  1.0000
  F   F3        1.0  0.08382  0.63579  0.29665  1.0000
  F   F4        1.0  0.07985  0.63500  0.79964  1.0000
  F   F5        1.0  0.32859  0.12513  0.30523  1.0000
  F   F6        1.0  0.33418  0.14368  0.79400  1.0000
  F   F7        1.0  0.32322  0.61847  0.29961  1.0000
  F   F8        1.0  0.33775  0.65505  0.78998  1.0000
  F   F9        1.0  0.57830  0.12371  0.30600  1.0000
  F   F10       1.0  0.57657  0.11564  0.81174  1.0000
  F   F11       1.0  0.56935  0.63110  0.30461  1.0000
  F   F12       1.0  0.58390  0.62596  0.79345  1.0000
  F   F13       1.0  0.82147  0.12090  0.31795  1.0000
  F   F14       1.0  0.82083  0.10399  0.81555  1.0000
  F   F15       1.0  0.82675  0.62189  0.30667  1.0000
  F   F16       1.0  0.83552  0.62111  0.80812  1.0000
  F   F17       1.0  0.18727  0.33233  0.44414  1.0000
  F   F18       1.0  0.18109  0.33771  0.95060  1.0000
  F   F19       1.0  0.19886  0.85188  0.43846  1.0000
  F   F20       1.0  0.18901  0.84236  0.93968  1.0000
  F   F21       1.0  0.43764  0.34272  0.44076  1.0000
  F   F22       1.0  0.43715  0.35309  0.93855  1.0000
  F   F23       1.0  0.43646  0.84489  0.44422  1.0000
  F   F24       1.0  0.43324  0.83771  0.94708  1.0000
  F   F25       1.0  0.68254  0.33934  0.44217  1.0000
  F   F26       1.0  0.69009  0.33267  0.94266  1.0000
  F   F27       1.0  0.68934  0.83623  0.44729  1.0000
  F   F28       1.0  0.67473  0.83152  0.96009  1.0000
  F   F29       1.0  0.92722  0.33138  0.45354  1.0000
  F   F30       1.0  0.93377  0.35009  0.95023  1.0000
  F   F31       1.0  0.93158  0.83760  0.45347  1.0000
  F   F32       1.0  0.93988  0.84625  0.94405  1.0000
  F   F33       1.0  0.16860  0.37649  0.19408  1.0000
  F   F34       1.0  0.16870  0.36203  0.70894  1.0000
  F   F35       1.0  0.17242  0.85891  0.20977  1.0000
  F   F36       1.0  0.16950  0.88112  0.69502  1.0000
  F   F37       1.0  0.42223  0.36837  0.19887  1.0000
  F   F38       1.0  0.42020  0.37509  0.69872  1.0000
  F   F39       1.0  0.41949  0.86681  0.20237  1.0000
  F   F40       1.0  0.42836  0.88895  0.67497  1.0000
  F   F41       1.0  0.66615  0.38715  0.18960  1.0000
  F   F42       1.0  0.67452  0.37654  0.69166  1.0000
  F   F43       1.0  0.66961  0.88411  0.18559  1.0000
  F   F44       1.0  0.67432  0.85475  0.69900  1.0000
  F   F45       1.0  0.91776  0.37533  0.20215  1.0000
  F   F46       1.0  0.92634  0.37374  0.69702  1.0000
  F   F47       1.0  0.92187  0.86588  0.19677  1.0000
  F   F48       1.0  0.91680  0.86833  0.70855  1.0000
  F   F49       1.0  0.06776  0.14467  0.05980  1.0000
  F   F50       1.0  0.06540  0.16075  0.55058  1.0000
  F   F51       1.0  0.05405  0.64969  0.06514  1.0000
  F   F52       1.0  0.06508  0.66815  0.55977  1.0000
  F   F53       1.0  0.31089  0.15655  0.04979  1.0000
  F   F54       1.0  0.31066  0.16016  0.55777  1.0000
  F   F55       1.0  0.30950  0.65864  0.05218  1.0000
  F   F56       1.0  0.32360  0.66946  0.54284  1.0000
  F   F57       1.0  0.57381  0.17511  0.04401  1.0000
  F   F58       1.0  0.56588  0.15911  0.55351  1.0000
  F   F59       1.0  0.57306  0.65683  0.03594  1.0000
  F   F60       1.0  0.56287  0.66682  0.54585  1.0000
  F   F61       1.0  0.82386  0.14639  0.04192  1.0000
  F   F62       1.0  0.80509  0.15442  0.56072  1.0000
  F   F63       1.0  0.80174  0.65988  0.07584  1.0000
  F   F64       1.0  0.81952  0.65867  0.55072  1.0000
  F   F65       1.0  0.20466  0.19637  0.21070  1.0000
  F   F66       1.0  0.20989  0.19957  0.70863  1.0000
  F   F67       1.0  0.20721  0.70374  0.21734  1.0000
  F   F68       1.0  0.20136  0.69818  0.72165  1.0000
  F   F69       1.0  0.45295  0.20563  0.21166  1.0000
  F   F70       1.0  0.45379  0.20535  0.69944  1.0000
  F   F71       1.0  0.46585  0.71696  0.21330  1.0000
  F   F72       1.0  0.45408  0.70694  0.70183  1.0000
  F   F73       1.0  0.69423  0.19297  0.20265  1.0000
  F   F74       1.0  0.70249  0.20837  0.68825  1.0000
  F   F75       1.0  0.70775  0.70964  0.20392  1.0000
  F   F76       1.0  0.71754  0.68631  0.69404  1.0000
  F   F77       1.0  0.94627  0.20430  0.20557  1.0000
  F   F78       1.0  0.96454  0.21333  0.71324  1.0000
  F   F79       1.0  0.96347  0.71167  0.20931  1.0000
  F   F80       1.0  0.95310  0.70327  0.71315  1.0000
  F   F81       1.0  0.15062  0.08028  0.03887  1.0000
  F   F82       1.0  0.14744  0.09771  0.55842  1.0000
  F   F83       1.0  0.14816  0.58477  0.03760  1.0000
  F   F84       1.0  0.15198  0.57992  0.54808  1.0000
  F   F85       1.0  0.39742  0.09552  0.04135  1.0000
  F   F86       1.0  0.39713  0.08246  0.54222  1.0000
  F   F87       1.0  0.40099  0.61068  0.04837  1.0000
  F   F88       1.0  0.40078  0.59698  0.52010  1.0000
  F   F89       1.0  0.64999  0.06345  0.03821  1.0000
  F   F90       1.0  0.64642  0.09696  0.53543  1.0000
  F   F91       1.0  0.64994  0.61076  0.03913  1.0000
  F   F92       1.0  0.64109  0.59403  0.52910  1.0000
  F   F93       1.0  0.90366  0.09055  0.05481  1.0000
  F   F94       1.0  0.89310  0.08437  0.55309  1.0000
  F   F95       1.0  0.89535  0.60266  0.04578  1.0000
  F   F96       1.0  0.90896  0.57270  0.54544  1.0000
  F   F97       1.0  0.15438  0.18972  0.12766  1.0000
  F   F98       1.0  0.14812  0.21391  0.64077  1.0000
  F   F99       1.0  0.15042  0.70098  0.12530  1.0000
  F   F100      1.0  0.15734  0.69679  0.61973  1.0000
  F   F101      1.0  0.39964  0.19652  0.11785  1.0000
  F   F102      1.0  0.40102  0.18983  0.61492  1.0000
  F   F103      1.0  0.40536  0.68628  0.15209  1.0000
  F   F104      1.0  0.40057  0.70452  0.61716  1.0000
  F   F105      1.0  0.65311  0.18752  0.11752  1.0000
  F   F106      1.0  0.64366  0.19973  0.62528  1.0000
  F   F107      1.0  0.65073  0.70851  0.12924  1.0000
  F   F108      1.0  0.65549  0.69902  0.61313  1.0000
  F   F109      1.0  0.89655  0.19748  0.13430  1.0000
  F   F110      1.0  0.91092  0.19486  0.62793  1.0000
  F   F111      1.0  0.90668  0.70729  0.12430  1.0000
  F   F112      1.0  0.89551  0.70265  0.62413  1.0000
  F   F113      1.0  0.10042  0.30637  0.37520  1.0000
  F   F114      1.0  0.09588  0.30139  0.89668  1.0000
  F   F115      1.0  0.09896  0.79549  0.37703  1.0000
  F   F116      1.0  0.09887  0.79803  0.88551  1.0000
  F   F117      1.0  0.35058  0.30481  0.38392  1.0000
  F   F118      1.0  0.35151  0.28809  0.88057  1.0000
  F   F119      1.0  0.34829  0.79548  0.36291  1.0000
  F   F120      1.0  0.35080  0.79831  0.84721  1.0000
  F   F121      1.0  0.60002  0.30174  0.38720  1.0000
  F   F122      1.0  0.60429  0.31464  0.86905  1.0000
  F   F123      1.0  0.59165  0.81222  0.34823  1.0000
  F   F124      1.0  0.60130  0.80441  0.87468  1.0000
  F   F125      1.0  0.85441  0.30127  0.38614  1.0000
  F   F126      1.0  0.84750  0.29835  0.86243  1.0000
  F   F127      1.0  0.84233  0.80196  0.36685  1.0000
  F   F128      1.0  0.85334  0.78833  0.90340  1.0000
  F   F129      1.0  0.06869  0.24265  0.13455  1.0000
  F   F130      1.0  0.06536  0.25896  0.63197  1.0000
  F   F131      1.0  0.05710  0.74803  0.15257  1.0000
  F   F132      1.0  0.06099  0.75324  0.64512  1.0000
  F   F133      1.0  0.31261  0.24124  0.14823  1.0000
  F   F134      1.0  0.31209  0.23702  0.65419  1.0000
  F   F135      1.0  0.32507  0.74173  0.13591  1.0000
  F   F136      1.0  0.31333  0.75362  0.64021  1.0000
  F   F137      1.0  0.55766  0.25307  0.15089  1.0000
  F   F138      1.0  0.55978  0.24811  0.65387  1.0000
  F   F139      1.0  0.56936  0.75467  0.11674  1.0000
  F   F140      1.0  0.56927  0.75413  0.63110  1.0000
  F   F141      1.0  0.81236  0.24981  0.14410  1.0000
  F   F142      1.0  0.82881  0.24826  0.62124  1.0000
  F   F143      1.0  0.82778  0.75102  0.13796  1.0000
  F   F144      1.0  0.81475  0.74698  0.66563  1.0000
  F   F145      1.0  0.12220  0.36187  0.09434  1.0000
  F   F146      1.0  0.12740  0.38557  0.60172  1.0000
  F   F147      1.0  0.12859  0.87141  0.10811  1.0000
  F   F148      1.0  0.11762  0.86435  0.62362  1.0000
  F   F149      1.0  0.37472  0.35988  0.11410  1.0000
  F   F150      1.0  0.37562  0.35707  0.61259  1.0000
  F   F151      1.0  0.37557  0.86650  0.11219  1.0000
  F   F152      1.0  0.37028  0.87998  0.61015  1.0000
  F   F153      1.0  0.62701  0.36179  0.10309  1.0000
  F   F154      1.0  0.62222  0.36137  0.61697  1.0000
  F   F155      1.0  0.61681  0.87337  0.10642  1.0000
  F   F156      1.0  0.62345  0.87605  0.60294  1.0000
  F   F157      1.0  0.87263  0.37015  0.11092  1.0000
  F   F158      1.0  0.87369  0.35808  0.62886  1.0000
  F   F159      1.0  0.87511  0.88306  0.10431  1.0000
  F   F160      1.0  0.87296  0.87915  0.60438  1.0000
  F   F161      1.0  0.18992  0.24824  0.34894  1.0000
  F   F162      1.0  0.18643  0.24453  0.86469  1.0000
  F   F163      1.0  0.17785  0.75127  0.37160  1.0000
  F   F164      1.0  0.18046  0.73515  0.86572  1.0000
  F   F165      1.0  0.43756  0.24496  0.35752  1.0000
  F   F166      1.0  0.43773  0.24439  0.86043  1.0000
  F   F167      1.0  0.42538  0.75451  0.36479  1.0000
  F   F168      1.0  0.43761  0.74111  0.85260  1.0000
  F   F169      1.0  0.70086  0.25065  0.31285  1.0000
  F   F170      1.0  0.68631  0.24479  0.85611  1.0000
  F   F171      1.0  0.67237  0.75625  0.35659  1.0000
  F   F172      1.0  0.69337  0.75081  0.84510  1.0000
  F   F173      1.0  0.94221  0.24628  0.35203  1.0000
  F   F174      1.0  0.93447  0.24861  0.86869  1.0000
  F   F175      1.0  0.92560  0.74536  0.36803  1.0000
  F   F176      1.0  0.94428  0.75372  0.84994  1.0000
  F   F177      1.0  0.12549  0.14461  0.39370  1.0000
  F   F178      1.0  0.12471  0.13305  0.89143  1.0000
  F   F179      1.0  0.11860  0.61216  0.42229  1.0000
  F   F180      1.0  0.11937  0.61877  0.89721  1.0000
  F   F181      1.0  0.37893  0.15797  0.38294  1.0000
  F   F182      1.0  0.37637  0.11882  0.89731  1.0000
  F   F183      1.0  0.38048  0.63596  0.36172  1.0000
  F   F184      1.0  0.37379  0.61367  0.90508  1.0000
  F   F185      1.0  0.62532  0.13425  0.39730  1.0000
  F   F186      1.0  0.62440  0.15091  0.88685  1.0000
  F   F187      1.0  0.62546  0.63532  0.37494  1.0000
  F   F188      1.0  0.62925  0.62990  0.89091  1.0000
  F   F189      1.0  0.87336  0.13545  0.39731  1.0000
  F   F190      1.0  0.87975  0.14854  0.85768  1.0000
  F   F191      1.0  0.87591  0.62851  0.38985  1.0000
  F   F192      1.0  0.87177  0.62398  0.91240  1.0000
  F   F193      1.0  0.00605  0.36282  0.07116  1.0000
  F   F194      1.0  0.01148  0.37921  0.55862  1.0000
  F   F195      1.0  0.00800  0.88633  0.06199  1.0000
  F   F196      1.0  0.01343  0.86739  0.55386  1.0000
  F   F197      1.0  0.25857  0.36058  0.07906  1.0000
  F   F198      1.0  0.26046  0.35447  0.58200  1.0000
  F   F199      1.0  0.25892  0.84722  0.08648  1.0000
  F   F200      1.0  0.25195  0.86141  0.57146  1.0000
  F   F201      1.0  0.50465  0.37605  0.05639  1.0000
  F   F202      1.0  0.50913  0.37056  0.56471  1.0000
  F   F203      1.0  0.50426  0.88353  0.06396  1.0000
  F   F204      1.0  0.51421  0.87659  0.56334  1.0000
  F   F205      1.0  0.75402  0.35094  0.08536  1.0000
  F   F206      1.0  0.76335  0.36286  0.57225  1.0000
  F   F207      1.0  0.76251  0.84466  0.08172  1.0000
  F   F208      1.0  0.75915  0.85757  0.56920  1.0000
  F   F209      1.0  0.06905  0.47952  0.17100  1.0000
  F   F210      1.0  0.06999  0.48174  0.68942  1.0000
  F   F211      1.0  0.06550  0.98281  0.17659  1.0000
  F   F212      1.0  0.06554  0.99156  0.68283  1.0000
  F   F213      1.0  0.32438  0.48096  0.17035  1.0000
  F   F214      1.0  0.31825  0.48471  0.66920  1.0000
  F   F215      1.0  0.32141  0.99196  0.15835  1.0000
  F   F216      1.0  0.31303  0.97773  0.69068  1.0000
  F   F217      1.0  0.57284  0.48642  0.16004  1.0000
  F   F218      1.0  0.56682  0.47723  0.68007  1.0000
  F   F219      1.0  0.56710  0.99435  0.16893  1.0000
  F   F220      1.0  0.56769  0.98619  0.68589  1.0000
  F   F221      1.0  0.81880  0.48461  0.17454  1.0000
  F   F222      1.0  0.82115  0.49088  0.65730  1.0000
  F   F223      1.0  0.81735  0.98777  0.18094  1.0000
  F   F224      1.0  0.82054  0.96786  0.69129  1.0000
  F   F225      1.0  0.24205  0.12405  0.45502  1.0000
  F   F226      1.0  0.24523  0.13934  0.91190  1.0000
  F   F227      1.0  0.24094  0.63479  0.41212  1.0000
  F   F228      1.0  0.24398  0.62333  0.92515  1.0000
  F   F229      1.0  0.49111  0.14107  0.43759  1.0000
  F   F230      1.0  0.49213  0.13845  0.91799  1.0000
  F   F231      1.0  0.48994  0.64603  0.42603  1.0000
  F   F232      1.0  0.49865  0.63409  0.91671  1.0000
  F   F233      1.0  0.74458  0.14008  0.44336  1.0000
  F   F234      1.0  0.74262  0.13652  0.92846  1.0000
  F   F235      1.0  0.73136  0.65662  0.42659  1.0000
  F   F236      1.0  0.74998  0.63176  0.92616  1.0000
  F   F237      1.0  0.99843  0.12472  0.42919  1.0000
  F   F238      1.0  0.99234  0.13888  0.92417  1.0000
  F   F239      1.0  0.99596  0.63761  0.41776  1.0000
  F   F240      1.0  0.98211  0.63373  0.96114  1.0000
  F   F241      1.0  0.18355  0.02785  0.31938  1.0000
  F   F242      1.0  0.18458  0.01211  0.81748  1.0000
  F   F243      1.0  0.18211  0.52245  0.30559  1.0000
  F   F244      1.0  0.18406  0.50837  0.83047  1.0000
  F   F245      1.0  0.43137  0.01484  0.32885  1.0000
  F   F246      1.0  0.43105  0.01419  0.81635  1.0000
  F   F247      1.0  0.43236  0.50882  0.33274  1.0000
  F   F248      1.0  0.43033  0.51200  0.82317  1.0000
  F   F249      1.0  0.67150  0.00978  0.34960  1.0000
  F   F250      1.0  0.67483  0.01634  0.83107  1.0000
  F   F251      1.0  0.68628  0.52028  0.31353  1.0000
  F   F252      1.0  0.68536  0.50578  0.82978  1.0000
  F   F253      1.0  0.92625  0.01582  0.33624  1.0000
  F   F254      1.0  0.93247  0.02465  0.82114  1.0000
  F   F255      1.0  0.92724  0.52227  0.31912  1.0000
  F   F256      1.0  0.92979  0.50855  0.83019  1.0000
  F   F257      1.0  0.99856  0.26419  0.99388  1.0000
  F   F258      1.0  0.00088  0.24959  0.49975  1.0000
  F   F259      1.0  0.00568  0.76592  0.99449  1.0000
  F   F260      1.0  0.99601  0.74639  0.50509  1.0000
  F   F261      1.0  0.24430  0.24221  0.99969  1.0000
  F   F262      1.0  0.25488  0.25498  0.49716  1.0000
  F   F263      1.0  0.23994  0.73445  0.01035  1.0000
  F   F264      1.0  0.24784  0.71874  0.51089  1.0000
  F   F265      1.0  0.50013  0.24469  0.00479  1.0000
  F   F266      1.0  0.50097  0.24832  0.49939  1.0000
  F   F267      1.0  0.50157  0.75715  0.99326  1.0000
  F   F268      1.0  0.50456  0.76829  0.48022  1.0000
  F   F269      1.0  0.75163  0.23491  0.01039  1.0000
  F   F270      1.0  0.75257  0.27819  0.47823  1.0000
  F   F271      1.0  0.75145  0.76079  0.98420  1.0000
  F   F272      1.0  0.75022  0.74066  0.50352  1.0000
  F   F273      1.0  0.12060  0.98879  0.25756  1.0000
  F   F274      1.0  0.11514  0.99263  0.78023  1.0000
  F   F275      1.0  0.12754  0.51217  0.24012  1.0000
  F   F276      1.0  0.12462  0.51006  0.74702  1.0000
  F   F277      1.0  0.37184  0.00012  0.25212  1.0000
  F   F278      1.0  0.36650  0.98585  0.77007  1.0000
  F   F279      1.0  0.37572  0.49158  0.25849  1.0000
  F   F280      1.0  0.37592  0.50328  0.75231  1.0000
  F   F281      1.0  0.62507  0.00228  0.24775  1.0000
  F   F282      1.0  0.63030  0.00617  0.72952  1.0000
  F   F283      1.0  0.62499  0.51184  0.25882  1.0000
  F   F284      1.0  0.62192  0.50086  0.75086  1.0000
  F   F285      1.0  0.87008  0.99709  0.26026  1.0000
  F   F286      1.0  0.87049  0.99793  0.76201  1.0000
  F   F287      1.0  0.87655  0.50302  0.24197  1.0000
  F   F288      1.0  0.87468  0.49441  0.74261  1.0000
  F   F289      1.0  0.04297  0.03280  0.02292  1.0000
  F   F290      1.0  0.05056  0.02196  0.51867  1.0000
  F   F291      1.0  0.03898  0.52514  0.02549  1.0000
  F   F292      1.0  0.04470  0.52433  0.52731  1.0000
  F   F293      1.0  0.28738  0.03263  0.01746  1.0000
  F   F294      1.0  0.29985  0.02835  0.51108  1.0000
  F   F295      1.0  0.29362  0.52046  0.03127  1.0000
  F   F296      1.0  0.29948  0.53661  0.50897  1.0000
  F   F297      1.0  0.54445  0.04145  0.01829  1.0000
  F   F298      1.0  0.55159  0.02484  0.52208  1.0000
  F   F299      1.0  0.54449  0.53081  0.01471  1.0000
  F   F300      1.0  0.54314  0.54166  0.53217  1.0000
  F   F301      1.0  0.79580  0.02606  0.02255  1.0000
  F   F302      1.0  0.79982  0.02441  0.52509  1.0000
  F   F303      1.0  0.79128  0.51638  0.02837  1.0000
  F   F304      1.0  0.78648  0.53857  0.52105  1.0000
  F   F305      1.0  0.23762  0.40581  0.22984  1.0000
  F   F306      1.0  0.23054  0.41509  0.73108  1.0000
  F   F307      1.0  0.23579  0.92064  0.21811  1.0000
  F   F308      1.0  0.23028  0.91236  0.72428  1.0000
  F   F309      1.0  0.48819  0.40079  0.23349  1.0000
  F   F310      1.0  0.48413  0.41104  0.71961  1.0000
  F   F311      1.0  0.48442  0.93666  0.22884  1.0000
  F   F312      1.0  0.48743  0.91077  0.74128  1.0000
  F   F313      1.0  0.73331  0.42644  0.21812  1.0000
  F   F314      1.0  0.73545  0.42404  0.71355  1.0000
  F   F315      1.0  0.73557  0.92118  0.22221  1.0000
  F   F316      1.0  0.73477  0.90835  0.72783  1.0000
  F   F317      1.0  0.98304  0.41898  0.22918  1.0000
  F   F318      1.0  0.98583  0.41536  0.72732  1.0000
  F   F319      1.0  0.98545  0.90570  0.23895  1.0000
  F   F320      1.0  0.98739  0.93105  0.72349  1.0000
  F   F321      1.0  0.21281  0.47274  0.46238  1.0000
  F   F322      1.0  0.20693  0.45687  0.98402  1.0000
  F   F323      1.0  0.19576  0.97489  0.48468  1.0000
  F   F324      1.0  0.20828  0.96436  0.97385  1.0000
  F   F325      1.0  0.45856  0.46428  0.47959  1.0000
  F   F326      1.0  0.45346  0.47946  0.98462  1.0000
  F   F327      1.0  0.46515  0.97127  0.46775  1.0000
  F   F328      1.0  0.44275  0.96567  0.99068  1.0000
  F   F329      1.0  0.70452  0.46994  0.47896  1.0000
  F   F330      1.0  0.70894  0.46359  0.98111  1.0000
  F   F331      1.0  0.71111  0.96468  0.47481  1.0000
  F   F332      1.0  0.71903  0.96874  0.95867  1.0000
  F   F333      1.0  0.95621  0.45897  0.46362  1.0000
  F   F334      1.0  0.94992  0.47249  0.99395  1.0000
  F   F335      1.0  0.95574  0.96827  0.48254  1.0000
  F   F336      1.0  0.95869  0.97030  0.97031  1.0000
  F   F337      1.0  0.01600  0.09498  0.26411  1.0000
  F   F338      1.0  0.01244  0.08791  0.77045  1.0000
  F   F339      1.0  0.01961  0.57037  0.27999  1.0000
  F   F340      1.0  0.01149  0.58048  0.79639  1.0000
  F   F341      1.0  0.26245  0.08157  0.29895  1.0000
  F   F342      1.0  0.26366  0.07686  0.77385  1.0000
  F   F343      1.0  0.26242  0.57505  0.26177  1.0000
  F   F344      1.0  0.26607  0.58659  0.76515  1.0000
  F   F345      1.0  0.51427  0.09282  0.26498  1.0000
  F   F346      1.0  0.51117  0.09220  0.76860  1.0000
  F   F347      1.0  0.51493  0.57235  0.26640  1.0000
  F   F348      1.0  0.51693  0.58845  0.75678  1.0000
  F   F349      1.0  0.76062  0.09842  0.27650  1.0000
  F   F350      1.0  0.76242  0.09199  0.76714  1.0000
  F   F351      1.0  0.76551  0.60010  0.27149  1.0000
  F   F352      1.0  0.76723  0.56416  0.79067  1.0000
  F   F353      1.0  0.10358  0.40069  0.46473  1.0000
  F   F354      1.0  0.10011  0.41581  0.96641  1.0000
  F   F355      1.0  0.10669  0.88675  0.46777  1.0000
  F   F356      1.0  0.10585  0.91692  0.97048  1.0000
  F   F357      1.0  0.35332  0.40683  0.47061  1.0000
  F   F358      1.0  0.34784  0.39210  0.96770  1.0000
  F   F359      1.0  0.35406  0.89285  0.46545  1.0000
  F   F360      1.0  0.35361  0.90111  0.96641  1.0000
  F   F361      1.0  0.60068  0.41897  0.45759  1.0000
  F   F362      1.0  0.60275  0.40251  0.96772  1.0000
  F   F363      1.0  0.60413  0.88195  0.45474  1.0000
  F   F364      1.0  0.59631  0.91467  0.95544  1.0000
  F   F365      1.0  0.85219  0.43118  0.46541  1.0000
  F   F366      1.0  0.84916  0.39803  0.95870  1.0000
  F   F367      1.0  0.84454  0.88655  0.47129  1.0000
  F   F368      1.0  0.85444  0.90467  0.95736  1.0000
  F   F369      1.0  0.04937  0.29948  0.28557  1.0000
  F   F370      1.0  0.04482  0.29235  0.79591  1.0000
  F   F371      1.0  0.04791  0.79822  0.28547  1.0000
  F   F372      1.0  0.04402  0.78685  0.79678  1.0000
  F   F373      1.0  0.29607  0.29193  0.29092  1.0000
  F   F374      1.0  0.29887  0.30690  0.77880  1.0000
  F   F375      1.0  0.29721  0.79827  0.27567  1.0000
  F   F376      1.0  0.29076  0.79878  0.79045  1.0000
  F   F377      1.0  0.55606  0.29890  0.29057  1.0000
  F   F378      1.0  0.55218  0.28588  0.79704  1.0000
  F   F379      1.0  0.53245  0.80346  0.27848  1.0000
  F   F380      1.0  0.55158  0.78761  0.78346  1.0000
  F   F381      1.0  0.79918  0.30340  0.28720  1.0000
  F   F382      1.0  0.79179  0.28642  0.78758  1.0000
  F   F383      1.0  0.79803  0.78480  0.27986  1.0000
  F   F384      1.0  0.79827  0.80429  0.79565  1.0000
