data_image0
_chemical_formula_structural       Hf96F384
_chemical_formula_sum              "Hf96 F384"
_cell_length_a       31.0297
_cell_length_b       15.5152
_cell_length_c       15.5086
_cell_angle_alpha    63.342
_cell_angle_beta     63.342
_cell_angle_gamma    80.1625

_space_group_name_H-M_alt    "P 1"
_space_group_IT_number       1

loop_
  _space_group_symop_operation_xyz
  'x, y, z'

loop_
  _atom_site_type_symbol
  _atom_site_label
  _atom_site_symmetry_multiplicity
  _atom_site_fract_x
  _atom_site_fract_y
  _atom_site_fract_z
  _atom_site_occupancy
  Hf  Hf1       1.0  0.19738  0.09768  0.38320  1.0000
  Hf  Hf2       1.0  0.19339  0.09595  0.88865  1.0000
  Hf  Hf3       1.0  0.19668  0.59469  0.37666  1.0000
  Hf  Hf4       1.0  0.19785  0.60010  0.87543  1.0000
  Hf  Hf5       1.0  0.44592  0.11524  0.37012  1.0000
  Hf  Hf6       1.0  0.44799  0.11688  0.86548  1.0000
  Hf  Hf7       1.0  0.44803  0.60560  0.38116  1.0000
  Hf  Hf8       1.0  0.45362  0.61679  0.86040  1.0000
  Hf  Hf9       1.0  0.69767  0.11713  0.36827  1.0000
  Hf  Hf10      1.0  0.69407  0.11253  0.88085  1.0000
  Hf  Hf11      1.0  0.69642  0.62091  0.37150  1.0000
  Hf  Hf12      1.0  0.69871  0.60908  0.86606  1.0000
  Hf  Hf13      1.0  0.94821  0.10585  0.37771  1.0000
  Hf  Hf14      1.0  0.94859  0.10678  0.87273  1.0000
  Hf  Hf15      1.0  0.94721  0.60676  0.37280  1.0000
  Hf  Hf16      1.0  0.94692  0.60641  0.88073  1.0000
  Hf  Hf17      1.0  0.05390  0.39085  0.13088  1.0000
  Hf  Hf18      1.0  0.05108  0.37936  0.63839  1.0000
  Hf  Hf19      1.0  0.05465  0.88318  0.13408  1.0000
  Hf  Hf20      1.0  0.05075  0.88007  0.62920  1.0000
  Hf  Hf21      1.0  0.30229  0.39265  0.13144  1.0000
  Hf  Hf22      1.0  0.30001  0.39352  0.63202  1.0000
  Hf  Hf23      1.0  0.30386  0.89287  0.12478  1.0000
  Hf  Hf24      1.0  0.30457  0.89498  0.61556  1.0000
  Hf  Hf25      1.0  0.55491  0.39838  0.12308  1.0000
  Hf  Hf26      1.0  0.55295  0.39492  0.62271  1.0000
  Hf  Hf27      1.0  0.55174  0.89493  0.12365  1.0000
  Hf  Hf28      1.0  0.55507  0.90485  0.61645  1.0000
  Hf  Hf29      1.0  0.80298  0.39143  0.12442  1.0000
  Hf  Hf30      1.0  0.80743  0.39899  0.61750  1.0000
  Hf  Hf31      1.0  0.79854  0.90101  0.13175  1.0000
  Hf  Hf32      1.0  0.80661  0.89590  0.62636  1.0000
  Hf  Hf33      1.0  0.05695  0.17551  0.42314  1.0000
  Hf  Hf34      1.0  0.05262  0.17028  0.92946  1.0000
  Hf  Hf35      1.0  0.05807  0.67393  0.41887  1.0000
  Hf  Hf36      1.0  0.05920  0.68087  0.91533  1.0000
  Hf  Hf37      1.0  0.31056  0.18370  0.41036  1.0000
  Hf  Hf38      1.0  0.30568  0.17737  0.91482  1.0000
  Hf  Hf39      1.0  0.30792  0.68106  0.41472  1.0000
  Hf  Hf40      1.0  0.30709  0.68465  0.90922  1.0000
  Hf  Hf41      1.0  0.55716  0.18936  0.40481  1.0000
  Hf  Hf42      1.0  0.55652  0.18293  0.91044  1.0000
  Hf  Hf43      1.0  0.55509  0.68274  0.41284  1.0000
  Hf  Hf44      1.0  0.55505  0.68665  0.92022  1.0000
  Hf  Hf45      1.0  0.80403  0.17736  0.42621  1.0000
  Hf  Hf46      1.0  0.80571  0.18736  0.91722  1.0000
  Hf  Hf47      1.0  0.80617  0.68942  0.41395  1.0000
  Hf  Hf48      1.0  0.80655  0.68655  0.91591  1.0000
  Hf  Hf49      1.0  0.15446  0.37018  0.34374  1.0000
  Hf  Hf50      1.0  0.16085  0.37603  0.83585  1.0000
  Hf  Hf51      1.0  0.15566  0.87850  0.33840  1.0000
  Hf  Hf52      1.0  0.16061  0.88659  0.83264  1.0000
  Hf  Hf53      1.0  0.40864  0.39157  0.33526  1.0000
  Hf  Hf54      1.0  0.41245  0.39584  0.82216  1.0000
  Hf  Hf55      1.0  0.40776  0.89372  0.32910  1.0000
  Hf  Hf56      1.0  0.40931  0.88135  0.83266  1.0000
  Hf  Hf57      1.0  0.65899  0.40015  0.32757  1.0000
  Hf  Hf58      1.0  0.66007  0.39205  0.82957  1.0000
  Hf  Hf59      1.0  0.65465  0.89230  0.33757  1.0000
  Hf  Hf60      1.0  0.66133  0.88946  0.82834  1.0000
  Hf  Hf61      1.0  0.90701  0.38828  0.33786  1.0000
  Hf  Hf62      1.0  0.90914  0.39413  0.82923  1.0000
  Hf  Hf63      1.0  0.90785  0.88927  0.33751  1.0000
  Hf  Hf64      1.0  0.90693  0.88738  0.84410  1.0000
  Hf  Hf65      1.0  0.19523  0.31291  0.08240  1.0000
  Hf  Hf66      1.0  0.19132  0.30715  0.58324  1.0000
  Hf  Hf67      1.0  0.19525  0.81696  0.07867  1.0000
  Hf  Hf68      1.0  0.19431  0.81194  0.58156  1.0000
  Hf  Hf69      1.0  0.44459  0.32666  0.07773  1.0000
  Hf  Hf70      1.0  0.44179  0.32210  0.58333  1.0000
  Hf  Hf71      1.0  0.44412  0.81891  0.07971  1.0000
  Hf  Hf72      1.0  0.44657  0.82689  0.57331  1.0000
  Hf  Hf73      1.0  0.69161  0.32026  0.08321  1.0000
  Hf  Hf74      1.0  0.69528  0.32904  0.57575  1.0000
  Hf  Hf75      1.0  0.69279  0.82005  0.08415  1.0000
  Hf  Hf76      1.0  0.69605  0.82331  0.57614  1.0000
  Hf  Hf77      1.0  0.94148  0.31410  0.09131  1.0000
  Hf  Hf78      1.0  0.94209  0.31565  0.59367  1.0000
  Hf  Hf79      1.0  0.94447  0.80729  0.09532  1.0000
  Hf  Hf80      1.0  0.94270  0.81118  0.59431  1.0000
  Hf  Hf81      1.0  0.08641  0.11351  0.17336  1.0000
  Hf  Hf82      1.0  0.08958  0.09513  0.68003  1.0000
  Hf  Hf83      1.0  0.09603  0.60767  0.16414  1.0000
  Hf  Hf84      1.0  0.09428  0.59979  0.66969  1.0000
  Hf  Hf85      1.0  0.34347  0.11599  0.15760  1.0000
  Hf  Hf86      1.0  0.34005  0.10718  0.66973  1.0000
  Hf  Hf87      1.0  0.34229  0.60787  0.16755  1.0000
  Hf  Hf88      1.0  0.33933  0.61513  0.66132  1.0000
  Hf  Hf89      1.0  0.58812  0.11549  0.16065  1.0000
  Hf  Hf90      1.0  0.59373  0.11707  0.65837  1.0000
  Hf  Hf91      1.0  0.58865  0.61661  0.16713  1.0000
  Hf  Hf92      1.0  0.59514  0.62834  0.65688  1.0000
  Hf  Hf93      1.0  0.84243  0.11717  0.16161  1.0000
  Hf  Hf94      1.0  0.83502  0.11411  0.67441  1.0000
  Hf  Hf95      1.0  0.83710  0.60994  0.17093  1.0000
  Hf  Hf96      1.0  0.84099  0.62071  0.66326  1.0000
  F   F1        1.0  0.07851  0.12239  0.30939  1.0000
  F   F2        1.0  0.07931  0.10680  0.81577  1.0000
  F   F3        1.0  0.08337  0.62912  0.29681  1.0000
  F   F4        1.0  0.07482  0.61969  0.81151  1.0000
  F   F5        1.0  0.32306  0.12272  0.30183  1.0000
  F   F6        1.0  0.32960  0.12626  0.80208  1.0000
  F   F7        1.0  0.33534  0.62508  0.29869  1.0000
  F   F8        1.0  0.32912  0.63243  0.79590  1.0000
  F   F9        1.0  0.57216  0.13006  0.29449  1.0000
  F   F10       1.0  0.58140  0.11527  0.80911  1.0000
  F   F11       1.0  0.57276  0.62694  0.30867  1.0000
  F   F12       1.0  0.58220  0.64897  0.79027  1.0000
  F   F13       1.0  0.83022  0.10922  0.31360  1.0000
  F   F14       1.0  0.82865  0.12971  0.81513  1.0000
  F   F15       1.0  0.82245  0.62927  0.30805  1.0000
  F   F16       1.0  0.83162  0.64725  0.79033  1.0000
  F   F17       1.0  0.18723  0.32796  0.44327  1.0000
  F   F18       1.0  0.18901  0.33095  0.93653  1.0000
  F   F19       1.0  0.18782  0.84100  0.43699  1.0000
  F   F20       1.0  0.18714  0.82517  0.95075  1.0000
  F   F21       1.0  0.43763  0.35492  0.44073  1.0000
  F   F22       1.0  0.43868  0.34451  0.94114  1.0000
  F   F23       1.0  0.43151  0.83382  0.44708  1.0000
  F   F24       1.0  0.42870  0.84930  0.94919  1.0000
  F   F25       1.0  0.69072  0.34963  0.43179  1.0000
  F   F26       1.0  0.68703  0.34325  0.93989  1.0000
  F   F27       1.0  0.68494  0.84134  0.44363  1.0000
  F   F28       1.0  0.68515  0.84403  0.94464  1.0000
  F   F29       1.0  0.92484  0.33489  0.46933  1.0000
  F   F30       1.0  0.94616  0.34635  0.94059  1.0000
  F   F31       1.0  0.94300  0.84484  0.44561  1.0000
  F   F32       1.0  0.93615  0.82917  0.95184  1.0000
  F   F33       1.0  0.17059  0.36848  0.20316  1.0000
  F   F34       1.0  0.16819  0.35886  0.69291  1.0000
  F   F35       1.0  0.17007  0.86705  0.19079  1.0000
  F   F36       1.0  0.16911  0.87704  0.68342  1.0000
  F   F37       1.0  0.41304  0.36542  0.20291  1.0000
  F   F38       1.0  0.42157  0.36884  0.69628  1.0000
  F   F39       1.0  0.42734  0.87403  0.19057  1.0000
  F   F40       1.0  0.42823  0.88406  0.68071  1.0000
  F   F41       1.0  0.66779  0.38339  0.18567  1.0000
  F   F42       1.0  0.66535  0.37057  0.70157  1.0000
  F   F43       1.0  0.66707  0.87312  0.19928  1.0000
  F   F44       1.0  0.67476  0.86168  0.69806  1.0000
  F   F45       1.0  0.91769  0.36129  0.21373  1.0000
  F   F46       1.0  0.91938  0.37926  0.69537  1.0000
  F   F47       1.0  0.91847  0.85603  0.20891  1.0000
  F   F48       1.0  0.91913  0.87368  0.69818  1.0000
  F   F49       1.0  0.06625  0.16632  0.05893  1.0000
  F   F50       1.0  0.06409  0.14686  0.56388  1.0000
  F   F51       1.0  0.07404  0.65435  0.04746  1.0000
  F   F52       1.0  0.06928  0.65376  0.55238  1.0000
  F   F53       1.0  0.31374  0.16092  0.04503  1.0000
  F   F54       1.0  0.31370  0.15080  0.55343  1.0000
  F   F55       1.0  0.31187  0.64212  0.05139  1.0000
  F   F56       1.0  0.30635  0.66355  0.55522  1.0000
  F   F57       1.0  0.56296  0.16889  0.04516  1.0000
  F   F58       1.0  0.56917  0.17362  0.54438  1.0000
  F   F59       1.0  0.55444  0.65990  0.06637  1.0000
  F   F60       1.0  0.55875  0.65669  0.55638  1.0000
  F   F61       1.0  0.81142  0.16442  0.06179  1.0000
  F   F62       1.0  0.80192  0.15288  0.57362  1.0000
  F   F63       1.0  0.79642  0.64754  0.08068  1.0000
  F   F64       1.0  0.81962  0.67463  0.54399  1.0000
  F   F65       1.0  0.20743  0.20287  0.19249  1.0000
  F   F66       1.0  0.20379  0.18834  0.71409  1.0000
  F   F67       1.0  0.19711  0.68926  0.22271  1.0000
  F   F68       1.0  0.19275  0.69734  0.70927  1.0000
  F   F69       1.0  0.45700  0.21967  0.19963  1.0000
  F   F70       1.0  0.45619  0.20555  0.70375  1.0000
  F   F71       1.0  0.45311  0.70282  0.19562  1.0000
  F   F72       1.0  0.47098  0.71570  0.69483  1.0000
  F   F73       1.0  0.69388  0.19993  0.21251  1.0000
  F   F74       1.0  0.70318  0.21885  0.70272  1.0000
  F   F75       1.0  0.71186  0.71211  0.19515  1.0000
  F   F76       1.0  0.71050  0.70134  0.70720  1.0000
  F   F77       1.0  0.94403  0.20437  0.22546  1.0000
  F   F78       1.0  0.94996  0.20698  0.72726  1.0000
  F   F79       1.0  0.95893  0.70405  0.21880  1.0000
  F   F80       1.0  0.95164  0.69460  0.70712  1.0000
  F   F81       1.0  0.14935  0.06997  0.05210  1.0000
  F   F82       1.0  0.15379  0.08932  0.54244  1.0000
  F   F83       1.0  0.15650  0.59088  0.03011  1.0000
  F   F84       1.0  0.14888  0.56581  0.54872  1.0000
  F   F85       1.0  0.40655  0.10737  0.02862  1.0000
  F   F86       1.0  0.40048  0.09503  0.53493  1.0000
  F   F87       1.0  0.39344  0.59515  0.04066  1.0000
  F   F88       1.0  0.39529  0.61799  0.53045  1.0000
  F   F89       1.0  0.64791  0.09889  0.03791  1.0000
  F   F90       1.0  0.65096  0.08122  0.53022  1.0000
  F   F91       1.0  0.64821  0.61581  0.03438  1.0000
  F   F92       1.0  0.64452  0.61291  0.52368  1.0000
  F   F93       1.0  0.89870  0.09326  0.04206  1.0000
  F   F94       1.0  0.89413  0.09535  0.56074  1.0000
  F   F95       1.0  0.89402  0.59850  0.03861  1.0000
  F   F96       1.0  0.90298  0.59425  0.53107  1.0000
  F   F97       1.0  0.14969  0.18718  0.12189  1.0000
  F   F98       1.0  0.14688  0.19265  0.62432  1.0000
  F   F99       1.0  0.15266  0.69171  0.11941  1.0000
  F   F100      1.0  0.15046  0.69240  0.60866  1.0000
  F   F101      1.0  0.39684  0.20765  0.13109  1.0000
  F   F102      1.0  0.39913  0.20283  0.62615  1.0000
  F   F103      1.0  0.40116  0.70607  0.10558  1.0000
  F   F104      1.0  0.40434  0.71025  0.63645  1.0000
  F   F105      1.0  0.64758  0.20017  0.12174  1.0000
  F   F106      1.0  0.65119  0.19608  0.61572  1.0000
  F   F107      1.0  0.65241  0.69932  0.13252  1.0000
  F   F108      1.0  0.65741  0.70413  0.61069  1.0000
  F   F109      1.0  0.88972  0.21034  0.12505  1.0000
  F   F110      1.0  0.89762  0.19967  0.65455  1.0000
  F   F111      1.0  0.90372  0.68860  0.14408  1.0000
  F   F112      1.0  0.90512  0.69322  0.62331  1.0000
  F   F113      1.0  0.09880  0.29164  0.38296  1.0000
  F   F114      1.0  0.10375  0.28640  0.87874  1.0000
  F   F115      1.0  0.09371  0.79468  0.37578  1.0000
  F   F116      1.0  0.10321  0.79912  0.87038  1.0000
  F   F117      1.0  0.35266  0.29803  0.37701  1.0000
  F   F118      1.0  0.35011  0.29778  0.84501  1.0000
  F   F119      1.0  0.35193  0.80042  0.36928  1.0000
  F   F120      1.0  0.35212  0.80530  0.87068  1.0000
  F   F121      1.0  0.59838  0.31922  0.37719  1.0000
  F   F122      1.0  0.60177  0.30147  0.86900  1.0000
  F   F123      1.0  0.59843  0.80992  0.37963  1.0000
  F   F124      1.0  0.60864  0.78497  0.87190  1.0000
  F   F125      1.0  0.84598  0.29982  0.40816  1.0000
  F   F126      1.0  0.84758  0.30975  0.86276  1.0000
  F   F127      1.0  0.84878  0.80445  0.37545  1.0000
  F   F128      1.0  0.84991  0.79512  0.89337  1.0000
  F   F129      1.0  0.05932  0.24822  0.15069  1.0000
  F   F130      1.0  0.06173  0.23379  0.65103  1.0000
  F   F131      1.0  0.06839  0.74432  0.14166  1.0000
  F   F132      1.0  0.06360  0.74143  0.65121  1.0000
  F   F133      1.0  0.31821  0.25986  0.12403  1.0000
  F   F134      1.0  0.31618  0.24102  0.65071  1.0000
  F   F135      1.0  0.31409  0.73645  0.14300  1.0000
  F   F136      1.0  0.31733  0.75538  0.63165  1.0000
  F   F137      1.0  0.56203  0.25834  0.14111  1.0000
  F   F138      1.0  0.56593  0.25578  0.63759  1.0000
  F   F139      1.0  0.56666  0.74984  0.14820  1.0000
  F   F140      1.0  0.57422  0.76733  0.61167  1.0000
  F   F141      1.0  0.79949  0.24625  0.16481  1.0000
  F   F142      1.0  0.82157  0.25464  0.62117  1.0000
  F   F143      1.0  0.81694  0.75442  0.13071  1.0000
  F   F144      1.0  0.81155  0.74637  0.65210  1.0000
  F   F145      1.0  0.12635  0.36558  0.11252  1.0000
  F   F146      1.0  0.11620  0.35291  0.63051  1.0000
  F   F147      1.0  0.12940  0.86328  0.09732  1.0000
  F   F148      1.0  0.12440  0.86418  0.60634  1.0000
  F   F149      1.0  0.37550  0.39756  0.08469  1.0000
  F   F150      1.0  0.37159  0.37760  0.61312  1.0000
  F   F151      1.0  0.37216  0.85152  0.12802  1.0000
  F   F152      1.0  0.37216  0.86949  0.61245  1.0000
  F   F153      1.0  0.62550  0.38139  0.09374  1.0000
  F   F154      1.0  0.63184  0.37783  0.59059  1.0000
  F   F155      1.0  0.62011  0.88739  0.08952  1.0000
  F   F156      1.0  0.62520  0.87957  0.60901  1.0000
  F   F157      1.0  0.87695  0.36782  0.11209  1.0000
  F   F158      1.0  0.87347  0.37155  0.62287  1.0000
  F   F159      1.0  0.87337  0.86864  0.11126  1.0000
  F   F160      1.0  0.87710  0.87815  0.60851  1.0000
  F   F161      1.0  0.19095  0.24283  0.34367  1.0000
  F   F162      1.0  0.19386  0.24575  0.84081  1.0000
  F   F163      1.0  0.17937  0.73928  0.36663  1.0000
  F   F164      1.0  0.19406  0.74801  0.84176  1.0000
  F   F165      1.0  0.44389  0.25158  0.33822  1.0000
  F   F166      1.0  0.42754  0.25377  0.86395  1.0000
  F   F167      1.0  0.44790  0.75224  0.33598  1.0000
  F   F168      1.0  0.43543  0.75130  0.85033  1.0000
  F   F169      1.0  0.67886  0.25752  0.35507  1.0000
  F   F170      1.0  0.67921  0.25087  0.86685  1.0000
  F   F171      1.0  0.68792  0.76331  0.34234  1.0000
  F   F172      1.0  0.69153  0.75291  0.84386  1.0000
  F   F173      1.0  0.94014  0.24843  0.36238  1.0000
  F   F174      1.0  0.93477  0.25136  0.86258  1.0000
  F   F175      1.0  0.92964  0.74695  0.38058  1.0000
  F   F176      1.0  0.94414  0.74698  0.85141  1.0000
  F   F177      1.0  0.12597  0.13097  0.38906  1.0000
  F   F178      1.0  0.12264  0.12286  0.90748  1.0000
  F   F179      1.0  0.12490  0.60486  0.40344  1.0000
  F   F180      1.0  0.12735  0.62906  0.88078  1.0000
  F   F181      1.0  0.38180  0.14102  0.36297  1.0000
  F   F182      1.0  0.37492  0.12250  0.89334  1.0000
  F   F183      1.0  0.37693  0.62574  0.39341  1.0000
  F   F184      1.0  0.38032  0.62849  0.88243  1.0000
  F   F185      1.0  0.62015  0.13089  0.39091  1.0000
  F   F186      1.0  0.62210  0.13314  0.89286  1.0000
  F   F187      1.0  0.62602  0.64824  0.37517  1.0000
  F   F188      1.0  0.62634  0.62790  0.89424  1.0000
  F   F189      1.0  0.87199  0.12538  0.41604  1.0000
  F   F190      1.0  0.87662  0.11959  0.90604  1.0000
  F   F191      1.0  0.87242  0.63079  0.38776  1.0000
  F   F192      1.0  0.87641  0.63795  0.88886  1.0000
  F   F193      1.0  0.00416  0.34864  0.07477  1.0000
  F   F194      1.0  0.00458  0.35903  0.58528  1.0000
  F   F195      1.0  0.01111  0.85786  0.08365  1.0000
  F   F196      1.0  0.00787  0.86377  0.55894  1.0000
  F   F197      1.0  0.25615  0.35458  0.07904  1.0000
  F   F198      1.0  0.25679  0.34239  0.59463  1.0000
  F   F199      1.0  0.25497  0.85702  0.07913  1.0000
  F   F200      1.0  0.25694  0.85393  0.57809  1.0000
  F   F201      1.0  0.50892  0.37055  0.07227  1.0000
  F   F202      1.0  0.50304  0.36995  0.57344  1.0000
  F   F203      1.0  0.50756  0.85764  0.08197  1.0000
  F   F204      1.0  0.51307  0.87140  0.56240  1.0000
  F   F205      1.0  0.75573  0.37652  0.06827  1.0000
  F   F206      1.0  0.75776  0.36296  0.58098  1.0000
  F   F207      1.0  0.75472  0.86656  0.08887  1.0000
  F   F208      1.0  0.76173  0.87220  0.56590  1.0000
  F   F209      1.0  0.07664  0.48034  0.16735  1.0000
  F   F210      1.0  0.06563  0.47194  0.69930  1.0000
  F   F211      1.0  0.07229  0.97432  0.18069  1.0000
  F   F212      1.0  0.06813  0.97303  0.68757  1.0000
  F   F213      1.0  0.30965  0.47656  0.19737  1.0000
  F   F214      1.0  0.31831  0.49336  0.67333  1.0000
  F   F215      1.0  0.32046  0.98785  0.17184  1.0000
  F   F216      1.0  0.31318  0.98075  0.67453  1.0000
  F   F217      1.0  0.57074  0.49088  0.16868  1.0000
  F   F218      1.0  0.56816  0.48687  0.66381  1.0000
  F   F219      1.0  0.56509  0.98547  0.17809  1.0000
  F   F220      1.0  0.56679  0.99462  0.67268  1.0000
  F   F221      1.0  0.81590  0.48105  0.17816  1.0000
  F   F222      1.0  0.82351  0.49057  0.66235  1.0000
  F   F223      1.0  0.81552  0.98872  0.18224  1.0000
  F   F224      1.0  0.81726  0.98721  0.68349  1.0000
  F   F225      1.0  0.24035  0.14633  0.42251  1.0000
  F   F226      1.0  0.24251  0.12517  0.93179  1.0000
  F   F227      1.0  0.24499  0.62918  0.42000  1.0000
  F   F228      1.0  0.24782  0.62838  0.92878  1.0000
  F   F229      1.0  0.49381  0.14832  0.41493  1.0000
  F   F230      1.0  0.49382  0.13935  0.92508  1.0000
  F   F231      1.0  0.48907  0.63746  0.43776  1.0000
  F   F232      1.0  0.49168  0.64551  0.93015  1.0000
  F   F233      1.0  0.73796  0.13736  0.43625  1.0000
  F   F234      1.0  0.73948  0.13648  0.93948  1.0000
  F   F235      1.0  0.73921  0.64364  0.43262  1.0000
  F   F236      1.0  0.74489  0.62209  0.92405  1.0000
  F   F237      1.0  0.99232  0.13594  0.43144  1.0000
  F   F238      1.0  0.98343  0.12448  0.94029  1.0000
  F   F239      1.0  0.99807  0.62864  0.41537  1.0000
  F   F240      1.0  0.99253  0.63870  0.92652  1.0000
  F   F241      1.0  0.17284  0.00912  0.34275  1.0000
  F   F242      1.0  0.18438  0.00219  0.82827  1.0000
  F   F243      1.0  0.18492  0.49767  0.33837  1.0000
  F   F244      1.0  0.17659  0.50426  0.84158  1.0000
  F   F245      1.0  0.42494  0.01078  0.33507  1.0000
  F   F246      1.0  0.43747  0.01286  0.83237  1.0000
  F   F247      1.0  0.43132  0.51397  0.32766  1.0000
  F   F248      1.0  0.43615  0.52318  0.81671  1.0000
  F   F249      1.0  0.67972  0.03059  0.31693  1.0000
  F   F250      1.0  0.67698  0.02023  0.84429  1.0000
  F   F251      1.0  0.67903  0.53136  0.32341  1.0000
  F   F252      1.0  0.68385  0.52566  0.80141  1.0000
  F   F253      1.0  0.92898  0.00431  0.33767  1.0000
  F   F254      1.0  0.93526  0.01339  0.81568  1.0000
  F   F255      1.0  0.93817  0.51810  0.30315  1.0000
  F   F256      1.0  0.92129  0.50423  0.85091  1.0000
  F   F257      1.0  0.99628  0.22023  0.01600  1.0000
  F   F258      1.0  0.00318  0.25454  0.49119  1.0000
  F   F259      1.0  0.00302  0.74605  0.01069  1.0000
  F   F260      1.0  0.00219  0.74673  0.49787  1.0000
  F   F261      1.0  0.24316  0.24330  0.99973  1.0000
  F   F262      1.0  0.25736  0.25780  0.48945  1.0000
  F   F263      1.0  0.25205  0.75918  0.99266  1.0000
  F   F264      1.0  0.24676  0.74176  0.49880  1.0000
  F   F265      1.0  0.50199  0.26580  0.99188  1.0000
  F   F266      1.0  0.50271  0.25865  0.49146  1.0000
  F   F267      1.0  0.50484  0.76964  0.97852  1.0000
  F   F268      1.0  0.49435  0.75266  0.50410  1.0000
  F   F269      1.0  0.74616  0.26431  0.99402  1.0000
  F   F270      1.0  0.74906  0.26381  0.48160  1.0000
  F   F271      1.0  0.75433  0.77712  0.98014  1.0000
  F   F272      1.0  0.75511  0.77325  0.48275  1.0000
  F   F273      1.0  0.12604  0.00148  0.25530  1.0000
  F   F274      1.0  0.13071  0.99122  0.74183  1.0000
  F   F275      1.0  0.12704  0.49370  0.25259  1.0000
  F   F276      1.0  0.12330  0.49464  0.76441  1.0000
  F   F277      1.0  0.37531  0.00338  0.23958  1.0000
  F   F278      1.0  0.37291  0.99074  0.74923  1.0000
  F   F279      1.0  0.38127  0.50087  0.24701  1.0000
  F   F280      1.0  0.37927  0.51325  0.72965  1.0000
  F   F281      1.0  0.61752  0.00320  0.24951  1.0000
  F   F282      1.0  0.63015  0.99771  0.73953  1.0000
  F   F283      1.0  0.62259  0.50787  0.24839  1.0000
  F   F284      1.0  0.62372  0.50399  0.74460  1.0000
  F   F285      1.0  0.87683  0.99477  0.25281  1.0000
  F   F286      1.0  0.86966  0.00686  0.75471  1.0000
  F   F287      1.0  0.87546  0.50098  0.24698  1.0000
  F   F288      1.0  0.86698  0.49608  0.75696  1.0000
  F   F289      1.0  0.03546  0.02668  0.04363  1.0000
  F   F290      1.0  0.04654  0.01547  0.53284  1.0000
  F   F291      1.0  0.04831  0.52399  0.01818  1.0000
  F   F292      1.0  0.04332  0.52831  0.53025  1.0000
  F   F293      1.0  0.28916  0.02625  0.02488  1.0000
  F   F294      1.0  0.28911  0.02969  0.51085  1.0000
  F   F295      1.0  0.29362  0.51367  0.02480  1.0000
  F   F296      1.0  0.29927  0.53215  0.51667  1.0000
  F   F297      1.0  0.53576  0.03600  0.02608  1.0000
  F   F298      1.0  0.53601  0.03946  0.54059  1.0000
  F   F299      1.0  0.54435  0.53837  0.01547  1.0000
  F   F300      1.0  0.53910  0.53272  0.51974  1.0000
  F   F301      1.0  0.79523  0.04495  0.02883  1.0000
  F   F302      1.0  0.79824  0.01886  0.52760  1.0000
  F   F303      1.0  0.79823  0.52662  0.01364  1.0000
  F   F304      1.0  0.78887  0.54113  0.53066  1.0000
  F   F305      1.0  0.23234  0.40882  0.23272  1.0000
  F   F306      1.0  0.23347  0.42118  0.73138  1.0000
  F   F307      1.0  0.23707  0.90766  0.22809  1.0000
  F   F308      1.0  0.23080  0.92119  0.71890  1.0000
  F   F309      1.0  0.48529  0.41285  0.22724  1.0000
  F   F310      1.0  0.48709  0.41725  0.71872  1.0000
  F   F311      1.0  0.48520  0.91854  0.23958  1.0000
  F   F312      1.0  0.48575  0.90672  0.73401  1.0000
  F   F313      1.0  0.73341  0.41329  0.21653  1.0000
  F   F314      1.0  0.73519  0.41371  0.72819  1.0000
  F   F315      1.0  0.73289  0.93285  0.21811  1.0000
  F   F316      1.0  0.73753  0.92029  0.73003  1.0000
  F   F317      1.0  0.98761  0.41524  0.22082  1.0000
  F   F318      1.0  0.98299  0.40120  0.73797  1.0000
  F   F319      1.0  0.98297  0.90122  0.23722  1.0000
  F   F320      1.0  0.98941  0.91051  0.73147  1.0000
  F   F321      1.0  0.20802  0.44712  0.48983  1.0000
  F   F322      1.0  0.20845  0.46050  0.98178  1.0000
  F   F323      1.0  0.21004  0.96200  0.48256  1.0000
  F   F324      1.0  0.21541  0.96079  0.97547  1.0000
  F   F325      1.0  0.45277  0.47200  0.48542  1.0000
  F   F326      1.0  0.46107  0.47385  0.97208  1.0000
  F   F327      1.0  0.45437  0.96842  0.47784  1.0000
  F   F328      1.0  0.45870  0.97186  0.97640  1.0000
  F   F329      1.0  0.70923  0.48356  0.47165  1.0000
  F   F330      1.0  0.70509  0.47205  0.96637  1.0000
  F   F331      1.0  0.70810  0.97316  0.47609  1.0000
  F   F332      1.0  0.70914  0.97177  0.98454  1.0000
  F   F333      1.0  0.95579  0.46182  0.47637  1.0000
  F   F334      1.0  0.95469  0.47502  0.98809  1.0000
  F   F335      1.0  0.95057  0.98164  0.48550  1.0000
  F   F336      1.0  0.95751  0.95482  0.98907  1.0000
  F   F337      1.0  0.01306  0.08388  0.26855  1.0000
  F   F338      1.0  0.01556  0.07784  0.77082  1.0000
  F   F339      1.0  0.01760  0.58357  0.27315  1.0000
  F   F340      1.0  0.00979  0.57847  0.76957  1.0000
  F   F341      1.0  0.26526  0.08718  0.26673  1.0000
  F   F342      1.0  0.26684  0.07172  0.78138  1.0000
  F   F343      1.0  0.26212  0.58290  0.27320  1.0000
  F   F344      1.0  0.26048  0.59137  0.76790  1.0000
  F   F345      1.0  0.50989  0.08082  0.26659  1.0000
  F   F346      1.0  0.51622  0.09106  0.76672  1.0000
  F   F347      1.0  0.51377  0.59222  0.27489  1.0000
  F   F348      1.0  0.52166  0.58734  0.77305  1.0000
  F   F349      1.0  0.76366  0.08967  0.27904  1.0000
  F   F350      1.0  0.76155  0.08932  0.78464  1.0000
  F   F351      1.0  0.76077  0.57937  0.28109  1.0000
  F   F352      1.0  0.76744  0.57394  0.77264  1.0000
  F   F353      1.0  0.09918  0.40279  0.46526  1.0000
  F   F354      1.0  0.10255  0.38160  0.96644  1.0000
  F   F355      1.0  0.09965  0.88591  0.47350  1.0000
  F   F356      1.0  0.10222  0.90333  0.95999  1.0000
  F   F357      1.0  0.35035  0.40113  0.46750  1.0000
  F   F358      1.0  0.35056  0.40037  0.92816  1.0000
  F   F359      1.0  0.34336  0.90697  0.45761  1.0000
  F   F360      1.0  0.34918  0.89865  0.96141  1.0000
  F   F361      1.0  0.60010  0.41763  0.46139  1.0000
  F   F362      1.0  0.60448  0.40810  0.96343  1.0000
  F   F363      1.0  0.60388  0.93193  0.46124  1.0000
  F   F364      1.0  0.60041  0.91841  0.94180  1.0000
  F   F365      1.0  0.85169  0.42947  0.44733  1.0000
  F   F366      1.0  0.84875  0.37782  0.97313  1.0000
  F   F367      1.0  0.85134  0.88525  0.47167  1.0000
  F   F368      1.0  0.85047  0.91565  0.95943  1.0000
  F   F369      1.0  0.05474  0.29777  0.28638  1.0000
  F   F370      1.0  0.04008  0.27388  0.80528  1.0000
  F   F371      1.0  0.04702  0.79003  0.28583  1.0000
  F   F372      1.0  0.04664  0.79674  0.79252  1.0000
  F   F373      1.0  0.30638  0.29907  0.27994  1.0000
  F   F374      1.0  0.28571  0.29704  0.78302  1.0000
  F   F375      1.0  0.29828  0.78748  0.28574  1.0000
  F   F376      1.0  0.29390  0.79496  0.79049  1.0000
  F   F377      1.0  0.55350  0.30347  0.28101  1.0000
  F   F378      1.0  0.54954  0.29681  0.78614  1.0000
  F   F379      1.0  0.54572  0.79303  0.29490  1.0000
  F   F380      1.0  0.55146  0.81233  0.76821  1.0000
  F   F381      1.0  0.80297  0.28805  0.29637  1.0000
  F   F382      1.0  0.79586  0.29221  0.78499  1.0000
  F   F383      1.0  0.79644  0.80212  0.29005  1.0000
  F   F384      1.0  0.79385  0.79305  0.79030  1.0000
