data_image0
_chemical_formula_structural       Hf96F384
_chemical_formula_sum              "Hf96 F384"
_cell_length_a       31.0186
_cell_length_b       15.5121
_cell_length_c       15.5026
_cell_angle_alpha    63.342
_cell_angle_beta     63.342
_cell_angle_gamma    80.1625

_space_group_name_H-M_alt    "P 1"
_space_group_IT_number       1

loop_
  _space_group_symop_operation_xyz
  'x, y, z'

loop_
  _atom_site_type_symbol
  _atom_site_label
  _atom_site_symmetry_multiplicity
  _atom_site_fract_x
  _atom_site_fract_y
  _atom_site_fract_z
  _atom_site_occupancy
  Hf  Hf1       1.0  0.19773  0.10253  0.37166  1.0000
  Hf  Hf2       1.0  0.19698  0.10094  0.88871  1.0000
  Hf  Hf3       1.0  0.19747  0.60056  0.37772  1.0000
  Hf  Hf4       1.0  0.19432  0.59948  0.88052  1.0000
  Hf  Hf5       1.0  0.44203  0.10190  0.38212  1.0000
  Hf  Hf6       1.0  0.44816  0.11687  0.87255  1.0000
  Hf  Hf7       1.0  0.44683  0.61424  0.37052  1.0000
  Hf  Hf8       1.0  0.44456  0.60570  0.87559  1.0000
  Hf  Hf9       1.0  0.69667  0.10752  0.37582  1.0000
  Hf  Hf10      1.0  0.69908  0.10908  0.87241  1.0000
  Hf  Hf11      1.0  0.69627  0.60504  0.36588  1.0000
  Hf  Hf12      1.0  0.69764  0.60600  0.87981  1.0000
  Hf  Hf13      1.0  0.94579  0.11484  0.36661  1.0000
  Hf  Hf14      1.0  0.94498  0.10789  0.88253  1.0000
  Hf  Hf15      1.0  0.94746  0.61390  0.37033  1.0000
  Hf  Hf16      1.0  0.94639  0.61165  0.87309  1.0000
  Hf  Hf17      1.0  0.05377  0.39986  0.12268  1.0000
  Hf  Hf18      1.0  0.05428  0.38946  0.62646  1.0000
  Hf  Hf19      1.0  0.05162  0.88823  0.13817  1.0000
  Hf  Hf20      1.0  0.05275  0.89156  0.62930  1.0000
  Hf  Hf21      1.0  0.30430  0.38462  0.12734  1.0000
  Hf  Hf22      1.0  0.30337  0.38467  0.62919  1.0000
  Hf  Hf23      1.0  0.30173  0.87971  0.13819  1.0000
  Hf  Hf24      1.0  0.30404  0.89625  0.61849  1.0000
  Hf  Hf25      1.0  0.55667  0.39651  0.11417  1.0000
  Hf  Hf26      1.0  0.55378  0.39699  0.62160  1.0000
  Hf  Hf27      1.0  0.55706  0.90400  0.12092  1.0000
  Hf  Hf28      1.0  0.55348  0.89298  0.62842  1.0000
  Hf  Hf29      1.0  0.80377  0.38509  0.13370  1.0000
  Hf  Hf30      1.0  0.80257  0.39948  0.61759  1.0000
  Hf  Hf31      1.0  0.80330  0.89083  0.12268  1.0000
  Hf  Hf32      1.0  0.80190  0.89795  0.62594  1.0000
  Hf  Hf33      1.0  0.05492  0.18064  0.41787  1.0000
  Hf  Hf34      1.0  0.05646  0.17605  0.92632  1.0000
  Hf  Hf35      1.0  0.05619  0.67560  0.41848  1.0000
  Hf  Hf36      1.0  0.05825  0.68316  0.91481  1.0000
  Hf  Hf37      1.0  0.30408  0.17378  0.42730  1.0000
  Hf  Hf38      1.0  0.30883  0.18648  0.91390  1.0000
  Hf  Hf39      1.0  0.30375  0.67515  0.42183  1.0000
  Hf  Hf40      1.0  0.30018  0.66301  0.93619  1.0000
  Hf  Hf41      1.0  0.55215  0.17873  0.41762  1.0000
  Hf  Hf42      1.0  0.55581  0.19547  0.90957  1.0000
  Hf  Hf43      1.0  0.55802  0.68349  0.41383  1.0000
  Hf  Hf44      1.0  0.55462  0.68174  0.91160  1.0000
  Hf  Hf45      1.0  0.80655  0.18482  0.41374  1.0000
  Hf  Hf46      1.0  0.80742  0.18741  0.91278  1.0000
  Hf  Hf47      1.0  0.80424  0.68608  0.41471  1.0000
  Hf  Hf48      1.0  0.80777  0.68171  0.91163  1.0000
  Hf  Hf49      1.0  0.15736  0.37937  0.33589  1.0000
  Hf  Hf50      1.0  0.15591  0.38804  0.83239  1.0000
  Hf  Hf51      1.0  0.15790  0.88947  0.33046  1.0000
  Hf  Hf52      1.0  0.15975  0.88404  0.83145  1.0000
  Hf  Hf53      1.0  0.41245  0.38710  0.32953  1.0000
  Hf  Hf54      1.0  0.40778  0.39378  0.83064  1.0000
  Hf  Hf55      1.0  0.40863  0.89057  0.32507  1.0000
  Hf  Hf56      1.0  0.40982  0.89354  0.83842  1.0000
  Hf  Hf57      1.0  0.65851  0.38067  0.33670  1.0000
  Hf  Hf58      1.0  0.66200  0.39403  0.82653  1.0000
  Hf  Hf59      1.0  0.66065  0.88815  0.33384  1.0000
  Hf  Hf60      1.0  0.65832  0.89526  0.83025  1.0000
  Hf  Hf61      1.0  0.90825  0.38883  0.32795  1.0000
  Hf  Hf62      1.0  0.91057  0.39010  0.83166  1.0000
  Hf  Hf63      1.0  0.90529  0.88532  0.33831  1.0000
  Hf  Hf64      1.0  0.90756  0.89246  0.83025  1.0000
  Hf  Hf65      1.0  0.19477  0.31081  0.08254  1.0000
  Hf  Hf66      1.0  0.19481  0.31704  0.58153  1.0000
  Hf  Hf67      1.0  0.19723  0.81060  0.08620  1.0000
  Hf  Hf68      1.0  0.19484  0.80984  0.58427  1.0000
  Hf  Hf69      1.0  0.44284  0.31571  0.08551  1.0000
  Hf  Hf70      1.0  0.44511  0.32106  0.57344  1.0000
  Hf  Hf71      1.0  0.44559  0.81842  0.07881  1.0000
  Hf  Hf72      1.0  0.44438  0.81794  0.57734  1.0000
  Hf  Hf73      1.0  0.69377  0.31864  0.08993  1.0000
  Hf  Hf74      1.0  0.69389  0.31370  0.58515  1.0000
  Hf  Hf75      1.0  0.69293  0.81831  0.08270  1.0000
  Hf  Hf76      1.0  0.69312  0.81973  0.58889  1.0000
  Hf  Hf77      1.0  0.94567  0.31931  0.08181  1.0000
  Hf  Hf78      1.0  0.94323  0.32161  0.57620  1.0000
  Hf  Hf79      1.0  0.94239  0.81669  0.08285  1.0000
  Hf  Hf80      1.0  0.94713  0.82082  0.58019  1.0000
  Hf  Hf81      1.0  0.09185  0.10939  0.16931  1.0000
  Hf  Hf82      1.0  0.09233  0.11275  0.66937  1.0000
  Hf  Hf83      1.0  0.09199  0.61089  0.16044  1.0000
  Hf  Hf84      1.0  0.09345  0.61140  0.66609  1.0000
  Hf  Hf85      1.0  0.34253  0.11327  0.16653  1.0000
  Hf  Hf86      1.0  0.33831  0.10688  0.67619  1.0000
  Hf  Hf87      1.0  0.34354  0.60411  0.17146  1.0000
  Hf  Hf88      1.0  0.33976  0.60887  0.66930  1.0000
  Hf  Hf89      1.0  0.59138  0.11698  0.16743  1.0000
  Hf  Hf90      1.0  0.58875  0.11804  0.66623  1.0000
  Hf  Hf91      1.0  0.58899  0.61517  0.16835  1.0000
  Hf  Hf92      1.0  0.59096  0.61580  0.66458  1.0000
  Hf  Hf93      1.0  0.84154  0.10980  0.16893  1.0000
  Hf  Hf94      1.0  0.84063  0.11360  0.66853  1.0000
  Hf  Hf95      1.0  0.83895  0.61358  0.16633  1.0000
  Hf  Hf96      1.0  0.84041  0.61914  0.66182  1.0000
  F   F1        1.0  0.08092  0.12756  0.30365  1.0000
  F   F2        1.0  0.08163  0.13540  0.79954  1.0000
  F   F3        1.0  0.07822  0.62919  0.30520  1.0000
  F   F4        1.0  0.08276  0.62568  0.80362  1.0000
  F   F5        1.0  0.33334  0.13133  0.30076  1.0000
  F   F6        1.0  0.32821  0.11507  0.82590  1.0000
  F   F7        1.0  0.33274  0.61918  0.30960  1.0000
  F   F8        1.0  0.32675  0.64120  0.79870  1.0000
  F   F9        1.0  0.56746  0.09455  0.32489  1.0000
  F   F10       1.0  0.58063  0.13899  0.79974  1.0000
  F   F11       1.0  0.57085  0.62911  0.31205  1.0000
  F   F12       1.0  0.58304  0.62563  0.80716  1.0000
  F   F13       1.0  0.82158  0.13308  0.30462  1.0000
  F   F14       1.0  0.83473  0.12817  0.80052  1.0000
  F   F15       1.0  0.82757  0.62118  0.31109  1.0000
  F   F16       1.0  0.82385  0.61572  0.81100  1.0000
  F   F17       1.0  0.18472  0.33828  0.45590  1.0000
  F   F18       1.0  0.18388  0.33412  0.94186  1.0000
  F   F19       1.0  0.18544  0.83618  0.44382  1.0000
  F   F20       1.0  0.19377  0.84688  0.93301  1.0000
  F   F21       1.0  0.44716  0.35161  0.42940  1.0000
  F   F22       1.0  0.42516  0.33722  0.95088  1.0000
  F   F23       1.0  0.43198  0.83764  0.45076  1.0000
  F   F24       1.0  0.44340  0.85192  0.93596  1.0000
  F   F25       1.0  0.68203  0.34303  0.44923  1.0000
  F   F26       1.0  0.68497  0.34884  0.94554  1.0000
  F   F27       1.0  0.68313  0.83942  0.45110  1.0000
  F   F28       1.0  0.68551  0.83807  0.94938  1.0000
  F   F29       1.0  0.93526  0.34066  0.43848  1.0000
  F   F30       1.0  0.93174  0.34388  0.94817  1.0000
  F   F31       1.0  0.93012  0.83797  0.45452  1.0000
  F   F32       1.0  0.93983  0.83248  0.93731  1.0000
  F   F33       1.0  0.17285  0.37693  0.18966  1.0000
  F   F34       1.0  0.17229  0.36905  0.69810  1.0000
  F   F35       1.0  0.16866  0.86766  0.20073  1.0000
  F   F36       1.0  0.17433  0.86889  0.69127  1.0000
  F   F37       1.0  0.41935  0.38588  0.18366  1.0000
  F   F38       1.0  0.41536  0.36927  0.70459  1.0000
  F   F39       1.0  0.42230  0.88066  0.18362  1.0000
  F   F40       1.0  0.41904  0.87374  0.69730  1.0000
  F   F41       1.0  0.66330  0.36133  0.20953  1.0000
  F   F42       1.0  0.66972  0.37261  0.69063  1.0000
  F   F43       1.0  0.67864  0.89206  0.17887  1.0000
  F   F44       1.0  0.66996  0.89580  0.68813  1.0000
  F   F45       1.0  0.92583  0.36737  0.19116  1.0000
  F   F46       1.0  0.92555  0.37647  0.68633  1.0000
  F   F47       1.0  0.91148  0.86277  0.19903  1.0000
  F   F48       1.0  0.92737  0.88711  0.68653  1.0000
  F   F49       1.0  0.05864  0.14926  0.06623  1.0000
  F   F50       1.0  0.06650  0.15824  0.55412  1.0000
  F   F51       1.0  0.06695  0.66235  0.04990  1.0000
  F   F52       1.0  0.06529  0.66264  0.54505  1.0000
  F   F53       1.0  0.31685  0.15143  0.04636  1.0000
  F   F54       1.0  0.31400  0.15144  0.56231  1.0000
  F   F55       1.0  0.31885  0.66160  0.06225  1.0000
  F   F56       1.0  0.30952  0.66314  0.55318  1.0000
  F   F57       1.0  0.56557  0.16846  0.04545  1.0000
  F   F58       1.0  0.56134  0.15275  0.56401  1.0000
  F   F59       1.0  0.56106  0.65983  0.05718  1.0000
  F   F60       1.0  0.56805  0.66161  0.54741  1.0000
  F   F61       1.0  0.81452  0.14949  0.05863  1.0000
  F   F62       1.0  0.81516  0.16790  0.55279  1.0000
  F   F63       1.0  0.80988  0.65809  0.06062  1.0000
  F   F64       1.0  0.81186  0.65645  0.56030  1.0000
  F   F65       1.0  0.19418  0.20514  0.21873  1.0000
  F   F66       1.0  0.21251  0.20947  0.69314  1.0000
  F   F67       1.0  0.19882  0.68928  0.21334  1.0000
  F   F68       1.0  0.20181  0.69700  0.70923  1.0000
  F   F69       1.0  0.44551  0.20751  0.21054  1.0000
  F   F70       1.0  0.44101  0.19658  0.70693  1.0000
  F   F71       1.0  0.45156  0.70505  0.21433  1.0000
  F   F72       1.0  0.44658  0.69556  0.72913  1.0000
  F   F73       1.0  0.71575  0.20399  0.20543  1.0000
  F   F74       1.0  0.70371  0.19664  0.71339  1.0000
  F   F75       1.0  0.70497  0.70457  0.20309  1.0000
  F   F76       1.0  0.70073  0.70483  0.71137  1.0000
  F   F77       1.0  0.95456  0.19592  0.20948  1.0000
  F   F78       1.0  0.94806  0.20311  0.70506  1.0000
  F   F79       1.0  0.95725  0.69547  0.20905  1.0000
  F   F80       1.0  0.95355  0.70317  0.70646  1.0000
  F   F81       1.0  0.14753  0.07332  0.05259  1.0000
  F   F82       1.0  0.15217  0.07938  0.54322  1.0000
  F   F83       1.0  0.15116  0.58751  0.04500  1.0000
  F   F84       1.0  0.14637  0.60082  0.52960  1.0000
  F   F85       1.0  0.40359  0.09629  0.03181  1.0000
  F   F86       1.0  0.39973  0.09229  0.54638  1.0000
  F   F87       1.0  0.40385  0.58237  0.05430  1.0000
  F   F88       1.0  0.39535  0.58986  0.53823  1.0000
  F   F89       1.0  0.65350  0.12040  0.02673  1.0000
  F   F90       1.0  0.65269  0.10394  0.52484  1.0000
  F   F91       1.0  0.65148  0.59557  0.04317  1.0000
  F   F92       1.0  0.64513  0.58947  0.54756  1.0000
  F   F93       1.0  0.89802  0.07956  0.04301  1.0000
  F   F94       1.0  0.89785  0.08463  0.53116  1.0000
  F   F95       1.0  0.89322  0.60129  0.02942  1.0000
  F   F96       1.0  0.90095  0.60875  0.52032  1.0000
  F   F97       1.0  0.15419  0.19117  0.11813  1.0000
  F   F98       1.0  0.14963  0.19588  0.62780  1.0000
  F   F99       1.0  0.15390  0.69435  0.11225  1.0000
  F   F100      1.0  0.15439  0.68419  0.62831  1.0000
  F   F101      1.0  0.40702  0.19428  0.12127  1.0000
  F   F102      1.0  0.39403  0.21500  0.61128  1.0000
  F   F103      1.0  0.39850  0.69470  0.12655  1.0000
  F   F104      1.0  0.40364  0.69304  0.63879  1.0000
  F   F105      1.0  0.64680  0.19663  0.14470  1.0000
  F   F106      1.0  0.64636  0.19811  0.62250  1.0000
  F   F107      1.0  0.64935  0.70523  0.11854  1.0000
  F   F108      1.0  0.64831  0.70142  0.62982  1.0000
  F   F109      1.0  0.90040  0.18731  0.12150  1.0000
  F   F110      1.0  0.90010  0.19952  0.61153  1.0000
  F   F111      1.0  0.89994  0.70141  0.12942  1.0000
  F   F112      1.0  0.89796  0.70144  0.63256  1.0000
  F   F113      1.0  0.10298  0.29362  0.36316  1.0000
  F   F114      1.0  0.10085  0.29208  0.89387  1.0000
  F   F115      1.0  0.10013  0.81164  0.36964  1.0000
  F   F116      1.0  0.10241  0.79917  0.86652  1.0000
  F   F117      1.0  0.34693  0.29690  0.37065  1.0000
  F   F118      1.0  0.34502  0.31116  0.88769  1.0000
  F   F119      1.0  0.35275  0.80246  0.36895  1.0000
  F   F120      1.0  0.34309  0.77752  0.85608  1.0000
  F   F121      1.0  0.59859  0.30078  0.39708  1.0000
  F   F122      1.0  0.59971  0.31396  0.87558  1.0000
  F   F123      1.0  0.60258  0.80888  0.35671  1.0000
  F   F124      1.0  0.59614  0.80192  0.87932  1.0000
  F   F125      1.0  0.84514  0.30719  0.36384  1.0000
  F   F126      1.0  0.85429  0.31139  0.87292  1.0000
  F   F127      1.0  0.84175  0.81189  0.39033  1.0000
  F   F128      1.0  0.85201  0.81394  0.85041  1.0000
  F   F129      1.0  0.06456  0.24519  0.14929  1.0000
  F   F130      1.0  0.05989  0.25311  0.64850  1.0000
  F   F131      1.0  0.06326  0.75067  0.15295  1.0000
  F   F132      1.0  0.07676  0.75614  0.62027  1.0000
  F   F133      1.0  0.32481  0.25273  0.12100  1.0000
  F   F134      1.0  0.30814  0.24462  0.66473  1.0000
  F   F135      1.0  0.31189  0.73845  0.16910  1.0000
  F   F136      1.0  0.32617  0.75714  0.62384  1.0000
  F   F137      1.0  0.56258  0.24637  0.14063  1.0000
  F   F138      1.0  0.55910  0.25722  0.65082  1.0000
  F   F139      1.0  0.57036  0.75459  0.13076  1.0000
  F   F140      1.0  0.56678  0.75324  0.63648  1.0000
  F   F141      1.0  0.81963  0.25130  0.13352  1.0000
  F   F142      1.0  0.80794  0.25712  0.64907  1.0000
  F   F143      1.0  0.81620  0.74301  0.15269  1.0000
  F   F144      1.0  0.80997  0.74881  0.64159  1.0000
  F   F145      1.0  0.12097  0.35617  0.11974  1.0000
  F   F146      1.0  0.12135  0.37090  0.61399  1.0000
  F   F147      1.0  0.12541  0.86692  0.10801  1.0000
  F   F148      1.0  0.12626  0.86683  0.60850  1.0000
  F   F149      1.0  0.37112  0.35945  0.12791  1.0000
  F   F150      1.0  0.38196  0.38399  0.59420  1.0000
  F   F151      1.0  0.37662  0.87098  0.09980  1.0000
  F   F152      1.0  0.37658  0.87549  0.60121  1.0000
  F   F153      1.0  0.62133  0.37223  0.10722  1.0000
  F   F154      1.0  0.62440  0.36444  0.61011  1.0000
  F   F155      1.0  0.62546  0.88644  0.10571  1.0000
  F   F156      1.0  0.61903  0.86150  0.63170  1.0000
  F   F157      1.0  0.87419  0.37438  0.11644  1.0000
  F   F158      1.0  0.87074  0.36814  0.61022  1.0000
  F   F159      1.0  0.87479  0.88082  0.08947  1.0000
  F   F160      1.0  0.87546  0.86398  0.62114  1.0000
  F   F161      1.0  0.18424  0.24013  0.36647  1.0000
  F   F162      1.0  0.18898  0.24469  0.84976  1.0000
  F   F163      1.0  0.19263  0.74210  0.35149  1.0000
  F   F164      1.0  0.18682  0.74133  0.86515  1.0000
  F   F165      1.0  0.42861  0.24135  0.36658  1.0000
  F   F166      1.0  0.44130  0.26004  0.83942  1.0000
  F   F167      1.0  0.43537  0.75282  0.35642  1.0000
  F   F168      1.0  0.42573  0.74169  0.87501  1.0000
  F   F169      1.0  0.69174  0.25305  0.34366  1.0000
  F   F170      1.0  0.68718  0.25272  0.85169  1.0000
  F   F171      1.0  0.68745  0.75346  0.34569  1.0000
  F   F172      1.0  0.68242  0.75342  0.85520  1.0000
  F   F173      1.0  0.93605  0.25453  0.35005  1.0000
  F   F174      1.0  0.94612  0.24482  0.85921  1.0000
  F   F175      1.0  0.94091  0.76290  0.33692  1.0000
  F   F176      1.0  0.93988  0.74909  0.84356  1.0000
  F   F177      1.0  0.12451  0.11505  0.40789  1.0000
  F   F178      1.0  0.12763  0.12884  0.89381  1.0000
  F   F179      1.0  0.12683  0.63565  0.37986  1.0000
  F   F180      1.0  0.12526  0.62768  0.88366  1.0000
  F   F181      1.0  0.37274  0.12214  0.40044  1.0000
  F   F182      1.0  0.37738  0.14367  0.89303  1.0000
  F   F183      1.0  0.37459  0.64104  0.39277  1.0000
  F   F184      1.0  0.37052  0.60276  0.92100  1.0000
  F   F185      1.0  0.62417  0.15149  0.37866  1.0000
  F   F186      1.0  0.62972  0.13199  0.88350  1.0000
  F   F187      1.0  0.62467  0.63370  0.39028  1.0000
  F   F188      1.0  0.62689  0.62746  0.89924  1.0000
  F   F189      1.0  0.87353  0.13746  0.38179  1.0000
  F   F190      1.0  0.87701  0.15280  0.88682  1.0000
  F   F191      1.0  0.87481  0.65800  0.37624  1.0000
  F   F192      1.0  0.87920  0.64785  0.87726  1.0000
  F   F193      1.0  0.01255  0.36037  0.07185  1.0000
  F   F194      1.0  0.01128  0.35675  0.57093  1.0000
  F   F195      1.0  0.00600  0.86017  0.09302  1.0000
  F   F196      1.0  0.00844  0.85001  0.59038  1.0000
  F   F197      1.0  0.25696  0.35065  0.09110  1.0000
  F   F198      1.0  0.26043  0.37339  0.56807  1.0000
  F   F199      1.0  0.25719  0.85159  0.08342  1.0000
  F   F200      1.0  0.25954  0.85683  0.57846  1.0000
  F   F201      1.0  0.50998  0.35441  0.07769  1.0000
  F   F202      1.0  0.50731  0.36286  0.57144  1.0000
  F   F203      1.0  0.50768  0.85747  0.07143  1.0000
  F   F204      1.0  0.50547  0.86428  0.58018  1.0000
  F   F205      1.0  0.76139  0.35928  0.07485  1.0000
  F   F206      1.0  0.75479  0.38229  0.56121  1.0000
  F   F207      1.0  0.75638  0.86735  0.07997  1.0000
  F   F208      1.0  0.75147  0.87546  0.57321  1.0000
  F   F209      1.0  0.06798  0.49082  0.17728  1.0000
  F   F210      1.0  0.07304  0.49114  0.66768  1.0000
  F   F211      1.0  0.06262  0.97765  0.18925  1.0000
  F   F212      1.0  0.06996  0.98133  0.67263  1.0000
  F   F213      1.0  0.31973  0.48958  0.16829  1.0000
  F   F214      1.0  0.31326  0.49108  0.67634  1.0000
  F   F215      1.0  0.32151  0.98052  0.18636  1.0000
  F   F216      1.0  0.32050  0.98436  0.67328  1.0000
  F   F217      1.0  0.57230  0.49034  0.16993  1.0000
  F   F218      1.0  0.57316  0.47037  0.68660  1.0000
  F   F219      1.0  0.56676  0.99417  0.17368  1.0000
  F   F220      1.0  0.56766  0.99413  0.66289  1.0000
  F   F221      1.0  0.81832  0.47933  0.18755  1.0000
  F   F222      1.0  0.82264  0.48315  0.67094  1.0000
  F   F223      1.0  0.82034  0.97160  0.18069  1.0000
  F   F224      1.0  0.81420  0.99491  0.66844  1.0000
  F   F225      1.0  0.24239  0.13368  0.41831  1.0000
  F   F226      1.0  0.24153  0.12197  0.95314  1.0000
  F   F227      1.0  0.24255  0.63396  0.42295  1.0000
  F   F228      1.0  0.24164  0.62072  0.94050  1.0000
  F   F229      1.0  0.48827  0.13748  0.42889  1.0000
  F   F230      1.0  0.49558  0.14401  0.92306  1.0000
  F   F231      1.0  0.49590  0.65100  0.41031  1.0000
  F   F232      1.0  0.48894  0.65094  0.91477  1.0000
  F   F233      1.0  0.74381  0.13308  0.42864  1.0000
  F   F234      1.0  0.74926  0.13660  0.91065  1.0000
  F   F235      1.0  0.74416  0.63912  0.41495  1.0000
  F   F236      1.0  0.74292  0.63633  0.93024  1.0000
  F   F237      1.0  0.98971  0.15147  0.42174  1.0000
  F   F238      1.0  0.99356  0.13143  0.93615  1.0000
  F   F239      1.0  0.98701  0.64162  0.43939  1.0000
  F   F240      1.0  0.98852  0.63383  0.94496  1.0000
  F   F241      1.0  0.18834  0.01480  0.31094  1.0000
  F   F242      1.0  0.18049  0.01649  0.83040  1.0000
  F   F243      1.0  0.17403  0.50190  0.34626  1.0000
  F   F244      1.0  0.18148  0.50582  0.82624  1.0000
  F   F245      1.0  0.43027  0.01644  0.32818  1.0000
  F   F246      1.0  0.43199  0.01597  0.82601  1.0000
  F   F247      1.0  0.42488  0.50867  0.33068  1.0000
  F   F248      1.0  0.42927  0.51475  0.82622  1.0000
  F   F249      1.0  0.67739  0.03453  0.31078  1.0000
  F   F250      1.0  0.68102  0.01811  0.81764  1.0000
  F   F251      1.0  0.68030  0.52090  0.32515  1.0000
  F   F252      1.0  0.68457  0.51787  0.83040  1.0000
  F   F253      1.0  0.92166  0.01945  0.33256  1.0000
  F   F254      1.0  0.92612  0.02644  0.81640  1.0000
  F   F255      1.0  0.92481  0.52004  0.33489  1.0000
  F   F256      1.0  0.93441  0.51788  0.81514  1.0000
  F   F257      1.0  0.99515  0.25397  0.99738  1.0000
  F   F258      1.0  0.00113  0.25292  0.49725  1.0000
  F   F259      1.0  0.00163  0.74373  0.01150  1.0000
  F   F260      1.0  0.00262  0.76554  0.48571  1.0000
  F   F261      1.0  0.25159  0.26224  0.99712  1.0000
  F   F262      1.0  0.24971  0.24509  0.49822  1.0000
  F   F263      1.0  0.24927  0.72999  0.01566  1.0000
  F   F264      1.0  0.25032  0.75390  0.49865  1.0000
  F   F265      1.0  0.49763  0.26306  0.99335  1.0000
  F   F266      1.0  0.49929  0.24146  0.50756  1.0000
  F   F267      1.0  0.50077  0.74763  0.99786  1.0000
  F   F268      1.0  0.50244  0.75980  0.49782  1.0000
  F   F269      1.0  0.74897  0.26283  0.98902  1.0000
  F   F270      1.0  0.74910  0.24904  0.50548  1.0000
  F   F271      1.0  0.75325  0.76758  0.98098  1.0000
  F   F272      1.0  0.74595  0.75339  0.50650  1.0000
  F   F273      1.0  0.12326  0.00045  0.24699  1.0000
  F   F274      1.0  0.12230  0.99188  0.74748  1.0000
  F   F275      1.0  0.12137  0.49533  0.25748  1.0000
  F   F276      1.0  0.13006  0.49981  0.74030  1.0000
  F   F277      1.0  0.37844  0.00710  0.23995  1.0000
  F   F278      1.0  0.37856  0.00409  0.75082  1.0000
  F   F279      1.0  0.36853  0.48934  0.26739  1.0000
  F   F280      1.0  0.37145  0.50709  0.75674  1.0000
  F   F281      1.0  0.62914  0.99839  0.24077  1.0000
  F   F282      1.0  0.61619  0.98944  0.75401  1.0000
  F   F283      1.0  0.62657  0.49897  0.25713  1.0000
  F   F284      1.0  0.63533  0.51097  0.74217  1.0000
  F   F285      1.0  0.87540  0.99948  0.24777  1.0000
  F   F286      1.0  0.87133  0.99676  0.74749  1.0000
  F   F287      1.0  0.87242  0.50522  0.25047  1.0000
  F   F288      1.0  0.88217  0.50407  0.73547  1.0000
  F   F289      1.0  0.05190  0.02400  0.01726  1.0000
  F   F290      1.0  0.03757  0.02921  0.52481  1.0000
  F   F291      1.0  0.04252  0.53400  0.03148  1.0000
  F   F292      1.0  0.04610  0.52734  0.51807  1.0000
  F   F293      1.0  0.30398  0.01242  0.02457  1.0000
  F   F294      1.0  0.28752  0.02933  0.53117  1.0000
  F   F295      1.0  0.28115  0.52258  0.04847  1.0000
  F   F296      1.0  0.29440  0.52815  0.52025  1.0000
  F   F297      1.0  0.54460  0.03901  0.02304  1.0000
  F   F298      1.0  0.54779  0.02985  0.51708  1.0000
  F   F299      1.0  0.54180  0.53044  0.03135  1.0000
  F   F300      1.0  0.54434  0.54110  0.51563  1.0000
  F   F301      1.0  0.78729  0.02770  0.03577  1.0000
  F   F302      1.0  0.79121  0.04527  0.52390  1.0000
  F   F303      1.0  0.79620  0.53018  0.02606  1.0000
  F   F304      1.0  0.79501  0.53905  0.50551  1.0000
  F   F305      1.0  0.23327  0.41019  0.24142  1.0000
  F   F306      1.0  0.23498  0.40652  0.73099  1.0000
  F   F307      1.0  0.23407  0.92189  0.22196  1.0000
  F   F308      1.0  0.23425  0.92525  0.71721  1.0000
  F   F309      1.0  0.48783  0.40205  0.22894  1.0000
  F   F310      1.0  0.48714  0.40990  0.72389  1.0000
  F   F311      1.0  0.48230  0.92360  0.21871  1.0000
  F   F312      1.0  0.48387  0.92362  0.72362  1.0000
  F   F313      1.0  0.73469  0.42208  0.21690  1.0000
  F   F314      1.0  0.73795  0.41975  0.72160  1.0000
  F   F315      1.0  0.73646  0.91211  0.24425  1.0000
  F   F316      1.0  0.73594  0.90764  0.73225  1.0000
  F   F317      1.0  0.98122  0.42824  0.22226  1.0000
  F   F318      1.0  0.99009  0.39524  0.74205  1.0000
  F   F319      1.0  0.97978  0.92010  0.23363  1.0000
  F   F320      1.0  0.98810  0.92126  0.73689  1.0000
  F   F321      1.0  0.20653  0.47025  0.49128  1.0000
  F   F322      1.0  0.20817  0.46543  0.97310  1.0000
  F   F323      1.0  0.21551  0.97280  0.46315  1.0000
  F   F324      1.0  0.21357  0.96462  0.98306  1.0000
  F   F325      1.0  0.46201  0.48565  0.46147  1.0000
  F   F326      1.0  0.45489  0.46158  0.98382  1.0000
  F   F327      1.0  0.45708  0.96700  0.47544  1.0000
  F   F328      1.0  0.46262  0.97781  0.96735  1.0000
  F   F329      1.0  0.69835  0.46821  0.47917  1.0000
  F   F330      1.0  0.71068  0.47165  0.98307  1.0000
  F   F331      1.0  0.69968  0.96584  0.47790  1.0000
  F   F332      1.0  0.70855  0.97069  0.96787  1.0000
  F   F333      1.0  0.95499  0.46697  0.47492  1.0000
  F   F334      1.0  0.95940  0.46993  0.97162  1.0000
  F   F335      1.0  0.96580  0.97175  0.47181  1.0000
  F   F336      1.0  0.95621  0.96934  0.98224  1.0000
  F   F337      1.0  0.01621  0.07640  0.26956  1.0000
  F   F338      1.0  0.01196  0.08640  0.78161  1.0000
  F   F339      1.0  0.01712  0.58599  0.27864  1.0000
  F   F340      1.0  0.01910  0.58760  0.77693  1.0000
  F   F341      1.0  0.27111  0.09492  0.25865  1.0000
  F   F342      1.0  0.26745  0.08504  0.77719  1.0000
  F   F343      1.0  0.26476  0.58107  0.27534  1.0000
  F   F344      1.0  0.26553  0.58437  0.77750  1.0000
  F   F345      1.0  0.50869  0.09588  0.25742  1.0000
  F   F346      1.0  0.51485  0.09701  0.76925  1.0000
  F   F347      1.0  0.51232  0.59695  0.26385  1.0000
  F   F348      1.0  0.51864  0.58232  0.76999  1.0000
  F   F349      1.0  0.76537  0.06846  0.28030  1.0000
  F   F350      1.0  0.76896  0.09168  0.76575  1.0000
  F   F351      1.0  0.76412  0.58813  0.26990  1.0000
  F   F352      1.0  0.76484  0.58401  0.77182  1.0000
  F   F353      1.0  0.09968  0.39325  0.46911  1.0000
  F   F354      1.0  0.09858  0.41810  0.97187  1.0000
  F   F355      1.0  0.09984  0.91712  0.45151  1.0000
  F   F356      1.0  0.10856  0.90310  0.95375  1.0000
  F   F357      1.0  0.35515  0.38049  0.47235  1.0000
  F   F358      1.0  0.35090  0.42222  0.96388  1.0000
  F   F359      1.0  0.35236  0.91513  0.44628  1.0000
  F   F360      1.0  0.34934  0.89018  0.96691  1.0000
  F   F361      1.0  0.60070  0.41491  0.46594  1.0000
  F   F362      1.0  0.60368  0.40889  0.96227  1.0000
  F   F363      1.0  0.60458  0.89468  0.46482  1.0000
  F   F364      1.0  0.60221  0.91625  0.96076  1.0000
  F   F365      1.0  0.84777  0.39534  0.45919  1.0000
  F   F366      1.0  0.85494  0.40810  0.96552  1.0000
  F   F367      1.0  0.84478  0.91057  0.47244  1.0000
  F   F368      1.0  0.84777  0.90574  0.95547  1.0000
  F   F369      1.0  0.04138  0.30986  0.28563  1.0000
  F   F370      1.0  0.05440  0.29285  0.79535  1.0000
  F   F371      1.0  0.04196  0.79895  0.29713  1.0000
  F   F372      1.0  0.04640  0.79140  0.78261  1.0000
  F   F373      1.0  0.29302  0.28776  0.28446  1.0000
  F   F374      1.0  0.30773  0.29984  0.78337  1.0000
  F   F375      1.0  0.29191  0.79870  0.29628  1.0000
  F   F376      1.0  0.28558  0.79716  0.77165  1.0000
  F   F377      1.0  0.55721  0.28225  0.28429  1.0000
  F   F378      1.0  0.54345  0.30822  0.79050  1.0000
  F   F379      1.0  0.54738  0.80802  0.26964  1.0000
  F   F380      1.0  0.54132  0.80065  0.78983  1.0000
  F   F381      1.0  0.78926  0.30075  0.28822  1.0000
  F   F382      1.0  0.80127  0.30661  0.78930  1.0000
  F   F383      1.0  0.80361  0.79703  0.27842  1.0000
  F   F384      1.0  0.80111  0.80435  0.77782  1.0000
