data_image0
_chemical_formula_structural       Hf96F384
_chemical_formula_sum              "Hf96 F384"
_cell_length_a       31.0517
_cell_length_b       15.5264
_cell_length_c       15.5124
_cell_angle_alpha    63.342
_cell_angle_beta     63.342
_cell_angle_gamma    80.1625

_space_group_name_H-M_alt    "P 1"
_space_group_IT_number       1

loop_
  _space_group_symop_operation_xyz
  'x, y, z'

loop_
  _atom_site_type_symbol
  _atom_site_label
  _atom_site_symmetry_multiplicity
  _atom_site_fract_x
  _atom_site_fract_y
  _atom_site_fract_z
  _atom_site_occupancy
  Hf  Hf1       1.0  0.19525  0.11232  0.37359  1.0000
  Hf  Hf2       1.0  0.19613  0.10430  0.87436  1.0000
  Hf  Hf3       1.0  0.20031  0.61440  0.36613  1.0000
  Hf  Hf4       1.0  0.19418  0.60748  0.87466  1.0000
  Hf  Hf5       1.0  0.44598  0.11646  0.36878  1.0000
  Hf  Hf6       1.0  0.44493  0.10201  0.88688  1.0000
  Hf  Hf7       1.0  0.44629  0.60281  0.37328  1.0000
  Hf  Hf8       1.0  0.44477  0.61179  0.86804  1.0000
  Hf  Hf9       1.0  0.69299  0.09800  0.39076  1.0000
  Hf  Hf10      1.0  0.69592  0.11582  0.87794  1.0000
  Hf  Hf11      1.0  0.69656  0.60111  0.37356  1.0000
  Hf  Hf12      1.0  0.69641  0.61286  0.87984  1.0000
  Hf  Hf13      1.0  0.94945  0.10825  0.37260  1.0000
  Hf  Hf14      1.0  0.94711  0.10910  0.87544  1.0000
  Hf  Hf15      1.0  0.94869  0.61399  0.36431  1.0000
  Hf  Hf16      1.0  0.94671  0.59869  0.87885  1.0000
  Hf  Hf17      1.0  0.05183  0.39866  0.12668  1.0000
  Hf  Hf18      1.0  0.05146  0.39418  0.62886  1.0000
  Hf  Hf19      1.0  0.05877  0.88830  0.12634  1.0000
  Hf  Hf20      1.0  0.05302  0.88883  0.63141  1.0000
  Hf  Hf21      1.0  0.30307  0.39284  0.12723  1.0000
  Hf  Hf22      1.0  0.30157  0.39701  0.62618  1.0000
  Hf  Hf23      1.0  0.30584  0.89009  0.12461  1.0000
  Hf  Hf24      1.0  0.30316  0.89649  0.62398  1.0000
  Hf  Hf25      1.0  0.55594  0.39994  0.12072  1.0000
  Hf  Hf26      1.0  0.55017  0.38479  0.63174  1.0000
  Hf  Hf27      1.0  0.55190  0.89583  0.12882  1.0000
  Hf  Hf28      1.0  0.55563  0.89634  0.61922  1.0000
  Hf  Hf29      1.0  0.80309  0.39610  0.11538  1.0000
  Hf  Hf30      1.0  0.80485  0.39744  0.61744  1.0000
  Hf  Hf31      1.0  0.80424  0.88893  0.12489  1.0000
  Hf  Hf32      1.0  0.80445  0.89321  0.62101  1.0000
  Hf  Hf33      1.0  0.05461  0.18232  0.42237  1.0000
  Hf  Hf34      1.0  0.05454  0.18078  0.92257  1.0000
  Hf  Hf35      1.0  0.06038  0.68206  0.41393  1.0000
  Hf  Hf36      1.0  0.05806  0.67528  0.91598  1.0000
  Hf  Hf37      1.0  0.30511  0.18682  0.40827  1.0000
  Hf  Hf38      1.0  0.30884  0.17656  0.91595  1.0000
  Hf  Hf39      1.0  0.30684  0.68449  0.41299  1.0000
  Hf  Hf40      1.0  0.30540  0.68233  0.91962  1.0000
  Hf  Hf41      1.0  0.55340  0.18209  0.41849  1.0000
  Hf  Hf42      1.0  0.55463  0.18756  0.91698  1.0000
  Hf  Hf43      1.0  0.55339  0.67602  0.41310  1.0000
  Hf  Hf44      1.0  0.55817  0.68728  0.90898  1.0000
  Hf  Hf45      1.0  0.80748  0.17925  0.41234  1.0000
  Hf  Hf46      1.0  0.80391  0.17496  0.91638  1.0000
  Hf  Hf47      1.0  0.80698  0.68616  0.41138  1.0000
  Hf  Hf48      1.0  0.80721  0.69731  0.90673  1.0000
  Hf  Hf49      1.0  0.15999  0.39160  0.33609  1.0000
  Hf  Hf50      1.0  0.15779  0.38184  0.83684  1.0000
  Hf  Hf51      1.0  0.16195  0.88989  0.33487  1.0000
  Hf  Hf52      1.0  0.15740  0.88725  0.83019  1.0000
  Hf  Hf53      1.0  0.40863  0.38677  0.32867  1.0000
  Hf  Hf54      1.0  0.40535  0.38673  0.83490  1.0000
  Hf  Hf55      1.0  0.40705  0.89150  0.33334  1.0000
  Hf  Hf56      1.0  0.41050  0.88349  0.83367  1.0000
  Hf  Hf57      1.0  0.65604  0.37818  0.34374  1.0000
  Hf  Hf58      1.0  0.65946  0.39270  0.83416  1.0000
  Hf  Hf59      1.0  0.65687  0.88084  0.33822  1.0000
  Hf  Hf60      1.0  0.66006  0.89208  0.83648  1.0000
  Hf  Hf61      1.0  0.91175  0.38888  0.33282  1.0000
  Hf  Hf62      1.0  0.90434  0.39403  0.83444  1.0000
  Hf  Hf63      1.0  0.90569  0.88606  0.33363  1.0000
  Hf  Hf64      1.0  0.91306  0.88777  0.82977  1.0000
  Hf  Hf65      1.0  0.19279  0.31119  0.08741  1.0000
  Hf  Hf66      1.0  0.19566  0.31718  0.58015  1.0000
  Hf  Hf67      1.0  0.19741  0.81823  0.08611  1.0000
  Hf  Hf68      1.0  0.19318  0.82078  0.58112  1.0000
  Hf  Hf69      1.0  0.44537  0.32393  0.07154  1.0000
  Hf  Hf70      1.0  0.44067  0.31233  0.58678  1.0000
  Hf  Hf71      1.0  0.44834  0.82661  0.08022  1.0000
  Hf  Hf72      1.0  0.44442  0.81857  0.57740  1.0000
  Hf  Hf73      1.0  0.69309  0.31659  0.08747  1.0000
  Hf  Hf74      1.0  0.69275  0.31217  0.58646  1.0000
  Hf  Hf75      1.0  0.69104  0.81771  0.09186  1.0000
  Hf  Hf76      1.0  0.69296  0.80905  0.59170  1.0000
  Hf  Hf77      1.0  0.94352  0.30964  0.08340  1.0000
  Hf  Hf78      1.0  0.94459  0.32546  0.58281  1.0000
  Hf  Hf79      1.0  0.94863  0.80934  0.08319  1.0000
  Hf  Hf80      1.0  0.94666  0.81937  0.57729  1.0000
  Hf  Hf81      1.0  0.09458  0.11773  0.15846  1.0000
  Hf  Hf82      1.0  0.08951  0.11625  0.67477  1.0000
  Hf  Hf83      1.0  0.09592  0.60663  0.16826  1.0000
  Hf  Hf84      1.0  0.09407  0.61527  0.65850  1.0000
  Hf  Hf85      1.0  0.33774  0.10798  0.17487  1.0000
  Hf  Hf86      1.0  0.33919  0.11381  0.66932  1.0000
  Hf  Hf87      1.0  0.34348  0.61655  0.16801  1.0000
  Hf  Hf88      1.0  0.34255  0.60874  0.67330  1.0000
  Hf  Hf89      1.0  0.58962  0.11088  0.17445  1.0000
  Hf  Hf90      1.0  0.58773  0.10631  0.67587  1.0000
  Hf  Hf91      1.0  0.59211  0.60356  0.16569  1.0000
  Hf  Hf92      1.0  0.58790  0.61071  0.66262  1.0000
  Hf  Hf93      1.0  0.83987  0.10869  0.16333  1.0000
  Hf  Hf94      1.0  0.84023  0.11492  0.66173  1.0000
  Hf  Hf95      1.0  0.83796  0.60509  0.17061  1.0000
  Hf  Hf96      1.0  0.83948  0.61297  0.67044  1.0000
  F   F1        1.0  0.08298  0.13173  0.29192  1.0000
  F   F2        1.0  0.07064  0.10521  0.82483  1.0000
  F   F3        1.0  0.08003  0.61691  0.31608  1.0000
  F   F4        1.0  0.08888  0.64221  0.78126  1.0000
  F   F5        1.0  0.32125  0.10671  0.32808  1.0000
  F   F6        1.0  0.32437  0.12253  0.81199  1.0000
  F   F7        1.0  0.33502  0.61901  0.30888  1.0000
  F   F8        1.0  0.32607  0.61728  0.81172  1.0000
  F   F9        1.0  0.57684  0.11700  0.31596  1.0000
  F   F10       1.0  0.58081  0.13347  0.80634  1.0000
  F   F11       1.0  0.58408  0.62448  0.29808  1.0000
  F   F12       1.0  0.57856  0.62934  0.79263  1.0000
  F   F13       1.0  0.83340  0.13987  0.29603  1.0000
  F   F14       1.0  0.83124  0.12414  0.80541  1.0000
  F   F15       1.0  0.83657  0.62688  0.30316  1.0000
  F   F16       1.0  0.83113  0.64575  0.79993  1.0000
  F   F17       1.0  0.19111  0.34834  0.44176  1.0000
  F   F18       1.0  0.18339  0.33183  0.95115  1.0000
  F   F19       1.0  0.19581  0.85139  0.43550  1.0000
  F   F20       1.0  0.18427  0.83063  0.94352  1.0000
  F   F21       1.0  0.43426  0.34812  0.44502  1.0000
  F   F22       1.0  0.43357  0.33883  0.94390  1.0000
  F   F23       1.0  0.42745  0.83318  0.46040  1.0000
  F   F24       1.0  0.44021  0.85399  0.93497  1.0000
  F   F25       1.0  0.67557  0.32119  0.46776  1.0000
  F   F26       1.0  0.68175  0.34220  0.96014  1.0000
  F   F27       1.0  0.67681  0.82736  0.45875  1.0000
  F   F28       1.0  0.68572  0.84401  0.95046  1.0000
  F   F29       1.0  0.94340  0.35280  0.44115  1.0000
  F   F30       1.0  0.93494  0.33819  0.93758  1.0000
  F   F31       1.0  0.93900  0.84416  0.44046  1.0000
  F   F32       1.0  0.94550  0.84030  0.94338  1.0000
  F   F33       1.0  0.16729  0.37391  0.20511  1.0000
  F   F34       1.0  0.16890  0.36118  0.70516  1.0000
  F   F35       1.0  0.17754  0.86353  0.20161  1.0000
  F   F36       1.0  0.17123  0.88404  0.68756  1.0000
  F   F37       1.0  0.42054  0.37731  0.18490  1.0000
  F   F38       1.0  0.41704  0.36531  0.70142  1.0000
  F   F39       1.0  0.41925  0.89227  0.18163  1.0000
  F   F40       1.0  0.42861  0.87602  0.68482  1.0000
  F   F41       1.0  0.66279  0.34351  0.21545  1.0000
  F   F42       1.0  0.67832  0.37290  0.69674  1.0000
  F   F43       1.0  0.66115  0.84619  0.22353  1.0000
  F   F44       1.0  0.67015  0.86469  0.70189  1.0000
  F   F45       1.0  0.92520  0.37034  0.18983  1.0000
  F   F46       1.0  0.91610  0.38917  0.69485  1.0000
  F   F47       1.0  0.93273  0.88788  0.18045  1.0000
  F   F48       1.0  0.91713  0.84906  0.70722  1.0000
  F   F49       1.0  0.06266  0.16391  0.04630  1.0000
  F   F50       1.0  0.06097  0.14468  0.56584  1.0000
  F   F51       1.0  0.06654  0.65857  0.05469  1.0000
  F   F52       1.0  0.06581  0.66424  0.54345  1.0000
  F   F53       1.0  0.31354  0.15404  0.05268  1.0000
  F   F54       1.0  0.32549  0.17023  0.54515  1.0000
  F   F55       1.0  0.31662  0.67325  0.05451  1.0000
  F   F56       1.0  0.31636  0.66995  0.54553  1.0000
  F   F57       1.0  0.55772  0.16598  0.05714  1.0000
  F   F58       1.0  0.56353  0.15849  0.55683  1.0000
  F   F59       1.0  0.56459  0.66299  0.04602  1.0000
  F   F60       1.0  0.55203  0.65132  0.55574  1.0000
  F   F61       1.0  0.80710  0.13158  0.06619  1.0000
  F   F62       1.0  0.82031  0.16441  0.53465  1.0000
  F   F63       1.0  0.81677  0.66384  0.05370  1.0000
  F   F64       1.0  0.81125  0.65632  0.56173  1.0000
  F   F65       1.0  0.20262  0.21097  0.22100  1.0000
  F   F66       1.0  0.21036  0.19587  0.70179  1.0000
  F   F67       1.0  0.21556  0.70746  0.21228  1.0000
  F   F68       1.0  0.18500  0.68931  0.71482  1.0000
  F   F69       1.0  0.44640  0.20613  0.20743  1.0000
  F   F70       1.0  0.45332  0.19680  0.69998  1.0000
  F   F71       1.0  0.45760  0.69550  0.21089  1.0000
  F   F72       1.0  0.46087  0.70412  0.70321  1.0000
  F   F73       1.0  0.70845  0.19729  0.20049  1.0000
  F   F74       1.0  0.70504  0.20118  0.71439  1.0000
  F   F75       1.0  0.70029  0.69764  0.21352  1.0000
  F   F76       1.0  0.70945  0.70264  0.71799  1.0000
  F   F77       1.0  0.96007  0.19579  0.21295  1.0000
  F   F78       1.0  0.94073  0.20573  0.70773  1.0000
  F   F79       1.0  0.95306  0.70152  0.21535  1.0000
  F   F80       1.0  0.95372  0.69607  0.69850  1.0000
  F   F81       1.0  0.14380  0.09371  0.02403  1.0000
  F   F82       1.0  0.14659  0.09487  0.54743  1.0000
  F   F83       1.0  0.15124  0.60888  0.03022  1.0000
  F   F84       1.0  0.14844  0.58865  0.52072  1.0000
  F   F85       1.0  0.39332  0.07177  0.04089  1.0000
  F   F86       1.0  0.40030  0.08496  0.53418  1.0000
  F   F87       1.0  0.40145  0.59326  0.03739  1.0000
  F   F88       1.0  0.39790  0.58158  0.55488  1.0000
  F   F89       1.0  0.64574  0.09860  0.04227  1.0000
  F   F90       1.0  0.64286  0.06330  0.55291  1.0000
  F   F91       1.0  0.65773  0.60059  0.03732  1.0000
  F   F92       1.0  0.64621  0.59783  0.53648  1.0000
  F   F93       1.0  0.90022  0.09181  0.03866  1.0000
  F   F94       1.0  0.89613  0.08449  0.54537  1.0000
  F   F95       1.0  0.90172  0.57796  0.03147  1.0000
  F   F96       1.0  0.89884  0.59976  0.54767  1.0000
  F   F97       1.0  0.16080  0.19099  0.11580  1.0000
  F   F98       1.0  0.14658  0.19921  0.65165  1.0000
  F   F99       1.0  0.15856  0.69925  0.13325  1.0000
  F   F100      1.0  0.15350  0.70628  0.58823  1.0000
  F   F101      1.0  0.39302  0.19425  0.11340  1.0000
  F   F102      1.0  0.40059  0.20940  0.60156  1.0000
  F   F103      1.0  0.40385  0.70177  0.12434  1.0000
  F   F104      1.0  0.40005  0.69613  0.65277  1.0000
  F   F105      1.0  0.64775  0.20495  0.13312  1.0000
  F   F106      1.0  0.65486  0.18256  0.62893  1.0000
  F   F107      1.0  0.65069  0.69783  0.11864  1.0000
  F   F108      1.0  0.65903  0.68881  0.62478  1.0000
  F   F109      1.0  0.90187  0.20057  0.12309  1.0000
  F   F110      1.0  0.89657  0.20270  0.60179  1.0000
  F   F111      1.0  0.89914  0.69304  0.11567  1.0000
  F   F112      1.0  0.90331  0.70739  0.61623  1.0000
  F   F113      1.0  0.09060  0.29728  0.39714  1.0000
  F   F114      1.0  0.09403  0.29891  0.88442  1.0000
  F   F115      1.0  0.10410  0.81047  0.36992  1.0000
  F   F116      1.0  0.10213  0.78577  0.86888  1.0000
  F   F117      1.0  0.35277  0.30697  0.37060  1.0000
  F   F118      1.0  0.34953  0.30397  0.87679  1.0000
  F   F119      1.0  0.35254  0.80383  0.37117  1.0000
  F   F120      1.0  0.34996  0.79761  0.86664  1.0000
  F   F121      1.0  0.59995  0.28972  0.39495  1.0000
  F   F122      1.0  0.59901  0.30089  0.86583  1.0000
  F   F123      1.0  0.59350  0.80337  0.37167  1.0000
  F   F124      1.0  0.60133  0.81110  0.85959  1.0000
  F   F125      1.0  0.85810  0.30719  0.35318  1.0000
  F   F126      1.0  0.84370  0.30835  0.88907  1.0000
  F   F127      1.0  0.84376  0.82331  0.36265  1.0000
  F   F128      1.0  0.84652  0.81086  0.87917  1.0000
  F   F129      1.0  0.06779  0.24678  0.14248  1.0000
  F   F130      1.0  0.06216  0.25039  0.64918  1.0000
  F   F131      1.0  0.08142  0.74791  0.13117  1.0000
  F   F132      1.0  0.06546  0.75695  0.62925  1.0000
  F   F133      1.0  0.30610  0.24274  0.15943  1.0000
  F   F134      1.0  0.30897  0.24548  0.65496  1.0000
  F   F135      1.0  0.31714  0.74427  0.15643  1.0000
  F   F136      1.0  0.32077  0.75915  0.63535  1.0000
  F   F137      1.0  0.56101  0.25011  0.15246  1.0000
  F   F138      1.0  0.56375  0.24596  0.64320  1.0000
  F   F139      1.0  0.56537  0.73138  0.15291  1.0000
  F   F140      1.0  0.57224  0.75510  0.61359  1.0000
  F   F141      1.0  0.81343  0.24011  0.14289  1.0000
  F   F142      1.0  0.81028  0.25401  0.64368  1.0000
  F   F143      1.0  0.80938  0.74773  0.14762  1.0000
  F   F144      1.0  0.81158  0.75508  0.64137  1.0000
  F   F145      1.0  0.12256  0.35408  0.11441  1.0000
  F   F146      1.0  0.12396  0.36794  0.61156  1.0000
  F   F147      1.0  0.13081  0.87439  0.10036  1.0000
  F   F148      1.0  0.12267  0.87269  0.61066  1.0000
  F   F149      1.0  0.37487  0.37899  0.09951  1.0000
  F   F150      1.0  0.37072  0.36597  0.61680  1.0000
  F   F151      1.0  0.37452  0.89126  0.09440  1.0000
  F   F152      1.0  0.38022  0.90147  0.58709  1.0000
  F   F153      1.0  0.62256  0.38361  0.10839  1.0000
  F   F154      1.0  0.61665  0.35549  0.64597  1.0000
  F   F155      1.0  0.62175  0.86795  0.11668  1.0000
  F   F156      1.0  0.62174  0.86579  0.61188  1.0000
  F   F157      1.0  0.87660  0.37049  0.10198  1.0000
  F   F158      1.0  0.87503  0.37575  0.59880  1.0000
  F   F159      1.0  0.87553  0.85329  0.11455  1.0000
  F   F160      1.0  0.87352  0.88861  0.59378  1.0000
  F   F161      1.0  0.17971  0.25900  0.36657  1.0000
  F   F162      1.0  0.18869  0.24954  0.85564  1.0000
  F   F163      1.0  0.19279  0.74813  0.36730  1.0000
  F   F164      1.0  0.18882  0.74668  0.83600  1.0000
  F   F165      1.0  0.43965  0.25470  0.34879  1.0000
  F   F166      1.0  0.43588  0.25406  0.84642  1.0000
  F   F167      1.0  0.43480  0.75053  0.35878  1.0000
  F   F168      1.0  0.43897  0.75303  0.85313  1.0000
  F   F169      1.0  0.68704  0.24154  0.36271  1.0000
  F   F170      1.0  0.68855  0.25535  0.86827  1.0000
  F   F171      1.0  0.69226  0.74470  0.35600  1.0000
  F   F172      1.0  0.67924  0.74464  0.87598  1.0000
  F   F173      1.0  0.94308  0.25352  0.35471  1.0000
  F   F174      1.0  0.93664  0.25463  0.84308  1.0000
  F   F175      1.0  0.92202  0.74469  0.37523  1.0000
  F   F176      1.0  0.93922  0.74951  0.86397  1.0000
  F   F177      1.0  0.12755  0.14234  0.37901  1.0000
  F   F178      1.0  0.12567  0.13811  0.87759  1.0000
  F   F179      1.0  0.13244  0.64814  0.36353  1.0000
  F   F180      1.0  0.12153  0.59737  0.91240  1.0000
  F   F181      1.0  0.37430  0.13582  0.38131  1.0000
  F   F182      1.0  0.37707  0.14409  0.87538  1.0000
  F   F183      1.0  0.37672  0.62082  0.40840  1.0000
  F   F184      1.0  0.37370  0.63002  0.89479  1.0000
  F   F185      1.0  0.62719  0.12840  0.38895  1.0000
  F   F186      1.0  0.62229  0.13462  0.89710  1.0000
  F   F187      1.0  0.62665  0.62771  0.39273  1.0000
  F   F188      1.0  0.62417  0.62368  0.88228  1.0000
  F   F189      1.0  0.88105  0.13151  0.38410  1.0000
  F   F190      1.0  0.87267  0.13870  0.88790  1.0000
  F   F191      1.0  0.87697  0.61827  0.40372  1.0000
  F   F192      1.0  0.87682  0.65118  0.87482  1.0000
  F   F193      1.0  0.01033  0.35912  0.07755  1.0000
  F   F194      1.0  0.00278  0.35064  0.58190  1.0000
  F   F195      1.0  0.01309  0.85136  0.07299  1.0000
  F   F196      1.0  0.00818  0.87646  0.57245  1.0000
  F   F197      1.0  0.25841  0.37105  0.06841  1.0000
  F   F198      1.0  0.25288  0.36833  0.57870  1.0000
  F   F199      1.0  0.26216  0.86361  0.06440  1.0000
  F   F200      1.0  0.25375  0.85170  0.58344  1.0000
  F   F201      1.0  0.50489  0.36421  0.07589  1.0000
  F   F202      1.0  0.50444  0.35328  0.57583  1.0000
  F   F203      1.0  0.50952  0.85387  0.08899  1.0000
  F   F204      1.0  0.51301  0.85550  0.56741  1.0000
  F   F205      1.0  0.75791  0.36616  0.07428  1.0000
  F   F206      1.0  0.75726  0.37203  0.56504  1.0000
  F   F207      1.0  0.75648  0.86317  0.06979  1.0000
  F   F208      1.0  0.75363  0.88040  0.56998  1.0000
  F   F209      1.0  0.07470  0.47996  0.18383  1.0000
  F   F210      1.0  0.06958  0.49270  0.65971  1.0000
  F   F211      1.0  0.07278  0.99708  0.16364  1.0000
  F   F212      1.0  0.06695  0.98707  0.68468  1.0000
  F   F213      1.0  0.32201  0.48627  0.16386  1.0000
  F   F214      1.0  0.31154  0.47740  0.69522  1.0000
  F   F215      1.0  0.31361  0.98106  0.18178  1.0000
  F   F216      1.0  0.31738  0.98632  0.68087  1.0000
  F   F217      1.0  0.56956  0.49042  0.17205  1.0000
  F   F218      1.0  0.56064  0.47790  0.67714  1.0000
  F   F219      1.0  0.57261  0.99548  0.16371  1.0000
  F   F220      1.0  0.55710  0.98166  0.69025  1.0000
  F   F221      1.0  0.81366  0.48479  0.17438  1.0000
  F   F222      1.0  0.82093  0.48404  0.67093  1.0000
  F   F223      1.0  0.81573  0.97604  0.18325  1.0000
  F   F224      1.0  0.80913  0.00499  0.66810  1.0000
  F   F225      1.0  0.23833  0.15497  0.41900  1.0000
  F   F226      1.0  0.23821  0.13076  0.93128  1.0000
  F   F227      1.0  0.24847  0.63421  0.42421  1.0000
  F   F228      1.0  0.23970  0.63676  0.93722  1.0000
  F   F229      1.0  0.49526  0.13361  0.42456  1.0000
  F   F230      1.0  0.48750  0.14699  0.93568  1.0000
  F   F231      1.0  0.49026  0.62502  0.44223  1.0000
  F   F232      1.0  0.49486  0.64221  0.91621  1.0000
  F   F233      1.0  0.74133  0.13817  0.43603  1.0000
  F   F234      1.0  0.74118  0.12496  0.94991  1.0000
  F   F235      1.0  0.74817  0.62467  0.42839  1.0000
  F   F236      1.0  0.74394  0.64714  0.91956  1.0000
  F   F237      1.0  0.99752  0.13689  0.42836  1.0000
  F   F238      1.0  0.99196  0.12992  0.93301  1.0000
  F   F239      1.0  0.99865  0.66036  0.39862  1.0000
  F   F240      1.0  0.98966  0.62520  0.92737  1.0000
  F   F241      1.0  0.18087  0.02624  0.32067  1.0000
  F   F242      1.0  0.17566  0.00736  0.84175  1.0000
  F   F243      1.0  0.17399  0.51017  0.34400  1.0000
  F   F244      1.0  0.18714  0.52027  0.82532  1.0000
  F   F245      1.0  0.43475  0.01633  0.32140  1.0000
  F   F246      1.0  0.43344  0.01251  0.83830  1.0000
  F   F247      1.0  0.43175  0.51870  0.31963  1.0000
  F   F248      1.0  0.42824  0.51214  0.82367  1.0000
  F   F249      1.0  0.68394  0.00072  0.33362  1.0000
  F   F250      1.0  0.68054  0.01700  0.83036  1.0000
  F   F251      1.0  0.67766  0.50855  0.32631  1.0000
  F   F252      1.0  0.67832  0.50714  0.84857  1.0000
  F   F253      1.0  0.93697  0.01573  0.30929  1.0000
  F   F254      1.0  0.93199  0.01893  0.82204  1.0000
  F   F255      1.0  0.93101  0.51838  0.32152  1.0000
  F   F256      1.0  0.92541  0.52582  0.81448  1.0000
  F   F257      1.0  0.00002  0.27209  0.98011  1.0000
  F   F258      1.0  0.99653  0.23030  0.51849  1.0000
  F   F259      1.0  0.99721  0.72850  0.02509  1.0000
  F   F260      1.0  0.00694  0.76279  0.48161  1.0000
  F   F261      1.0  0.24740  0.23895  0.00921  1.0000
  F   F262      1.0  0.25274  0.25073  0.49383  1.0000
  F   F263      1.0  0.25208  0.74938  0.00791  1.0000
  F   F264      1.0  0.25202  0.75818  0.49670  1.0000
  F   F265      1.0  0.49999  0.26799  0.98866  1.0000
  F   F266      1.0  0.49923  0.25387  0.48252  1.0000
  F   F267      1.0  0.50708  0.78077  0.98112  1.0000
  F   F268      1.0  0.49918  0.75954  0.48959  1.0000
  F   F269      1.0  0.75380  0.26321  0.99235  1.0000
  F   F270      1.0  0.75472  0.25343  0.50277  1.0000
  F   F271      1.0  0.75273  0.75967  0.98999  1.0000
  F   F272      1.0  0.75082  0.75702  0.49201  1.0000
  F   F273      1.0  0.13478  0.99932  0.23133  1.0000
  F   F274      1.0  0.13431  0.01457  0.74201  1.0000
  F   F275      1.0  0.13371  0.50560  0.24406  1.0000
  F   F276      1.0  0.13002  0.50257  0.73371  1.0000
  F   F277      1.0  0.37770  0.00827  0.24954  1.0000
  F   F278      1.0  0.37506  0.00121  0.75212  1.0000
  F   F279      1.0  0.37243  0.49579  0.26061  1.0000
  F   F280      1.0  0.37204  0.49540  0.75041  1.0000
  F   F281      1.0  0.62981  0.00322  0.23742  1.0000
  F   F282      1.0  0.61689  0.00402  0.76071  1.0000
  F   F283      1.0  0.62294  0.48606  0.25615  1.0000
  F   F284      1.0  0.62265  0.49251  0.75272  1.0000
  F   F285      1.0  0.87510  0.00754  0.24040  1.0000
  F   F286      1.0  0.88129  0.99942  0.73112  1.0000
  F   F287      1.0  0.87704  0.50459  0.24325  1.0000
  F   F288      1.0  0.86988  0.51352  0.75547  1.0000
  F   F289      1.0  0.04365  0.02739  0.02260  1.0000
  F   F290      1.0  0.04919  0.02319  0.51109  1.0000
  F   F291      1.0  0.03044  0.53593  0.04450  1.0000
  F   F292      1.0  0.03623  0.52948  0.53393  1.0000
  F   F293      1.0  0.29345  0.02687  0.01010  1.0000
  F   F294      1.0  0.28605  0.04239  0.54394  1.0000
  F   F295      1.0  0.28743  0.54080  0.03503  1.0000
  F   F296      1.0  0.30035  0.52880  0.51548  1.0000
  F   F297      1.0  0.53891  0.02446  0.02751  1.0000
  F   F298      1.0  0.53230  0.03483  0.53160  1.0000
  F   F299      1.0  0.54414  0.53035  0.02539  1.0000
  F   F300      1.0  0.54782  0.52403  0.50798  1.0000
  F   F301      1.0  0.79658  0.01542  0.00751  1.0000
  F   F302      1.0  0.79496  0.03896  0.51358  1.0000
  F   F303      1.0  0.78602  0.52427  0.03025  1.0000
  F   F304      1.0  0.79808  0.53565  0.51163  1.0000
  F   F305      1.0  0.23329  0.41866  0.22766  1.0000
  F   F306      1.0  0.23250  0.41865  0.73270  1.0000
  F   F307      1.0  0.23598  0.91928  0.22295  1.0000
  F   F308      1.0  0.23450  0.91692  0.71938  1.0000
  F   F309      1.0  0.49024  0.40572  0.23157  1.0000
  F   F310      1.0  0.48182  0.40907  0.72122  1.0000
  F   F311      1.0  0.48206  0.92032  0.22478  1.0000
  F   F312      1.0  0.48591  0.91847  0.71927  1.0000
  F   F313      1.0  0.72946  0.41243  0.22547  1.0000
  F   F314      1.0  0.73571  0.41921  0.73609  1.0000
  F   F315      1.0  0.73616  0.90623  0.22012  1.0000
  F   F316      1.0  0.73569  0.92000  0.71777  1.0000
  F   F317      1.0  0.98935  0.42552  0.22814  1.0000
  F   F318      1.0  0.98302  0.42247  0.71907  1.0000
  F   F319      1.0  0.98698  0.88478  0.24200  1.0000
  F   F320      1.0  0.98386  0.92422  0.72361  1.0000
  F   F321      1.0  0.20806  0.47634  0.47786  1.0000
  F   F322      1.0  0.20000  0.46360  0.98245  1.0000
  F   F323      1.0  0.19425  0.97835  0.48105  1.0000
  F   F324      1.0  0.21597  0.96579  0.97453  1.0000
  F   F325      1.0  0.45382  0.46642  0.47680  1.0000
  F   F326      1.0  0.45373  0.47184  0.96985  1.0000
  F   F327      1.0  0.46684  0.96661  0.45318  1.0000
  F   F328      1.0  0.47050  0.96182  0.96622  1.0000
  F   F329      1.0  0.69866  0.46826  0.48078  1.0000
  F   F330      1.0  0.70909  0.48027  0.99017  1.0000
  F   F331      1.0  0.70401  0.96179  0.48388  1.0000
  F   F332      1.0  0.69829  0.97959  0.98798  1.0000
  F   F333      1.0  0.96305  0.48144  0.47513  1.0000
  F   F334      1.0  0.95800  0.46501  0.95924  1.0000
  F   F335      1.0  0.96467  0.97021  0.46320  1.0000
  F   F336      1.0  0.95038  0.97246  0.98876  1.0000
  F   F337      1.0  0.01791  0.08444  0.27535  1.0000
  F   F338      1.0  0.01006  0.09832  0.77005  1.0000
  F   F339      1.0  0.01414  0.59154  0.26627  1.0000
  F   F340      1.0  0.01778  0.59725  0.76067  1.0000
  F   F341      1.0  0.26281  0.08748  0.27235  1.0000
  F   F342      1.0  0.26673  0.07734  0.77656  1.0000
  F   F343      1.0  0.27125  0.57748  0.27775  1.0000
  F   F344      1.0  0.26288  0.59007  0.76456  1.0000
  F   F345      1.0  0.51325  0.08955  0.27531  1.0000
  F   F346      1.0  0.51462  0.09130  0.77804  1.0000
  F   F347      1.0  0.51370  0.59563  0.26430  1.0000
  F   F348      1.0  0.51578  0.58001  0.77441  1.0000
  F   F349      1.0  0.76110  0.07262  0.28985  1.0000
  F   F350      1.0  0.76608  0.08513  0.78378  1.0000
  F   F351      1.0  0.76619  0.57173  0.28490  1.0000
  F   F352      1.0  0.76426  0.58012  0.78975  1.0000
  F   F353      1.0  0.10028  0.41352  0.46478  1.0000
  F   F354      1.0  0.10280  0.41693  0.95479  1.0000
  F   F355      1.0  0.10662  0.88622  0.47027  1.0000
  F   F356      1.0  0.09741  0.89746  0.95883  1.0000
  F   F357      1.0  0.34903  0.39982  0.46968  1.0000
  F   F358      1.0  0.34613  0.40222  0.96424  1.0000
  F   F359      1.0  0.34259  0.91691  0.46241  1.0000
  F   F360      1.0  0.35327  0.89208  0.96720  1.0000
  F   F361      1.0  0.60323  0.39794  0.48459  1.0000
  F   F362      1.0  0.60170  0.40486  0.96301  1.0000
  F   F363      1.0  0.59847  0.91996  0.46004  1.0000
  F   F364      1.0  0.60027  0.90602  0.97114  1.0000
  F   F365      1.0  0.85473  0.39297  0.46263  1.0000
  F   F366      1.0  0.85318  0.41505  0.96603  1.0000
  F   F367      1.0  0.84964  0.89850  0.45991  1.0000
  F   F368      1.0  0.85665  0.89779  0.96654  1.0000
  F   F369      1.0  0.04537  0.30318  0.28808  1.0000
  F   F370      1.0  0.04472  0.30277  0.78827  1.0000
  F   F371      1.0  0.06217  0.80298  0.27604  1.0000
  F   F372      1.0  0.03817  0.78911  0.80161  1.0000
  F   F373      1.0  0.30323  0.30098  0.28294  1.0000
  F   F374      1.0  0.29285  0.29955  0.79724  1.0000
  F   F375      1.0  0.29639  0.80605  0.28854  1.0000
  F   F376      1.0  0.29437  0.79806  0.78748  1.0000
  F   F377      1.0  0.54948  0.29817  0.28811  1.0000
  F   F378      1.0  0.53546  0.28778  0.80208  1.0000
  F   F379      1.0  0.53919  0.80666  0.28945  1.0000
  F   F380      1.0  0.54957  0.79574  0.77813  1.0000
  F   F381      1.0  0.79436  0.30107  0.29096  1.0000
  F   F382      1.0  0.79615  0.29951  0.78665  1.0000
  F   F383      1.0  0.79014  0.79382  0.29904  1.0000
  F   F384      1.0  0.80264  0.81422  0.77307  1.0000
