data_image0
_chemical_formula_structural       Hf96F384
_chemical_formula_sum              "Hf96 F384"
_cell_length_a       31.029
_cell_length_b       15.5169
_cell_length_c       15.5067
_cell_angle_alpha    63.342
_cell_angle_beta     63.342
_cell_angle_gamma    80.1625

_space_group_name_H-M_alt    "P 1"
_space_group_IT_number       1

loop_
  _space_group_symop_operation_xyz
  'x, y, z'

loop_
  _atom_site_type_symbol
  _atom_site_label
  _atom_site_symmetry_multiplicity
  _atom_site_fract_x
  _atom_site_fract_y
  _atom_site_fract_z
  _atom_site_occupancy
  Hf  Hf1       1.0  0.19483  0.11025  0.38029  1.0000
  Hf  Hf2       1.0  0.19565  0.10441  0.87385  1.0000
  Hf  Hf3       1.0  0.19279  0.60869  0.37931  1.0000
  Hf  Hf4       1.0  0.19314  0.60407  0.88047  1.0000
  Hf  Hf5       1.0  0.44510  0.10630  0.37789  1.0000
  Hf  Hf6       1.0  0.44227  0.10717  0.88104  1.0000
  Hf  Hf7       1.0  0.44040  0.60288  0.38331  1.0000
  Hf  Hf8       1.0  0.44466  0.60837  0.88096  1.0000
  Hf  Hf9       1.0  0.69948  0.10742  0.36761  1.0000
  Hf  Hf10      1.0  0.69774  0.10903  0.86750  1.0000
  Hf  Hf11      1.0  0.69930  0.61109  0.36063  1.0000
  Hf  Hf12      1.0  0.69577  0.61094  0.86851  1.0000
  Hf  Hf13      1.0  0.94732  0.10974  0.37744  1.0000
  Hf  Hf14      1.0  0.94899  0.10504  0.87405  1.0000
  Hf  Hf15      1.0  0.94288  0.60720  0.37918  1.0000
  Hf  Hf16      1.0  0.94673  0.60794  0.87361  1.0000
  Hf  Hf17      1.0  0.05343  0.39315  0.12858  1.0000
  Hf  Hf18      1.0  0.05893  0.39935  0.62424  1.0000
  Hf  Hf19      1.0  0.05228  0.89028  0.12968  1.0000
  Hf  Hf20      1.0  0.05240  0.89583  0.62024  1.0000
  Hf  Hf21      1.0  0.30254  0.39186  0.13274  1.0000
  Hf  Hf22      1.0  0.30385  0.38391  0.63247  1.0000
  Hf  Hf23      1.0  0.30034  0.89323  0.13376  1.0000
  Hf  Hf24      1.0  0.30671  0.88883  0.62481  1.0000
  Hf  Hf25      1.0  0.55066  0.38748  0.12710  1.0000
  Hf  Hf26      1.0  0.55365  0.39485  0.62603  1.0000
  Hf  Hf27      1.0  0.55001  0.88576  0.13247  1.0000
  Hf  Hf28      1.0  0.55417  0.88849  0.62526  1.0000
  Hf  Hf29      1.0  0.80457  0.40226  0.11957  1.0000
  Hf  Hf30      1.0  0.80208  0.39814  0.61897  1.0000
  Hf  Hf31      1.0  0.80348  0.89014  0.12164  1.0000
  Hf  Hf32      1.0  0.80139  0.89840  0.62869  1.0000
  Hf  Hf33      1.0  0.05589  0.17739  0.42212  1.0000
  Hf  Hf34      1.0  0.05921  0.18054  0.91272  1.0000
  Hf  Hf35      1.0  0.05508  0.68137  0.41754  1.0000
  Hf  Hf36      1.0  0.05640  0.68738  0.91062  1.0000
  Hf  Hf37      1.0  0.30527  0.18800  0.41710  1.0000
  Hf  Hf38      1.0  0.30324  0.17942  0.92420  1.0000
  Hf  Hf39      1.0  0.30466  0.68216  0.41708  1.0000
  Hf  Hf40      1.0  0.30576  0.68525  0.91790  1.0000
  Hf  Hf41      1.0  0.55591  0.17782  0.41489  1.0000
  Hf  Hf42      1.0  0.55611  0.18317  0.91415  1.0000
  Hf  Hf43      1.0  0.55397  0.67905  0.41906  1.0000
  Hf  Hf44      1.0  0.55545  0.67389  0.92315  1.0000
  Hf  Hf45      1.0  0.80647  0.18483  0.41410  1.0000
  Hf  Hf46      1.0  0.80742  0.18255  0.91414  1.0000
  Hf  Hf47      1.0  0.80703  0.68801  0.40813  1.0000
  Hf  Hf48      1.0  0.80494  0.68230  0.91082  1.0000
  Hf  Hf49      1.0  0.16116  0.38286  0.33739  1.0000
  Hf  Hf50      1.0  0.16248  0.37987  0.83688  1.0000
  Hf  Hf51      1.0  0.15672  0.89512  0.33770  1.0000
  Hf  Hf52      1.0  0.15937  0.89593  0.83164  1.0000
  Hf  Hf53      1.0  0.41005  0.38618  0.32921  1.0000
  Hf  Hf54      1.0  0.40936  0.39102  0.83263  1.0000
  Hf  Hf55      1.0  0.40825  0.88901  0.33482  1.0000
  Hf  Hf56      1.0  0.40872  0.89111  0.83646  1.0000
  Hf  Hf57      1.0  0.65908  0.38106  0.33465  1.0000
  Hf  Hf58      1.0  0.65726  0.39084  0.83464  1.0000
  Hf  Hf59      1.0  0.66373  0.88596  0.32030  1.0000
  Hf  Hf60      1.0  0.65628  0.87984  0.83854  1.0000
  Hf  Hf61      1.0  0.90776  0.38551  0.33730  1.0000
  Hf  Hf62      1.0  0.91093  0.39090  0.82714  1.0000
  Hf  Hf63      1.0  0.90896  0.88847  0.33287  1.0000
  Hf  Hf64      1.0  0.90580  0.88837  0.83415  1.0000
  Hf  Hf65      1.0  0.19238  0.31059  0.09001  1.0000
  Hf  Hf66      1.0  0.19732  0.31690  0.58114  1.0000
  Hf  Hf67      1.0  0.19493  0.81808  0.08460  1.0000
  Hf  Hf68      1.0  0.19317  0.82103  0.58945  1.0000
  Hf  Hf69      1.0  0.44554  0.31497  0.07992  1.0000
  Hf  Hf70      1.0  0.44741  0.31525  0.58128  1.0000
  Hf  Hf71      1.0  0.44367  0.81840  0.07828  1.0000
  Hf  Hf72      1.0  0.44322  0.82430  0.59011  1.0000
  Hf  Hf73      1.0  0.69787  0.32192  0.07795  1.0000
  Hf  Hf74      1.0  0.69530  0.31991  0.58456  1.0000
  Hf  Hf75      1.0  0.69212  0.81614  0.08101  1.0000
  Hf  Hf76      1.0  0.69618  0.82072  0.57394  1.0000
  Hf  Hf77      1.0  0.94195  0.31434  0.08565  1.0000
  Hf  Hf78      1.0  0.94668  0.32053  0.58173  1.0000
  Hf  Hf79      1.0  0.94456  0.81562  0.08176  1.0000
  Hf  Hf80      1.0  0.94049  0.81685  0.58678  1.0000
  Hf  Hf81      1.0  0.09205  0.11377  0.15892  1.0000
  Hf  Hf82      1.0  0.09289  0.12011  0.66512  1.0000
  Hf  Hf83      1.0  0.09143  0.60984  0.16699  1.0000
  Hf  Hf84      1.0  0.09316  0.61498  0.66426  1.0000
  Hf  Hf85      1.0  0.34038  0.11088  0.17493  1.0000
  Hf  Hf86      1.0  0.34184  0.11035  0.66915  1.0000
  Hf  Hf87      1.0  0.33814  0.61657  0.17025  1.0000
  Hf  Hf88      1.0  0.34099  0.61389  0.66592  1.0000
  Hf  Hf89      1.0  0.59282  0.10862  0.16119  1.0000
  Hf  Hf90      1.0  0.58838  0.11375  0.66400  1.0000
  Hf  Hf91      1.0  0.59104  0.60419  0.17470  1.0000
  Hf  Hf92      1.0  0.59220  0.61123  0.66541  1.0000
  Hf  Hf93      1.0  0.84520  0.11785  0.15885  1.0000
  Hf  Hf94      1.0  0.84023  0.11458  0.67626  1.0000
  Hf  Hf95      1.0  0.84381  0.60968  0.16437  1.0000
  Hf  Hf96      1.0  0.83794  0.61788  0.66796  1.0000
  F   F1        1.0  0.08452  0.13727  0.29840  1.0000
  F   F2        1.0  0.08110  0.11659  0.80704  1.0000
  F   F3        1.0  0.07667  0.62090  0.30419  1.0000
  F   F4        1.0  0.08307  0.62144  0.79993  1.0000
  F   F5        1.0  0.32997  0.12616  0.30916  1.0000
  F   F6        1.0  0.33394  0.14255  0.80372  1.0000
  F   F7        1.0  0.33135  0.64256  0.28687  1.0000
  F   F8        1.0  0.33149  0.62795  0.79502  1.0000
  F   F9        1.0  0.57737  0.12095  0.30448  1.0000
  F   F10       1.0  0.57762  0.13524  0.79602  1.0000
  F   F11       1.0  0.58376  0.63784  0.29808  1.0000
  F   F12       1.0  0.57517  0.60557  0.82165  1.0000
  F   F13       1.0  0.83230  0.13099  0.30400  1.0000
  F   F14       1.0  0.83238  0.10804  0.81590  1.0000
  F   F15       1.0  0.82982  0.62090  0.30246  1.0000
  F   F16       1.0  0.83993  0.64753  0.78728  1.0000
  F   F17       1.0  0.18845  0.33023  0.45097  1.0000
  F   F18       1.0  0.18437  0.34172  0.95686  1.0000
  F   F19       1.0  0.18961  0.84890  0.43492  1.0000
  F   F20       1.0  0.18885  0.85499  0.93675  1.0000
  F   F21       1.0  0.43121  0.32833  0.45267  1.0000
  F   F22       1.0  0.44066  0.34332  0.94246  1.0000
  F   F23       1.0  0.43913  0.84773  0.44011  1.0000
  F   F24       1.0  0.43783  0.84143  0.93852  1.0000
  F   F25       1.0  0.69091  0.34682  0.43627  1.0000
  F   F26       1.0  0.68673  0.34334  0.94782  1.0000
  F   F27       1.0  0.68498  0.83116  0.44737  1.0000
  F   F28       1.0  0.68887  0.85037  0.93880  1.0000
  F   F29       1.0  0.93654  0.34299  0.43975  1.0000
  F   F30       1.0  0.93064  0.34178  0.95109  1.0000
  F   F31       1.0  0.94002  0.83590  0.44266  1.0000
  F   F32       1.0  0.92893  0.83285  0.95255  1.0000
  F   F33       1.0  0.17299  0.37427  0.19978  1.0000
  F   F34       1.0  0.16768  0.34937  0.70350  1.0000
  F   F35       1.0  0.17028  0.87040  0.21377  1.0000
  F   F36       1.0  0.16614  0.88168  0.69812  1.0000
  F   F37       1.0  0.42531  0.36572  0.19795  1.0000
  F   F38       1.0  0.42174  0.37107  0.69119  1.0000
  F   F39       1.0  0.41413  0.86847  0.19251  1.0000
  F   F40       1.0  0.41840  0.88866  0.69902  1.0000
  F   F41       1.0  0.67002  0.36538  0.19622  1.0000
  F   F42       1.0  0.67281  0.36181  0.70239  1.0000
  F   F43       1.0  0.67155  0.87271  0.18983  1.0000
  F   F44       1.0  0.66488  0.86171  0.69709  1.0000
  F   F45       1.0  0.92726  0.38118  0.19469  1.0000
  F   F46       1.0  0.92589  0.37179  0.69086  1.0000
  F   F47       1.0  0.91504  0.85407  0.21264  1.0000
  F   F48       1.0  0.92349  0.88396  0.69246  1.0000
  F   F49       1.0  0.07088  0.16061  0.04226  1.0000
  F   F50       1.0  0.06098  0.16378  0.55885  1.0000
  F   F51       1.0  0.06461  0.65834  0.04235  1.0000
  F   F52       1.0  0.06121  0.65011  0.56046  1.0000
  F   F53       1.0  0.31571  0.15874  0.05921  1.0000
  F   F54       1.0  0.31172  0.15206  0.56255  1.0000
  F   F55       1.0  0.30778  0.65498  0.05532  1.0000
  F   F56       1.0  0.31439  0.65612  0.55220  1.0000
  F   F57       1.0  0.56530  0.16807  0.03842  1.0000
  F   F58       1.0  0.56360  0.16259  0.54602  1.0000
  F   F59       1.0  0.56825  0.66225  0.04617  1.0000
  F   F60       1.0  0.55885  0.65336  0.56432  1.0000
  F   F61       1.0  0.81927  0.15687  0.04448  1.0000
  F   F62       1.0  0.80968  0.16492  0.56027  1.0000
  F   F63       1.0  0.81859  0.66177  0.04756  1.0000
  F   F64       1.0  0.82379  0.66603  0.53940  1.0000
  F   F65       1.0  0.19976  0.19803  0.21021  1.0000
  F   F66       1.0  0.21241  0.19492  0.70890  1.0000
  F   F67       1.0  0.20448  0.70851  0.21589  1.0000
  F   F68       1.0  0.20444  0.70985  0.70466  1.0000
  F   F69       1.0  0.45015  0.19870  0.21471  1.0000
  F   F70       1.0  0.44978  0.20392  0.71860  1.0000
  F   F71       1.0  0.45836  0.69054  0.21874  1.0000
  F   F72       1.0  0.44008  0.70291  0.72675  1.0000
  F   F73       1.0  0.70337  0.20570  0.20613  1.0000
  F   F74       1.0  0.70656  0.19410  0.70235  1.0000
  F   F75       1.0  0.70078  0.70016  0.20436  1.0000
  F   F76       1.0  0.69918  0.70321  0.72278  1.0000
  F   F77       1.0  0.95438  0.20446  0.21214  1.0000
  F   F78       1.0  0.95325  0.19740  0.72180  1.0000
  F   F79       1.0  0.95347  0.70052  0.23033  1.0000
  F   F80       1.0  0.95167  0.70749  0.69937  1.0000
  F   F81       1.0  0.14894  0.07854  0.03377  1.0000
  F   F82       1.0  0.15121  0.10665  0.54213  1.0000
  F   F83       1.0  0.15499  0.59675  0.03142  1.0000
  F   F84       1.0  0.14463  0.58150  0.53476  1.0000
  F   F85       1.0  0.39814  0.08166  0.05155  1.0000
  F   F86       1.0  0.39847  0.08289  0.54444  1.0000
  F   F87       1.0  0.39404  0.61762  0.03256  1.0000
  F   F88       1.0  0.39983  0.59120  0.53590  1.0000
  F   F89       1.0  0.64087  0.07915  0.03281  1.0000
  F   F90       1.0  0.64869  0.10160  0.52410  1.0000
  F   F91       1.0  0.64882  0.58771  0.04122  1.0000
  F   F92       1.0  0.64610  0.61107  0.54000  1.0000
  F   F93       1.0  0.90450  0.10566  0.02905  1.0000
  F   F94       1.0  0.90135  0.10994  0.54242  1.0000
  F   F95       1.0  0.90303  0.61439  0.03582  1.0000
  F   F96       1.0  0.89413  0.57267  0.54249  1.0000
  F   F97       1.0  0.14974  0.18189  0.11986  1.0000
  F   F98       1.0  0.15553  0.18972  0.63307  1.0000
  F   F99       1.0  0.14725  0.69085  0.13671  1.0000
  F   F100      1.0  0.15255  0.69820  0.61106  1.0000
  F   F101      1.0  0.39703  0.20257  0.11903  1.0000
  F   F102      1.0  0.40351  0.18798  0.62762  1.0000
  F   F103      1.0  0.40463  0.69887  0.12330  1.0000
  F   F104      1.0  0.40205  0.69667  0.61204  1.0000
  F   F105      1.0  0.64972  0.18980  0.11363  1.0000
  F   F106      1.0  0.65285  0.20062  0.62255  1.0000
  F   F107      1.0  0.64752  0.70927  0.11229  1.0000
  F   F108      1.0  0.64179  0.71124  0.64087  1.0000
  F   F109      1.0  0.90312  0.19826  0.13452  1.0000
  F   F110      1.0  0.90232  0.20372  0.63470  1.0000
  F   F111      1.0  0.90813  0.70110  0.12777  1.0000
  F   F112      1.0  0.90221  0.68912  0.60930  1.0000
  F   F113      1.0  0.10281  0.29909  0.38843  1.0000
  F   F114      1.0  0.10068  0.30694  0.87495  1.0000
  F   F115      1.0  0.08945  0.79682  0.38780  1.0000
  F   F116      1.0  0.09670  0.80640  0.86908  1.0000
  F   F117      1.0  0.35010  0.31141  0.36411  1.0000
  F   F118      1.0  0.35180  0.29973  0.87181  1.0000
  F   F119      1.0  0.34923  0.79378  0.39866  1.0000
  F   F120      1.0  0.35122  0.80131  0.88488  1.0000
  F   F121      1.0  0.60068  0.29214  0.38733  1.0000
  F   F122      1.0  0.59666  0.32342  0.86345  1.0000
  F   F123      1.0  0.60497  0.77791  0.36600  1.0000
  F   F124      1.0  0.59796  0.80085  0.88793  1.0000
  F   F125      1.0  0.85338  0.29738  0.36685  1.0000
  F   F126      1.0  0.85319  0.29355  0.87390  1.0000
  F   F127      1.0  0.83633  0.82012  0.37892  1.0000
  F   F128      1.0  0.85242  0.80596  0.85957  1.0000
  F   F129      1.0  0.05680  0.24963  0.14870  1.0000
  F   F130      1.0  0.07143  0.24848  0.65591  1.0000
  F   F131      1.0  0.05970  0.74769  0.14899  1.0000
  F   F132      1.0  0.07044  0.75356  0.63883  1.0000
  F   F133      1.0  0.30676  0.25141  0.15422  1.0000
  F   F134      1.0  0.30745  0.23954  0.65842  1.0000
  F   F135      1.0  0.31881  0.76443  0.11274  1.0000
  F   F136      1.0  0.30756  0.75142  0.65249  1.0000
  F   F137      1.0  0.56305  0.24592  0.14252  1.0000
  F   F138      1.0  0.57048  0.24923  0.63024  1.0000
  F   F139      1.0  0.56258  0.75508  0.14046  1.0000
  F   F140      1.0  0.55545  0.74321  0.66116  1.0000
  F   F141      1.0  0.82547  0.26359  0.11512  1.0000
  F   F142      1.0  0.81487  0.25279  0.64645  1.0000
  F   F143      1.0  0.82768  0.74687  0.13421  1.0000
  F   F144      1.0  0.80777  0.76062  0.64994  1.0000
  F   F145      1.0  0.12802  0.35262  0.11019  1.0000
  F   F146      1.0  0.13171  0.38453  0.59451  1.0000
  F   F147      1.0  0.12430  0.86433  0.10565  1.0000
  F   F148      1.0  0.12701  0.88590  0.58829  1.0000
  F   F149      1.0  0.37472  0.36022  0.11331  1.0000
  F   F150      1.0  0.37422  0.36198  0.61322  1.0000
  F   F151      1.0  0.36956  0.87856  0.10635  1.0000
  F   F152      1.0  0.37473  0.85145  0.62110  1.0000
  F   F153      1.0  0.62786  0.36292  0.11164  1.0000
  F   F154      1.0  0.62856  0.36424  0.60968  1.0000
  F   F155      1.0  0.62246  0.86873  0.11538  1.0000
  F   F156      1.0  0.62523  0.89220  0.57994  1.0000
  F   F157      1.0  0.87378  0.36807  0.12034  1.0000
  F   F158      1.0  0.87725  0.38074  0.59457  1.0000
  F   F159      1.0  0.87882  0.87645  0.09932  1.0000
  F   F160      1.0  0.86886  0.86646  0.62704  1.0000
  F   F161      1.0  0.19452  0.25294  0.33431  1.0000
  F   F162      1.0  0.18427  0.24526  0.87700  1.0000
  F   F163      1.0  0.18428  0.74868  0.36501  1.0000
  F   F164      1.0  0.17989  0.75022  0.86045  1.0000
  F   F165      1.0  0.43891  0.25564  0.34152  1.0000
  F   F166      1.0  0.43334  0.24341  0.86373  1.0000
  F   F167      1.0  0.43716  0.75270  0.34542  1.0000
  F   F168      1.0  0.43589  0.75509  0.85669  1.0000
  F   F169      1.0  0.68730  0.24287  0.35712  1.0000
  F   F170      1.0  0.68345  0.25251  0.85769  1.0000
  F   F171      1.0  0.69179  0.74615  0.33895  1.0000
  F   F172      1.0  0.67973  0.74763  0.87200  1.0000
  F   F173      1.0  0.94688  0.25550  0.34020  1.0000
  F   F174      1.0  0.93066  0.25303  0.86637  1.0000
  F   F175      1.0  0.91921  0.73974  0.38789  1.0000
  F   F176      1.0  0.93756  0.74889  0.85398  1.0000
  F   F177      1.0  0.12198  0.12284  0.40160  1.0000
  F   F178      1.0  0.12421  0.12329  0.88979  1.0000
  F   F179      1.0  0.12504  0.64058  0.38103  1.0000
  F   F180      1.0  0.12657  0.63394  0.88126  1.0000
  F   F181      1.0  0.37121  0.13036  0.40608  1.0000
  F   F182      1.0  0.37054  0.11293  0.91560  1.0000
  F   F183      1.0  0.37522  0.62779  0.37451  1.0000
  F   F184      1.0  0.37563  0.61926  0.89005  1.0000
  F   F185      1.0  0.62684  0.12634  0.38629  1.0000
  F   F186      1.0  0.62537  0.14812  0.87529  1.0000
  F   F187      1.0  0.62780  0.60771  0.41387  1.0000
  F   F188      1.0  0.62581  0.62481  0.88047  1.0000
  F   F189      1.0  0.87695  0.12342  0.39894  1.0000
  F   F190      1.0  0.87984  0.10929  0.90035  1.0000
  F   F191      1.0  0.87070  0.61934  0.39703  1.0000
  F   F192      1.0  0.87591  0.62232  0.90197  1.0000
  F   F193      1.0  0.00695  0.36720  0.07023  1.0000
  F   F194      1.0  0.00476  0.35484  0.59253  1.0000
  F   F195      1.0  0.00738  0.85389  0.07626  1.0000
  F   F196      1.0  0.00312  0.86080  0.57715  1.0000
  F   F197      1.0  0.26000  0.35524  0.08694  1.0000
  F   F198      1.0  0.25627  0.36255  0.58747  1.0000
  F   F199      1.0  0.25440  0.86672  0.08525  1.0000
  F   F200      1.0  0.25574  0.86514  0.57506  1.0000
  F   F201      1.0  0.51076  0.36218  0.06371  1.0000
  F   F202      1.0  0.50507  0.35935  0.57451  1.0000
  F   F203      1.0  0.50761  0.85373  0.08183  1.0000
  F   F204      1.0  0.50481  0.87061  0.56505  1.0000
  F   F205      1.0  0.76084  0.36029  0.06688  1.0000
  F   F206      1.0  0.75581  0.35554  0.57292  1.0000
  F   F207      1.0  0.75246  0.85611  0.07990  1.0000
  F   F208      1.0  0.75746  0.87374  0.55077  1.0000
  F   F209      1.0  0.08365  0.48654  0.14785  1.0000
  F   F210      1.0  0.07706  0.47328  0.68297  1.0000
  F   F211      1.0  0.06694  0.97543  0.18380  1.0000
  F   F212      1.0  0.07227  0.99068  0.66212  1.0000
  F   F213      1.0  0.32164  0.47894  0.17754  1.0000
  F   F214      1.0  0.31855  0.48726  0.66335  1.0000
  F   F215      1.0  0.31397  0.98675  0.18356  1.0000
  F   F216      1.0  0.32131  0.97812  0.66986  1.0000
  F   F217      1.0  0.57030  0.47987  0.17542  1.0000
  F   F218      1.0  0.57152  0.48257  0.67999  1.0000
  F   F219      1.0  0.56550  0.98809  0.17137  1.0000
  F   F220      1.0  0.56533  0.98596  0.66924  1.0000
  F   F221      1.0  0.82088  0.48258  0.16783  1.0000
  F   F222      1.0  0.80702  0.48959  0.67332  1.0000
  F   F223      1.0  0.82155  0.97475  0.17875  1.0000
  F   F224      1.0  0.82001  0.99163  0.66989  1.0000
  F   F225      1.0  0.24350  0.13285  0.42559  1.0000
  F   F226      1.0  0.24003  0.13642  0.92978  1.0000
  F   F227      1.0  0.24325  0.65767  0.41200  1.0000
  F   F228      1.0  0.24565  0.65416  0.91288  1.0000
  F   F229      1.0  0.48774  0.13440  0.43210  1.0000
  F   F230      1.0  0.49231  0.13968  0.91346  1.0000
  F   F231      1.0  0.49197  0.63900  0.42036  1.0000
  F   F232      1.0  0.49167  0.63731  0.93847  1.0000
  F   F233      1.0  0.74193  0.13421  0.42053  1.0000
  F   F234      1.0  0.74167  0.14756  0.91716  1.0000
  F   F235      1.0  0.74443  0.64584  0.41433  1.0000
  F   F236      1.0  0.74265  0.63471  0.92929  1.0000
  F   F237      1.0  0.99495  0.13576  0.42894  1.0000
  F   F238      1.0  0.99931  0.13775  0.91915  1.0000
  F   F239      1.0  0.98865  0.64639  0.42274  1.0000
  F   F240      1.0  0.99154  0.62872  0.93163  1.0000
  F   F241      1.0  0.18259  0.02891  0.30921  1.0000
  F   F242      1.0  0.18821  0.02128  0.80491  1.0000
  F   F243      1.0  0.18104  0.51884  0.32415  1.0000
  F   F244      1.0  0.18134  0.50981  0.83325  1.0000
  F   F245      1.0  0.42958  0.02957  0.31801  1.0000
  F   F246      1.0  0.43062  0.01882  0.81733  1.0000
  F   F247      1.0  0.42993  0.49873  0.34235  1.0000
  F   F248      1.0  0.43327  0.51721  0.81671  1.0000
  F   F249      1.0  0.67723  0.00936  0.31960  1.0000
  F   F250      1.0  0.68175  0.01950  0.81815  1.0000
  F   F251      1.0  0.67669  0.50036  0.32822  1.0000
  F   F252      1.0  0.68869  0.51581  0.81718  1.0000
  F   F253      1.0  0.93827  0.00991  0.30788  1.0000
  F   F254      1.0  0.93640  0.99766  0.83206  1.0000
  F   F255      1.0  0.93040  0.51304  0.32420  1.0000
  F   F256      1.0  0.93232  0.51727  0.81483  1.0000
  F   F257      1.0  0.00040  0.25272  0.99911  1.0000
  F   F258      1.0  0.00098  0.25592  0.49621  1.0000
  F   F259      1.0  0.99531  0.75323  0.99397  1.0000
  F   F260      1.0  0.99727  0.74908  0.50457  1.0000
  F   F261      1.0  0.24833  0.24646  0.01196  1.0000
  F   F262      1.0  0.25300  0.25176  0.49955  1.0000
  F   F263      1.0  0.24524  0.74979  0.00485  1.0000
  F   F264      1.0  0.25350  0.75466  0.50581  1.0000
  F   F265      1.0  0.50302  0.26025  0.98578  1.0000
  F   F266      1.0  0.49806  0.24202  0.50152  1.0000
  F   F267      1.0  0.50271  0.76452  0.98295  1.0000
  F   F268      1.0  0.50190  0.75278  0.49256  1.0000
  F   F269      1.0  0.75077  0.25373  0.99377  1.0000
  F   F270      1.0  0.74624  0.23701  0.49959  1.0000
  F   F271      1.0  0.75120  0.74796  0.00716  1.0000
  F   F272      1.0  0.74858  0.72067  0.52342  1.0000
  F   F273      1.0  0.11549  0.99703  0.26111  1.0000
  F   F274      1.0  0.12716  0.00388  0.73647  1.0000
  F   F275      1.0  0.12470  0.49167  0.25574  1.0000
  F   F276      1.0  0.13795  0.50791  0.73292  1.0000
  F   F277      1.0  0.37544  0.00098  0.25457  1.0000
  F   F278      1.0  0.37207  0.00616  0.75463  1.0000
  F   F279      1.0  0.37732  0.51398  0.23696  1.0000
  F   F280      1.0  0.37115  0.50083  0.74975  1.0000
  F   F281      1.0  0.62122  0.99043  0.25512  1.0000
  F   F282      1.0  0.62915  0.00259  0.73597  1.0000
  F   F283      1.0  0.61750  0.48082  0.26691  1.0000
  F   F284      1.0  0.63602  0.50073  0.73333  1.0000
  F   F285      1.0  0.87748  0.99368  0.24551  1.0000
  F   F286      1.0  0.88310  0.01083  0.73616  1.0000
  F   F287      1.0  0.87438  0.49355  0.24568  1.0000
  F   F288      1.0  0.85731  0.48498  0.76403  1.0000
  F   F289      1.0  0.04077  0.01887  0.03306  1.0000
  F   F290      1.0  0.04344  0.02807  0.51556  1.0000
  F   F291      1.0  0.04398  0.52852  0.02756  1.0000
  F   F292      1.0  0.04164  0.53140  0.52338  1.0000
  F   F293      1.0  0.28647  0.03626  0.02866  1.0000
  F   F294      1.0  0.29312  0.02973  0.52544  1.0000
  F   F295      1.0  0.29485  0.53035  0.01552  1.0000
  F   F296      1.0  0.28880  0.54273  0.52564  1.0000
  F   F297      1.0  0.54628  0.02973  0.01455  1.0000
  F   F298      1.0  0.54651  0.02281  0.51373  1.0000
  F   F299      1.0  0.54103  0.52879  0.02599  1.0000
  F   F300      1.0  0.53830  0.53139  0.52678  1.0000
  F   F301      1.0  0.79356  0.02528  0.02207  1.0000
  F   F302      1.0  0.79223  0.03779  0.53534  1.0000
  F   F303      1.0  0.79138  0.53431  0.01233  1.0000
  F   F304      1.0  0.79155  0.53005  0.51155  1.0000
  F   F305      1.0  0.23271  0.43784  0.21980  1.0000
  F   F306      1.0  0.23214  0.40536  0.73886  1.0000
  F   F307      1.0  0.23580  0.91080  0.24129  1.0000
  F   F308      1.0  0.23494  0.89700  0.73327  1.0000
  F   F309      1.0  0.48718  0.41828  0.22573  1.0000
  F   F310      1.0  0.48301  0.40827  0.72419  1.0000
  F   F311      1.0  0.47932  0.91827  0.23474  1.0000
  F   F312      1.0  0.48517  0.91028  0.73217  1.0000
  F   F313      1.0  0.73488  0.41387  0.21240  1.0000
  F   F314      1.0  0.73604  0.40188  0.72382  1.0000
  F   F315      1.0  0.74029  0.91910  0.21915  1.0000
  F   F316      1.0  0.73297  0.91838  0.71496  1.0000
  F   F317      1.0  0.99075  0.41183  0.23632  1.0000
  F   F318      1.0  0.99188  0.41158  0.74104  1.0000
  F   F319      1.0  0.98415  0.89144  0.24092  1.0000
  F   F320      1.0  0.98852  0.92490  0.71625  1.0000
  F   F321      1.0  0.21370  0.46763  0.47187  1.0000
  F   F322      1.0  0.20794  0.47133  0.97891  1.0000
  F   F323      1.0  0.20579  0.97429  0.48011  1.0000
  F   F324      1.0  0.20936  0.96741  0.97240  1.0000
  F   F325      1.0  0.46279  0.46033  0.46626  1.0000
  F   F326      1.0  0.45407  0.47021  0.99184  1.0000
  F   F327      1.0  0.45487  0.97259  0.47833  1.0000
  F   F328      1.0  0.45598  0.96817  0.96808  1.0000
  F   F329      1.0  0.70407  0.47717  0.48532  1.0000
  F   F330      1.0  0.70578  0.47535  0.96541  1.0000
  F   F331      1.0  0.71011  0.96642  0.46813  1.0000
  F   F332      1.0  0.71124  0.98064  0.96763  1.0000
  F   F333      1.0  0.96359  0.46632  0.46833  1.0000
  F   F334      1.0  0.95369  0.47077  0.98120  1.0000
  F   F335      1.0  0.95005  0.97458  0.48258  1.0000
  F   F336      1.0  0.96223  0.96248  0.97081  1.0000
  F   F337      1.0  0.01497  0.08441  0.28968  1.0000
  F   F338      1.0  0.01588  0.09077  0.77696  1.0000
  F   F339      1.0  0.02110  0.57894  0.26242  1.0000
  F   F340      1.0  0.01541  0.58053  0.77293  1.0000
  F   F341      1.0  0.26038  0.08456  0.28757  1.0000
  F   F342      1.0  0.27180  0.06612  0.77587  1.0000
  F   F343      1.0  0.26461  0.59087  0.27864  1.0000
  F   F344      1.0  0.26231  0.58401  0.77378  1.0000
  F   F345      1.0  0.51154  0.08602  0.27644  1.0000
  F   F346      1.0  0.51098  0.08992  0.77070  1.0000
  F   F347      1.0  0.52205  0.57164  0.26914  1.0000
  F   F348      1.0  0.50957  0.59433  0.77739  1.0000
  F   F349      1.0  0.76782  0.08754  0.26293  1.0000
  F   F350      1.0  0.76673  0.09489  0.77694  1.0000
  F   F351      1.0  0.76692  0.58491  0.26023  1.0000
  F   F352      1.0  0.76599  0.60317  0.76538  1.0000
  F   F353      1.0  0.10084  0.40940  0.47016  1.0000
  F   F354      1.0  0.09996  0.39389  0.97133  1.0000
  F   F355      1.0  0.09658  0.89995  0.45889  1.0000
  F   F356      1.0  0.10411  0.92027  0.95476  1.0000
  F   F357      1.0  0.34836  0.40700  0.47224  1.0000
  F   F358      1.0  0.35320  0.41559  0.94831  1.0000
  F   F359      1.0  0.35591  0.91475  0.46585  1.0000
  F   F360      1.0  0.35050  0.92079  0.95488  1.0000
  F   F361      1.0  0.59992  0.41697  0.46856  1.0000
  F   F362      1.0  0.60173  0.41580  0.95775  1.0000
  F   F363      1.0  0.59479  0.88595  0.45719  1.0000
  F   F364      1.0  0.60373  0.91384  0.96135  1.0000
  F   F365      1.0  0.84649  0.40977  0.45602  1.0000
  F   F366      1.0  0.85406  0.40823  0.95933  1.0000
  F   F367      1.0  0.85277  0.92200  0.46421  1.0000
  F   F368      1.0  0.84254  0.90184  0.96027  1.0000
  F   F369      1.0  0.06385  0.30610  0.28249  1.0000
  F   F370      1.0  0.05644  0.28822  0.78579  1.0000
  F   F371      1.0  0.04924  0.78943  0.29096  1.0000
  F   F372      1.0  0.04317  0.79813  0.78186  1.0000
  F   F373      1.0  0.28692  0.30337  0.30246  1.0000
  F   F374      1.0  0.29130  0.30325  0.79451  1.0000
  F   F375      1.0  0.30111  0.80242  0.28828  1.0000
  F   F376      1.0  0.30085  0.80492  0.80111  1.0000
  F   F377      1.0  0.54404  0.30695  0.28420  1.0000
  F   F378      1.0  0.55066  0.29811  0.76924  1.0000
  F   F379      1.0  0.54097  0.80104  0.29412  1.0000
  F   F380      1.0  0.55489  0.78568  0.78935  1.0000
  F   F381      1.0  0.79854  0.29710  0.29016  1.0000
  F   F382      1.0  0.79815  0.30127  0.79038  1.0000
  F   F383      1.0  0.80048  0.79887  0.28314  1.0000
  F   F384      1.0  0.78620  0.79928  0.80379  1.0000
