data_image0
_chemical_formula_structural       Hf96F384
_chemical_formula_sum              "Hf96 F384"
_cell_length_a       31.0552
_cell_length_b       15.5286
_cell_length_c       15.5158
_cell_angle_alpha    63.342
_cell_angle_beta     63.342
_cell_angle_gamma    80.1625

_space_group_name_H-M_alt    "P 1"
_space_group_IT_number       1

loop_
  _space_group_symop_operation_xyz
  'x, y, z'

loop_
  _atom_site_type_symbol
  _atom_site_label
  _atom_site_symmetry_multiplicity
  _atom_site_fract_x
  _atom_site_fract_y
  _atom_site_fract_z
  _atom_site_occupancy
  Hf  Hf1       1.0  0.19821  0.11129  0.37478  1.0000
  Hf  Hf2       1.0  0.19844  0.10747  0.87115  1.0000
  Hf  Hf3       1.0  0.19699  0.60893  0.37674  1.0000
  Hf  Hf4       1.0  0.19465  0.60935  0.87499  1.0000
  Hf  Hf5       1.0  0.44404  0.10550  0.37165  1.0000
  Hf  Hf6       1.0  0.44708  0.10780  0.87795  1.0000
  Hf  Hf7       1.0  0.44600  0.59761  0.38158  1.0000
  Hf  Hf8       1.0  0.44549  0.60376  0.87425  1.0000
  Hf  Hf9       1.0  0.69897  0.10494  0.36692  1.0000
  Hf  Hf10      1.0  0.70071  0.12281  0.86750  1.0000
  Hf  Hf11      1.0  0.69117  0.60545  0.38815  1.0000
  Hf  Hf12      1.0  0.69433  0.62108  0.87591  1.0000
  Hf  Hf13      1.0  0.94866  0.10272  0.37561  1.0000
  Hf  Hf14      1.0  0.95093  0.11074  0.86086  1.0000
  Hf  Hf15      1.0  0.94226  0.60125  0.38225  1.0000
  Hf  Hf16      1.0  0.94556  0.60744  0.87172  1.0000
  Hf  Hf17      1.0  0.05582  0.38877  0.12702  1.0000
  Hf  Hf18      1.0  0.05542  0.39482  0.62235  1.0000
  Hf  Hf19      1.0  0.05700  0.88566  0.12719  1.0000
  Hf  Hf20      1.0  0.04865  0.89050  0.63014  1.0000
  Hf  Hf21      1.0  0.30721  0.39008  0.13049  1.0000
  Hf  Hf22      1.0  0.30290  0.38210  0.63194  1.0000
  Hf  Hf23      1.0  0.30155  0.88730  0.13801  1.0000
  Hf  Hf24      1.0  0.30515  0.88627  0.62206  1.0000
  Hf  Hf25      1.0  0.55608  0.39477  0.12371  1.0000
  Hf  Hf26      1.0  0.55041  0.39053  0.62696  1.0000
  Hf  Hf27      1.0  0.55446  0.89882  0.12166  1.0000
  Hf  Hf28      1.0  0.54985  0.88568  0.63511  1.0000
  Hf  Hf29      1.0  0.80691  0.39241  0.12391  1.0000
  Hf  Hf30      1.0  0.80344  0.38975  0.62565  1.0000
  Hf  Hf31      1.0  0.79995  0.89446  0.11988  1.0000
  Hf  Hf32      1.0  0.80962  0.89779  0.61827  1.0000
  Hf  Hf33      1.0  0.05973  0.18494  0.41390  1.0000
  Hf  Hf34      1.0  0.05683  0.18466  0.91886  1.0000
  Hf  Hf35      1.0  0.05575  0.68111  0.42053  1.0000
  Hf  Hf36      1.0  0.05486  0.67914  0.91816  1.0000
  Hf  Hf37      1.0  0.30676  0.17994  0.41857  1.0000
  Hf  Hf38      1.0  0.30827  0.17649  0.91591  1.0000
  Hf  Hf39      1.0  0.30590  0.67306  0.42266  1.0000
  Hf  Hf40      1.0  0.30590  0.67618  0.91449  1.0000
  Hf  Hf41      1.0  0.55114  0.17375  0.42518  1.0000
  Hf  Hf42      1.0  0.55749  0.18726  0.91561  1.0000
  Hf  Hf43      1.0  0.55432  0.68500  0.41581  1.0000
  Hf  Hf44      1.0  0.55479  0.68635  0.92064  1.0000
  Hf  Hf45      1.0  0.80504  0.19590  0.40663  1.0000
  Hf  Hf46      1.0  0.80840  0.19294  0.91400  1.0000
  Hf  Hf47      1.0  0.80370  0.68891  0.42352  1.0000
  Hf  Hf48      1.0  0.80812  0.68421  0.91508  1.0000
  Hf  Hf49      1.0  0.15958  0.39037  0.33365  1.0000
  Hf  Hf50      1.0  0.16065  0.38557  0.83148  1.0000
  Hf  Hf51      1.0  0.15899  0.88917  0.34086  1.0000
  Hf  Hf52      1.0  0.16082  0.89283  0.83338  1.0000
  Hf  Hf53      1.0  0.40786  0.39049  0.32931  1.0000
  Hf  Hf54      1.0  0.40671  0.38362  0.83221  1.0000
  Hf  Hf55      1.0  0.40781  0.88451  0.33260  1.0000
  Hf  Hf56      1.0  0.40399  0.87627  0.84711  1.0000
  Hf  Hf57      1.0  0.65965  0.38641  0.32997  1.0000
  Hf  Hf58      1.0  0.65571  0.38825  0.83339  1.0000
  Hf  Hf59      1.0  0.65933  0.88705  0.33735  1.0000
  Hf  Hf60      1.0  0.66193  0.90386  0.82108  1.0000
  Hf  Hf61      1.0  0.91345  0.39340  0.31914  1.0000
  Hf  Hf62      1.0  0.91423  0.39550  0.82269  1.0000
  Hf  Hf63      1.0  0.90842  0.89381  0.33573  1.0000
  Hf  Hf64      1.0  0.90538  0.88387  0.84080  1.0000
  Hf  Hf65      1.0  0.19661  0.30570  0.08455  1.0000
  Hf  Hf66      1.0  0.19270  0.31946  0.58800  1.0000
  Hf  Hf67      1.0  0.19658  0.81607  0.08497  1.0000
  Hf  Hf68      1.0  0.18896  0.82707  0.58479  1.0000
  Hf  Hf69      1.0  0.44762  0.31922  0.07220  1.0000
  Hf  Hf70      1.0  0.44337  0.31450  0.57764  1.0000
  Hf  Hf71      1.0  0.44463  0.82756  0.07716  1.0000
  Hf  Hf72      1.0  0.44353  0.81901  0.58139  1.0000
  Hf  Hf73      1.0  0.69768  0.31540  0.07511  1.0000
  Hf  Hf74      1.0  0.69037  0.31318  0.58550  1.0000
  Hf  Hf75      1.0  0.69126  0.81310  0.08858  1.0000
  Hf  Hf76      1.0  0.69278  0.82851  0.58368  1.0000
  Hf  Hf77      1.0  0.94692  0.31231  0.07706  1.0000
  Hf  Hf78      1.0  0.94719  0.32453  0.57274  1.0000
  Hf  Hf79      1.0  0.94251  0.81620  0.08926  1.0000
  Hf  Hf80      1.0  0.94461  0.81166  0.58784  1.0000
  Hf  Hf81      1.0  0.08998  0.10456  0.17760  1.0000
  Hf  Hf82      1.0  0.09196  0.10995  0.66611  1.0000
  Hf  Hf83      1.0  0.09015  0.61153  0.16501  1.0000
  Hf  Hf84      1.0  0.09715  0.61612  0.66703  1.0000
  Hf  Hf85      1.0  0.34045  0.11072  0.17339  1.0000
  Hf  Hf86      1.0  0.34257  0.10250  0.66892  1.0000
  Hf  Hf87      1.0  0.33847  0.60766  0.17199  1.0000
  Hf  Hf88      1.0  0.34090  0.60552  0.66782  1.0000
  Hf  Hf89      1.0  0.59453  0.11248  0.16149  1.0000
  Hf  Hf90      1.0  0.58920  0.11263  0.66312  1.0000
  Hf  Hf91      1.0  0.58900  0.61283  0.17010  1.0000
  Hf  Hf92      1.0  0.58662  0.61490  0.67023  1.0000
  Hf  Hf93      1.0  0.84088  0.10845  0.16577  1.0000
  Hf  Hf94      1.0  0.84351  0.10965  0.66395  1.0000
  Hf  Hf95      1.0  0.83537  0.61273  0.17572  1.0000
  Hf  Hf96      1.0  0.84033  0.62245  0.66666  1.0000
  F   F1        1.0  0.06746  0.11703  0.32443  1.0000
  F   F2        1.0  0.07548  0.12085  0.81511  1.0000
  F   F3        1.0  0.07763  0.60853  0.31315  1.0000
  F   F4        1.0  0.08474  0.64098  0.79804  1.0000
  F   F5        1.0  0.32879  0.15076  0.29927  1.0000
  F   F6        1.0  0.33033  0.11608  0.80714  1.0000
  F   F7        1.0  0.32729  0.64590  0.29387  1.0000
  F   F8        1.0  0.32116  0.61310  0.80668  1.0000
  F   F9        1.0  0.57864  0.11838  0.30943  1.0000
  F   F10       1.0  0.58325  0.16102  0.78959  1.0000
  F   F11       1.0  0.57933  0.62550  0.30693  1.0000
  F   F12       1.0  0.58067  0.64870  0.79638  1.0000
  F   F13       1.0  0.82707  0.14223  0.30294  1.0000
  F   F14       1.0  0.83002  0.13790  0.80446  1.0000
  F   F15       1.0  0.82282  0.62744  0.31298  1.0000
  F   F16       1.0  0.82721  0.62716  0.80554  1.0000
  F   F17       1.0  0.18555  0.34636  0.44552  1.0000
  F   F18       1.0  0.18605  0.33646  0.95168  1.0000
  F   F19       1.0  0.18023  0.82662  0.45919  1.0000
  F   F20       1.0  0.19047  0.85143  0.94268  1.0000
  F   F21       1.0  0.42841  0.34561  0.45224  1.0000
  F   F22       1.0  0.43962  0.34942  0.93638  1.0000
  F   F23       1.0  0.43973  0.83749  0.43299  1.0000
  F   F24       1.0  0.42747  0.84221  0.96252  1.0000
  F   F25       1.0  0.68236  0.33763  0.45132  1.0000
  F   F26       1.0  0.68149  0.33598  0.95318  1.0000
  F   F27       1.0  0.69539  0.85490  0.43273  1.0000
  F   F28       1.0  0.69084  0.85375  0.93908  1.0000
  F   F29       1.0  0.94926  0.34917  0.43335  1.0000
  F   F30       1.0  0.93091  0.32933  0.93962  1.0000
  F   F31       1.0  0.93498  0.84495  0.45258  1.0000
  F   F32       1.0  0.92870  0.84409  0.95911  1.0000
  F   F33       1.0  0.17114  0.37262  0.19727  1.0000
  F   F34       1.0  0.17034  0.37322  0.69686  1.0000
  F   F35       1.0  0.16975  0.86156  0.20385  1.0000
  F   F36       1.0  0.17199  0.91131  0.67946  1.0000
  F   F37       1.0  0.41967  0.39165  0.18695  1.0000
  F   F38       1.0  0.41317  0.35993  0.70080  1.0000
  F   F39       1.0  0.42273  0.89640  0.19049  1.0000
  F   F40       1.0  0.41401  0.85824  0.70110  1.0000
  F   F41       1.0  0.67316  0.36477  0.19023  1.0000
  F   F42       1.0  0.66660  0.37870  0.69310  1.0000
  F   F43       1.0  0.66729  0.88398  0.18775  1.0000
  F   F44       1.0  0.67038  0.90133  0.67549  1.0000
  F   F45       1.0  0.92887  0.37644  0.18428  1.0000
  F   F46       1.0  0.91658  0.37578  0.68288  1.0000
  F   F47       1.0  0.91196  0.85858  0.21914  1.0000
  F   F48       1.0  0.91588  0.85230  0.70675  1.0000
  F   F49       1.0  0.06088  0.15215  0.05839  1.0000
  F   F50       1.0  0.06650  0.15690  0.55053  1.0000
  F   F51       1.0  0.06589  0.67320  0.04501  1.0000
  F   F52       1.0  0.06811  0.65752  0.55436  1.0000
  F   F53       1.0  0.31731  0.17051  0.04480  1.0000
  F   F54       1.0  0.30920  0.15999  0.55764  1.0000
  F   F55       1.0  0.31526  0.63288  0.06025  1.0000
  F   F56       1.0  0.30734  0.63961  0.57227  1.0000
  F   F57       1.0  0.55891  0.14782  0.06411  1.0000
  F   F58       1.0  0.56069  0.16161  0.55424  1.0000
  F   F59       1.0  0.56100  0.67001  0.05494  1.0000
  F   F60       1.0  0.57166  0.66149  0.54213  1.0000
  F   F61       1.0  0.80074  0.14441  0.07230  1.0000
  F   F62       1.0  0.82054  0.17238  0.54134  1.0000
  F   F63       1.0  0.83288  0.68168  0.03157  1.0000
  F   F64       1.0  0.81697  0.66057  0.54947  1.0000
  F   F65       1.0  0.20423  0.19814  0.22395  1.0000
  F   F66       1.0  0.20771  0.19620  0.70838  1.0000
  F   F67       1.0  0.19912  0.70211  0.20911  1.0000
  F   F68       1.0  0.19243  0.72403  0.71219  1.0000
  F   F69       1.0  0.44888  0.20129  0.21181  1.0000
  F   F70       1.0  0.45817  0.20160  0.72138  1.0000
  F   F71       1.0  0.44376  0.70777  0.20355  1.0000
  F   F72       1.0  0.45878  0.70076  0.71269  1.0000
  F   F73       1.0  0.70756  0.19074  0.21394  1.0000
  F   F74       1.0  0.71248  0.21697  0.70304  1.0000
  F   F75       1.0  0.69505  0.70440  0.22215  1.0000
  F   F76       1.0  0.69488  0.71161  0.71091  1.0000
  F   F77       1.0  0.95753  0.20402  0.20573  1.0000
  F   F78       1.0  0.95654  0.21332  0.70004  1.0000
  F   F79       1.0  0.94730  0.69703  0.21660  1.0000
  F   F80       1.0  0.96088  0.68936  0.70611  1.0000
  F   F81       1.0  0.14751  0.08919  0.04364  1.0000
  F   F82       1.0  0.15309  0.09379  0.53274  1.0000
  F   F83       1.0  0.14609  0.59430  0.04249  1.0000
  F   F84       1.0  0.15380  0.58348  0.53228  1.0000
  F   F85       1.0  0.39883  0.07452  0.04168  1.0000
  F   F86       1.0  0.39798  0.10174  0.53028  1.0000
  F   F87       1.0  0.39800  0.57832  0.03026  1.0000
  F   F88       1.0  0.40246  0.58101  0.55181  1.0000
  F   F89       1.0  0.65005  0.10660  0.03468  1.0000
  F   F90       1.0  0.64814  0.09656  0.53588  1.0000
  F   F91       1.0  0.64890  0.60448  0.03988  1.0000
  F   F92       1.0  0.64819  0.57914  0.54122  1.0000
  F   F93       1.0  0.89338  0.10537  0.03386  1.0000
  F   F94       1.0  0.90076  0.09739  0.54225  1.0000
  F   F95       1.0  0.90487  0.56990  0.02507  1.0000
  F   F96       1.0  0.89989  0.58723  0.55345  1.0000
  F   F97       1.0  0.15282  0.19449  0.13070  1.0000
  F   F98       1.0  0.14627  0.19120  0.63158  1.0000
  F   F99       1.0  0.14934  0.70235  0.11474  1.0000
  F   F100      1.0  0.15236  0.68969  0.62996  1.0000
  F   F101      1.0  0.40136  0.19165  0.11655  1.0000
  F   F102      1.0  0.41190  0.18613  0.62045  1.0000
  F   F103      1.0  0.40035  0.68303  0.11797  1.0000
  F   F104      1.0  0.40941  0.68746  0.62870  1.0000
  F   F105      1.0  0.66075  0.19176  0.12409  1.0000
  F   F106      1.0  0.65285  0.19059  0.62432  1.0000
  F   F107      1.0  0.65215  0.68740  0.13487  1.0000
  F   F108      1.0  0.64892  0.69845  0.62392  1.0000
  F   F109      1.0  0.90298  0.19977  0.12160  1.0000
  F   F110      1.0  0.90466  0.21462  0.61021  1.0000
  F   F111      1.0  0.89819  0.68547  0.12839  1.0000
  F   F112      1.0  0.89792  0.70458  0.63107  1.0000
  F   F113      1.0  0.09862  0.30015  0.37571  1.0000
  F   F114      1.0  0.09914  0.30397  0.86437  1.0000
  F   F115      1.0  0.10318  0.79968  0.39192  1.0000
  F   F116      1.0  0.10154  0.79295  0.84886  1.0000
  F   F117      1.0  0.34988  0.29334  0.36104  1.0000
  F   F118      1.0  0.34636  0.29952  0.86371  1.0000
  F   F119      1.0  0.35066  0.78907  0.36893  1.0000
  F   F120      1.0  0.34036  0.79643  0.89782  1.0000
  F   F121      1.0  0.59664  0.31352  0.38292  1.0000
  F   F122      1.0  0.60035  0.29392  0.87642  1.0000
  F   F123      1.0  0.59722  0.79191  0.38938  1.0000
  F   F124      1.0  0.59540  0.80449  0.86868  1.0000
  F   F125      1.0  0.85023  0.30728  0.34098  1.0000
  F   F126      1.0  0.85020  0.29844  0.88807  1.0000
  F   F127      1.0  0.84545  0.81287  0.38029  1.0000
  F   F128      1.0  0.84727  0.81239  0.87158  1.0000
  F   F129      1.0  0.07252  0.24856  0.13639  1.0000
  F   F130      1.0  0.06670  0.24395  0.63710  1.0000
  F   F131      1.0  0.05606  0.73934  0.16514  1.0000
  F   F132      1.0  0.06915  0.75635  0.63424  1.0000
  F   F133      1.0  0.30395  0.24842  0.15701  1.0000
  F   F134      1.0  0.32409  0.24429  0.64850  1.0000
  F   F135      1.0  0.30653  0.74859  0.13911  1.0000
  F   F136      1.0  0.32540  0.74490  0.62374  1.0000
  F   F137      1.0  0.57304  0.25083  0.13488  1.0000
  F   F138      1.0  0.55908  0.25513  0.64280  1.0000
  F   F139      1.0  0.56862  0.76044  0.13323  1.0000
  F   F140      1.0  0.55044  0.74633  0.65955  1.0000
  F   F141      1.0  0.81819  0.24668  0.14178  1.0000
  F   F142      1.0  0.81538  0.25370  0.64512  1.0000
  F   F143      1.0  0.80526  0.75306  0.15309  1.0000
  F   F144      1.0  0.81782  0.76005  0.62528  1.0000
  F   F145      1.0  0.12759  0.36399  0.11544  1.0000
  F   F146      1.0  0.12503  0.37407  0.60086  1.0000
  F   F147      1.0  0.12464  0.87679  0.10256  1.0000
  F   F148      1.0  0.12096  0.87797  0.61255  1.0000
  F   F149      1.0  0.37524  0.35438  0.11909  1.0000
  F   F150      1.0  0.37826  0.39761  0.58678  1.0000
  F   F151      1.0  0.37469  0.85449  0.12429  1.0000
  F   F152      1.0  0.37643  0.87079  0.58722  1.0000
  F   F153      1.0  0.62711  0.38796  0.09656  1.0000
  F   F154      1.0  0.62176  0.36265  0.61200  1.0000
  F   F155      1.0  0.62654  0.86400  0.10648  1.0000
  F   F156      1.0  0.62451  0.87430  0.59598  1.0000
  F   F157      1.0  0.87590  0.36543  0.11033  1.0000
  F   F158      1.0  0.87529  0.39977  0.56383  1.0000
  F   F159      1.0  0.86456  0.86054  0.12955  1.0000
  F   F160      1.0  0.87926  0.87638  0.59973  1.0000
  F   F161      1.0  0.18312  0.25442  0.35978  1.0000
  F   F162      1.0  0.18936  0.24939  0.84500  1.0000
  F   F163      1.0  0.19712  0.74816  0.35015  1.0000
  F   F164      1.0  0.18117  0.75107  0.87039  1.0000
  F   F165      1.0  0.43621  0.24393  0.36175  1.0000
  F   F166      1.0  0.43861  0.24454  0.87175  1.0000
  F   F167      1.0  0.43131  0.74126  0.35710  1.0000
  F   F168      1.0  0.42654  0.74190  0.87132  1.0000
  F   F169      1.0  0.68758  0.24586  0.35461  1.0000
  F   F170      1.0  0.68673  0.25923  0.85000  1.0000
  F   F171      1.0  0.68423  0.74989  0.36406  1.0000
  F   F172      1.0  0.68352  0.77223  0.84126  1.0000
  F   F173      1.0  0.93420  0.25727  0.35106  1.0000
  F   F174      1.0  0.94057  0.24486  0.84607  1.0000
  F   F175      1.0  0.93508  0.74734  0.36619  1.0000
  F   F176      1.0  0.93207  0.74373  0.87222  1.0000
  F   F177      1.0  0.12631  0.13606  0.38539  1.0000
  F   F178      1.0  0.13121  0.13580  0.88089  1.0000
  F   F179      1.0  0.12904  0.63824  0.37792  1.0000
  F   F180      1.0  0.12782  0.61957  0.89844  1.0000
  F   F181      1.0  0.37270  0.12313  0.40175  1.0000
  F   F182      1.0  0.37937  0.13640  0.87278  1.0000
  F   F183      1.0  0.37335  0.60211  0.41789  1.0000
  F   F184      1.0  0.37543  0.63622  0.87137  1.0000
  F   F185      1.0  0.62142  0.13614  0.39008  1.0000
  F   F186      1.0  0.62681  0.12256  0.91005  1.0000
  F   F187      1.0  0.62110  0.61949  0.39907  1.0000
  F   F188      1.0  0.62498  0.61081  0.90991  1.0000
  F   F189      1.0  0.88235  0.14034  0.38880  1.0000
  F   F190      1.0  0.87668  0.13854  0.88531  1.0000
  F   F191      1.0  0.87616  0.63108  0.39144  1.0000
  F   F192      1.0  0.88057  0.64988  0.85973  1.0000
  F   F193      1.0  0.01192  0.36527  0.06888  1.0000
  F   F194      1.0  0.01369  0.36553  0.56612  1.0000
  F   F195      1.0  0.00488  0.86790  0.07679  1.0000
  F   F196      1.0  0.00162  0.87315  0.57646  1.0000
  F   F197      1.0  0.26014  0.35859  0.06246  1.0000
  F   F198      1.0  0.25579  0.35044  0.59029  1.0000
  F   F199      1.0  0.25440  0.86804  0.07974  1.0000
  F   F200      1.0  0.25725  0.83793  0.58380  1.0000
  F   F201      1.0  0.51130  0.35547  0.07325  1.0000
  F   F202      1.0  0.50190  0.35575  0.58379  1.0000
  F   F203      1.0  0.50685  0.87743  0.06713  1.0000
  F   F204      1.0  0.50299  0.87229  0.56644  1.0000
  F   F205      1.0  0.76023  0.37376  0.06563  1.0000
  F   F206      1.0  0.76253  0.36734  0.57416  1.0000
  F   F207      1.0  0.75244  0.86935  0.07009  1.0000
  F   F208      1.0  0.75815  0.86738  0.57334  1.0000
  F   F209      1.0  0.06591  0.48433  0.18650  1.0000
  F   F210      1.0  0.07557  0.47753  0.66881  1.0000
  F   F211      1.0  0.07112  0.97599  0.18402  1.0000
  F   F212      1.0  0.06498  0.97892  0.67836  1.0000
  F   F213      1.0  0.32634  0.47792  0.17470  1.0000
  F   F214      1.0  0.31809  0.47311  0.69526  1.0000
  F   F215      1.0  0.32462  0.98851  0.16107  1.0000
  F   F216      1.0  0.32553  0.97261  0.66956  1.0000
  F   F217      1.0  0.57054  0.49080  0.16042  1.0000
  F   F218      1.0  0.56883  0.49239  0.65948  1.0000
  F   F219      1.0  0.57170  0.97996  0.16920  1.0000
  F   F220      1.0  0.56834  0.97794  0.67744  1.0000
  F   F221      1.0  0.81744  0.49092  0.16707  1.0000
  F   F222      1.0  0.81492  0.49531  0.68753  1.0000
  F   F223      1.0  0.81603  0.98266  0.17057  1.0000
  F   F224      1.0  0.82029  0.99059  0.66755  1.0000
  F   F225      1.0  0.24277  0.13991  0.42934  1.0000
  F   F226      1.0  0.24125  0.14273  0.92140  1.0000
  F   F227      1.0  0.24737  0.63306  0.42719  1.0000
  F   F228      1.0  0.24112  0.63046  0.93563  1.0000
  F   F229      1.0  0.49068  0.11866  0.43886  1.0000
  F   F230      1.0  0.49346  0.13564  0.92487  1.0000
  F   F231      1.0  0.48849  0.65092  0.41490  1.0000
  F   F232      1.0  0.49006  0.64342  0.91881  1.0000
  F   F233      1.0  0.73993  0.14302  0.42616  1.0000
  F   F234      1.0  0.74150  0.14961  0.93634  1.0000
  F   F235      1.0  0.73988  0.62505  0.43459  1.0000
  F   F236      1.0  0.73884  0.65661  0.91883  1.0000
  F   F237      1.0  0.98767  0.13968  0.42517  1.0000
  F   F238      1.0  0.99450  0.12966  0.92956  1.0000
  F   F239      1.0  0.99279  0.65298  0.42562  1.0000
  F   F240      1.0  0.99524  0.62547  0.92252  1.0000
  F   F241      1.0  0.18709  0.01528  0.33463  1.0000
  F   F242      1.0  0.18265  0.01068  0.81655  1.0000
  F   F243      1.0  0.18474  0.51188  0.33462  1.0000
  F   F244      1.0  0.18448  0.51556  0.81053  1.0000
  F   F245      1.0  0.42637  0.01156  0.33033  1.0000
  F   F246      1.0  0.43371  0.00726  0.82710  1.0000
  F   F247      1.0  0.42932  0.51353  0.31930  1.0000
  F   F248      1.0  0.43161  0.51410  0.83068  1.0000
  F   F249      1.0  0.67539  0.01720  0.32887  1.0000
  F   F250      1.0  0.68150  0.03637  0.78912  1.0000
  F   F251      1.0  0.67405  0.51578  0.33055  1.0000
  F   F252      1.0  0.68514  0.51414  0.80235  1.0000
  F   F253      1.0  0.93201  0.02085  0.31030  1.0000
  F   F254      1.0  0.93830  0.02541  0.81438  1.0000
  F   F255      1.0  0.92903  0.52121  0.31949  1.0000
  F   F256      1.0  0.93238  0.51132  0.81889  1.0000
  F   F257      1.0  0.99768  0.24626  0.99294  1.0000
  F   F258      1.0  0.00104  0.23741  0.50838  1.0000
  F   F259      1.0  0.99787  0.73977  0.00922  1.0000
  F   F260      1.0  0.00575  0.75813  0.49468  1.0000
  F   F261      1.0  0.24375  0.22281  0.01944  1.0000
  F   F262      1.0  0.25334  0.26047  0.49713  1.0000
  F   F263      1.0  0.25361  0.74292  0.00006  1.0000
  F   F264      1.0  0.24465  0.73325  0.50866  1.0000
  F   F265      1.0  0.49706  0.23357  0.01615  1.0000
  F   F266      1.0  0.50337  0.25731  0.48493  1.0000
  F   F267      1.0  0.49249  0.74643  0.00504  1.0000
  F   F268      1.0  0.49898  0.74738  0.50486  1.0000
  F   F269      1.0  0.76169  0.28595  0.97704  1.0000
  F   F270      1.0  0.75003  0.26885  0.48586  1.0000
  F   F271      1.0  0.75586  0.74953  0.00230  1.0000
  F   F272      1.0  0.74369  0.72488  0.52799  1.0000
  F   F273      1.0  0.12801  0.01044  0.25401  1.0000
  F   F274      1.0  0.11650  0.99472  0.76688  1.0000
  F   F275      1.0  0.12756  0.49718  0.23812  1.0000
  F   F276      1.0  0.12682  0.49801  0.74810  1.0000
  F   F277      1.0  0.36408  0.98473  0.27296  1.0000
  F   F278      1.0  0.37705  0.98772  0.75853  1.0000
  F   F279      1.0  0.36661  0.49892  0.26621  1.0000
  F   F280      1.0  0.38142  0.50235  0.75187  1.0000
  F   F281      1.0  0.61094  0.98710  0.26975  1.0000
  F   F282      1.0  0.61231  0.99259  0.76147  1.0000
  F   F283      1.0  0.62493  0.49626  0.24164  1.0000
  F   F284      1.0  0.61356  0.49904  0.75797  1.0000
  F   F285      1.0  0.86958  0.00749  0.25948  1.0000
  F   F286      1.0  0.87106  0.00482  0.75568  1.0000
  F   F287      1.0  0.87303  0.51037  0.24874  1.0000
  F   F288      1.0  0.87825  0.50314  0.75468  1.0000
  F   F289      1.0  0.05230  0.02623  0.02231  1.0000
  F   F290      1.0  0.05128  0.03806  0.51770  1.0000
  F   F291      1.0  0.04674  0.52563  0.03225  1.0000
  F   F292      1.0  0.05223  0.53381  0.51010  1.0000
  F   F293      1.0  0.29403  0.03978  0.03073  1.0000
  F   F294      1.0  0.29372  0.02455  0.51676  1.0000
  F   F295      1.0  0.29918  0.51695  0.02231  1.0000
  F   F296      1.0  0.29416  0.51296  0.52497  1.0000
  F   F297      1.0  0.54559  0.03573  0.00919  1.0000
  F   F298      1.0  0.53714  0.02314  0.54247  1.0000
  F   F299      1.0  0.53816  0.53171  0.02617  1.0000
  F   F300      1.0  0.52667  0.54399  0.53134  1.0000
  F   F301      1.0  0.79145  0.02801  0.02648  1.0000
  F   F302      1.0  0.79782  0.03324  0.51737  1.0000
  F   F303      1.0  0.78505  0.55796  0.02744  1.0000
  F   F304      1.0  0.80011  0.53314  0.52691  1.0000
  F   F305      1.0  0.23775  0.41826  0.21572  1.0000
  F   F306      1.0  0.23472  0.41518  0.72322  1.0000
  F   F307      1.0  0.23516  0.93598  0.20278  1.0000
  F   F308      1.0  0.23907  0.89683  0.73602  1.0000
  F   F309      1.0  0.49140  0.39950  0.23629  1.0000
  F   F310      1.0  0.47541  0.42643  0.71441  1.0000
  F   F311      1.0  0.48607  0.91339  0.24389  1.0000
  F   F312      1.0  0.48048  0.89852  0.74553  1.0000
  F   F313      1.0  0.73072  0.42053  0.23056  1.0000
  F   F314      1.0  0.73628  0.40271  0.73076  1.0000
  F   F315      1.0  0.72970  0.91884  0.22340  1.0000
  F   F316      1.0  0.73745  0.92182  0.72338  1.0000
  F   F317      1.0  0.98585  0.43413  0.21295  1.0000
  F   F318      1.0  0.98564  0.42245  0.71537  1.0000
  F   F319      1.0  0.98725  0.91061  0.21826  1.0000
  F   F320      1.0  0.97551  0.91274  0.73293  1.0000
  F   F321      1.0  0.21123  0.46713  0.49531  1.0000
  F   F322      1.0  0.21546  0.48137  0.96175  1.0000
  F   F323      1.0  0.21323  0.96655  0.48413  1.0000
  F   F324      1.0  0.20165  0.97171  0.97997  1.0000
  F   F325      1.0  0.46351  0.47571  0.46908  1.0000
  F   F326      1.0  0.47203  0.46557  0.96628  1.0000
  F   F327      1.0  0.45736  0.97561  0.45920  1.0000
  F   F328      1.0  0.46262  0.97386  0.96872  1.0000
  F   F329      1.0  0.70905  0.46406  0.47354  1.0000
  F   F330      1.0  0.69846  0.47316  0.97535  1.0000
  F   F331      1.0  0.70286  0.97375  0.47736  1.0000
  F   F332      1.0  0.70377  0.98503  0.97060  1.0000
  F   F333      1.0  0.96458  0.47760  0.47472  1.0000
  F   F334      1.0  0.96523  0.45243  0.96194  1.0000
  F   F335      1.0  0.95746  0.96270  0.48017  1.0000
  F   F336      1.0  0.94741  0.96912  0.99128  1.0000
  F   F337      1.0  0.01173  0.08360  0.27022  1.0000
  F   F338      1.0  0.01557  0.08621  0.76432  1.0000
  F   F339      1.0  0.01036  0.58014  0.27913  1.0000
  F   F340      1.0  0.02292  0.58539  0.76854  1.0000
  F   F341      1.0  0.26908  0.06870  0.28789  1.0000
  F   F342      1.0  0.27023  0.07640  0.76337  1.0000
  F   F343      1.0  0.26455  0.57290  0.26867  1.0000
  F   F344      1.0  0.25550  0.61047  0.75730  1.0000
  F   F345      1.0  0.51326  0.08683  0.26539  1.0000
  F   F346      1.0  0.51862  0.08850  0.76581  1.0000
  F   F347      1.0  0.51649  0.59632  0.26319  1.0000
  F   F348      1.0  0.51843  0.57314  0.78282  1.0000
  F   F349      1.0  0.77040  0.07171  0.27223  1.0000
  F   F350      1.0  0.76815  0.10020  0.76168  1.0000
  F   F351      1.0  0.76155  0.59050  0.26517  1.0000
  F   F352      1.0  0.75760  0.61056  0.76334  1.0000
  F   F353      1.0  0.10287  0.40960  0.45425  1.0000
  F   F354      1.0  0.10302  0.40069  0.95760  1.0000
  F   F355      1.0  0.10455  0.92361  0.44861  1.0000
  F   F356      1.0  0.10118  0.87046  0.96969  1.0000
  F   F357      1.0  0.34949  0.38069  0.46033  1.0000
  F   F358      1.0  0.34953  0.39841  0.96204  1.0000
  F   F359      1.0  0.34861  0.90588  0.45402  1.0000
  F   F360      1.0  0.35099  0.90852  0.96634  1.0000
  F   F361      1.0  0.59189  0.41295  0.47530  1.0000
  F   F362      1.0  0.59560  0.39437  0.96092  1.0000
  F   F363      1.0  0.59859  0.90740  0.46423  1.0000
  F   F364      1.0  0.60728  0.91334  0.95019  1.0000
  F   F365      1.0  0.85121  0.38025  0.44563  1.0000
  F   F366      1.0  0.84468  0.43360  0.96968  1.0000
  F   F367      1.0  0.85128  0.91667  0.45862  1.0000
  F   F368      1.0  0.84875  0.91415  0.97005  1.0000
  F   F369      1.0  0.04141  0.30625  0.29307  1.0000
  F   F370      1.0  0.04633  0.30050  0.78300  1.0000
  F   F371      1.0  0.05602  0.79103  0.28853  1.0000
  F   F372      1.0  0.03870  0.80683  0.78724  1.0000
  F   F373      1.0  0.28985  0.30738  0.28736  1.0000
  F   F374      1.0  0.28909  0.30525  0.78670  1.0000
  F   F375      1.0  0.28655  0.80387  0.29800  1.0000
  F   F376      1.0  0.30291  0.78677  0.78052  1.0000
  F   F377      1.0  0.55195  0.29013  0.28483  1.0000
  F   F378      1.0  0.54139  0.30411  0.79917  1.0000
  F   F379      1.0  0.54586  0.80244  0.29566  1.0000
  F   F380      1.0  0.54075  0.80151  0.79406  1.0000
  F   F381      1.0  0.78427  0.29449  0.29744  1.0000
  F   F382      1.0  0.80147  0.30175  0.78632  1.0000
  F   F383      1.0  0.78767  0.79899  0.31089  1.0000
  F   F384      1.0  0.80073  0.78980  0.78362  1.0000
