data_image0
_chemical_formula_structural       Hf96F384
_chemical_formula_sum              "Hf96 F384"
_cell_length_a       31.0325
_cell_length_b       15.5171
_cell_length_c       15.5113
_cell_angle_alpha    63.342
_cell_angle_beta     63.342
_cell_angle_gamma    80.1625

_space_group_name_H-M_alt    "P 1"
_space_group_IT_number       1

loop_
  _space_group_symop_operation_xyz
  'x, y, z'

loop_
  _atom_site_type_symbol
  _atom_site_label
  _atom_site_symmetry_multiplicity
  _atom_site_fract_x
  _atom_site_fract_y
  _atom_site_fract_z
  _atom_site_occupancy
  Hf  Hf1       1.0  0.20032  0.10882  0.37609  1.0000
  Hf  Hf2       1.0  0.19472  0.10179  0.87605  1.0000
  Hf  Hf3       1.0  0.19465  0.60612  0.37883  1.0000
  Hf  Hf4       1.0  0.19707  0.60842  0.86982  1.0000
  Hf  Hf5       1.0  0.44752  0.11366  0.37165  1.0000
  Hf  Hf6       1.0  0.44332  0.11069  0.87398  1.0000
  Hf  Hf7       1.0  0.44523  0.60572  0.37588  1.0000
  Hf  Hf8       1.0  0.44211  0.60612  0.88274  1.0000
  Hf  Hf9       1.0  0.69508  0.10417  0.37356  1.0000
  Hf  Hf10      1.0  0.69949  0.11264  0.86482  1.0000
  Hf  Hf11      1.0  0.69883  0.61658  0.35761  1.0000
  Hf  Hf12      1.0  0.70254  0.60489  0.86535  1.0000
  Hf  Hf13      1.0  0.94734  0.10537  0.38010  1.0000
  Hf  Hf14      1.0  0.94368  0.10485  0.88096  1.0000
  Hf  Hf15      1.0  0.94539  0.60635  0.37235  1.0000
  Hf  Hf16      1.0  0.94823  0.60587  0.86728  1.0000
  Hf  Hf17      1.0  0.05226  0.39095  0.13409  1.0000
  Hf  Hf18      1.0  0.05460  0.39368  0.62500  1.0000
  Hf  Hf19      1.0  0.05800  0.88955  0.12718  1.0000
  Hf  Hf20      1.0  0.05553  0.88277  0.63161  1.0000
  Hf  Hf21      1.0  0.30231  0.39412  0.12681  1.0000
  Hf  Hf22      1.0  0.30350  0.39605  0.62638  1.0000
  Hf  Hf23      1.0  0.30285  0.89132  0.12753  1.0000
  Hf  Hf24      1.0  0.30541  0.89653  0.61411  1.0000
  Hf  Hf25      1.0  0.55224  0.39557  0.12447  1.0000
  Hf  Hf26      1.0  0.55256  0.39590  0.62682  1.0000
  Hf  Hf27      1.0  0.55463  0.89562  0.13006  1.0000
  Hf  Hf28      1.0  0.55372  0.89491  0.62784  1.0000
  Hf  Hf29      1.0  0.80073  0.39262  0.12196  1.0000
  Hf  Hf30      1.0  0.80487  0.39885  0.61324  1.0000
  Hf  Hf31      1.0  0.80121  0.88472  0.13543  1.0000
  Hf  Hf32      1.0  0.80292  0.89042  0.62035  1.0000
  Hf  Hf33      1.0  0.05659  0.17552  0.43072  1.0000
  Hf  Hf34      1.0  0.05439  0.17655  0.92176  1.0000
  Hf  Hf35      1.0  0.05694  0.67771  0.42494  1.0000
  Hf  Hf36      1.0  0.05724  0.67476  0.92462  1.0000
  Hf  Hf37      1.0  0.30749  0.18499  0.40679  1.0000
  Hf  Hf38      1.0  0.30435  0.18600  0.91575  1.0000
  Hf  Hf39      1.0  0.30210  0.67936  0.41986  1.0000
  Hf  Hf40      1.0  0.30501  0.68426  0.91235  1.0000
  Hf  Hf41      1.0  0.55455  0.18136  0.42265  1.0000
  Hf  Hf42      1.0  0.55536  0.18887  0.91548  1.0000
  Hf  Hf43      1.0  0.55640  0.68063  0.41504  1.0000
  Hf  Hf44      1.0  0.55754  0.68472  0.91854  1.0000
  Hf  Hf45      1.0  0.80778  0.17883  0.40984  1.0000
  Hf  Hf46      1.0  0.80691  0.18907  0.90885  1.0000
  Hf  Hf47      1.0  0.80633  0.69324  0.41146  1.0000
  Hf  Hf48      1.0  0.81031  0.69163  0.90628  1.0000
  Hf  Hf49      1.0  0.16004  0.38593  0.34137  1.0000
  Hf  Hf50      1.0  0.15520  0.37783  0.84674  1.0000
  Hf  Hf51      1.0  0.15736  0.88149  0.34245  1.0000
  Hf  Hf52      1.0  0.15857  0.88624  0.83293  1.0000
  Hf  Hf53      1.0  0.40599  0.38702  0.33242  1.0000
  Hf  Hf54      1.0  0.40715  0.38313  0.83375  1.0000
  Hf  Hf55      1.0  0.40548  0.88596  0.34215  1.0000
  Hf  Hf56      1.0  0.40528  0.89570  0.83416  1.0000
  Hf  Hf57      1.0  0.66106  0.39000  0.33041  1.0000
  Hf  Hf58      1.0  0.65762  0.39337  0.83360  1.0000
  Hf  Hf59      1.0  0.65793  0.89085  0.33469  1.0000
  Hf  Hf60      1.0  0.66079  0.88604  0.83163  1.0000
  Hf  Hf61      1.0  0.91074  0.38349  0.33491  1.0000
  Hf  Hf62      1.0  0.90501  0.38918  0.83327  1.0000
  Hf  Hf63      1.0  0.91387  0.89619  0.32067  1.0000
  Hf  Hf64      1.0  0.90994  0.88650  0.82610  1.0000
  Hf  Hf65      1.0  0.19649  0.32785  0.08403  1.0000
  Hf  Hf66      1.0  0.19656  0.31492  0.59102  1.0000
  Hf  Hf67      1.0  0.19494  0.81953  0.08161  1.0000
  Hf  Hf68      1.0  0.19302  0.81658  0.58844  1.0000
  Hf  Hf69      1.0  0.44381  0.32085  0.08207  1.0000
  Hf  Hf70      1.0  0.44560  0.32629  0.57564  1.0000
  Hf  Hf71      1.0  0.44248  0.81583  0.08366  1.0000
  Hf  Hf72      1.0  0.44410  0.82355  0.58361  1.0000
  Hf  Hf73      1.0  0.69294  0.31474  0.08774  1.0000
  Hf  Hf74      1.0  0.69480  0.32237  0.57925  1.0000
  Hf  Hf75      1.0  0.69818  0.82168  0.07020  1.0000
  Hf  Hf76      1.0  0.69302  0.81147  0.58003  1.0000
  Hf  Hf77      1.0  0.94242  0.31199  0.08172  1.0000
  Hf  Hf78      1.0  0.94171  0.31521  0.58867  1.0000
  Hf  Hf79      1.0  0.94291  0.80714  0.08658  1.0000
  Hf  Hf80      1.0  0.94489  0.82005  0.57713  1.0000
  Hf  Hf81      1.0  0.09148  0.10720  0.17929  1.0000
  Hf  Hf82      1.0  0.09221  0.10293  0.67300  1.0000
  Hf  Hf83      1.0  0.08964  0.60457  0.17772  1.0000
  Hf  Hf84      1.0  0.09308  0.60603  0.67815  1.0000
  Hf  Hf85      1.0  0.34194  0.11382  0.16342  1.0000
  Hf  Hf86      1.0  0.33637  0.11047  0.67060  1.0000
  Hf  Hf87      1.0  0.34343  0.61722  0.15554  1.0000
  Hf  Hf88      1.0  0.34576  0.62072  0.65755  1.0000
  Hf  Hf89      1.0  0.59154  0.10789  0.17080  1.0000
  Hf  Hf90      1.0  0.59427  0.11996  0.66291  1.0000
  Hf  Hf91      1.0  0.58963  0.61157  0.17071  1.0000
  Hf  Hf92      1.0  0.58625  0.60954  0.67078  1.0000
  Hf  Hf93      1.0  0.83824  0.10749  0.16389  1.0000
  Hf  Hf94      1.0  0.84524  0.12237  0.65814  1.0000
  Hf  Hf95      1.0  0.84103  0.60751  0.16439  1.0000
  Hf  Hf96      1.0  0.84162  0.61147  0.66388  1.0000
  F   F1        1.0  0.08066  0.13200  0.31053  1.0000
  F   F2        1.0  0.08191  0.12179  0.80655  1.0000
  F   F3        1.0  0.07478  0.61601  0.31572  1.0000
  F   F4        1.0  0.08129  0.61672  0.81406  1.0000
  F   F5        1.0  0.32555  0.11720  0.31505  1.0000
  F   F6        1.0  0.33176  0.13463  0.79924  1.0000
  F   F7        1.0  0.32126  0.61277  0.32301  1.0000
  F   F8        1.0  0.32945  0.62256  0.80207  1.0000
  F   F9        1.0  0.57832  0.11732  0.30757  1.0000
  F   F10       1.0  0.57429  0.13243  0.80028  1.0000
  F   F11       1.0  0.58414  0.63457  0.29261  1.0000
  F   F12       1.0  0.58216  0.64186  0.79544  1.0000
  F   F13       1.0  0.83183  0.12524  0.29440  1.0000
  F   F14       1.0  0.82933  0.13136  0.80510  1.0000
  F   F15       1.0  0.83033  0.64007  0.28194  1.0000
  F   F16       1.0  0.83400  0.63695  0.79471  1.0000
  F   F17       1.0  0.18680  0.33650  0.45868  1.0000
  F   F18       1.0  0.18681  0.34986  0.94698  1.0000
  F   F19       1.0  0.19000  0.84515  0.44874  1.0000
  F   F20       1.0  0.17389  0.83640  0.95623  1.0000
  F   F21       1.0  0.43544  0.33027  0.45251  1.0000
  F   F22       1.0  0.43077  0.33033  0.95056  1.0000
  F   F23       1.0  0.42549  0.83262  0.46065  1.0000
  F   F24       1.0  0.43636  0.85276  0.94795  1.0000
  F   F25       1.0  0.70011  0.35051  0.42799  1.0000
  F   F26       1.0  0.68949  0.33814  0.94678  1.0000
  F   F27       1.0  0.68754  0.84576  0.44109  1.0000
  F   F28       1.0  0.68166  0.83824  0.94594  1.0000
  F   F29       1.0  0.92950  0.32693  0.45286  1.0000
  F   F30       1.0  0.93066  0.33412  0.95606  1.0000
  F   F31       1.0  0.95078  0.84436  0.42894  1.0000
  F   F32       1.0  0.94430  0.83915  0.93679  1.0000
  F   F33       1.0  0.16067  0.36934  0.21621  1.0000
  F   F34       1.0  0.16922  0.36770  0.70876  1.0000
  F   F35       1.0  0.16920  0.87359  0.20003  1.0000
  F   F36       1.0  0.17116  0.88515  0.68771  1.0000
  F   F37       1.0  0.41695  0.37811  0.19330  1.0000
  F   F38       1.0  0.42103  0.38051  0.69345  1.0000
  F   F39       1.0  0.41847  0.85499  0.20993  1.0000
  F   F40       1.0  0.42256  0.88190  0.69447  1.0000
  F   F41       1.0  0.66969  0.35948  0.20697  1.0000
  F   F42       1.0  0.66176  0.36971  0.70184  1.0000
  F   F43       1.0  0.66607  0.87473  0.19154  1.0000
  F   F44       1.0  0.67165  0.84894  0.70171  1.0000
  F   F45       1.0  0.92036  0.36805  0.19952  1.0000
  F   F46       1.0  0.92161  0.37956  0.68586  1.0000
  F   F47       1.0  0.92733  0.87073  0.19530  1.0000
  F   F48       1.0  0.91854  0.87338  0.68668  1.0000
  F   F49       1.0  0.07448  0.15734  0.05343  1.0000
  F   F50       1.0  0.05776  0.15755  0.57392  1.0000
  F   F51       1.0  0.06059  0.65192  0.06361  1.0000
  F   F52       1.0  0.06806  0.64800  0.56605  1.0000
  F   F53       1.0  0.31046  0.15372  0.06610  1.0000
  F   F54       1.0  0.31670  0.14290  0.54263  1.0000
  F   F55       1.0  0.31006  0.66696  0.04881  1.0000
  F   F56       1.0  0.31118  0.66954  0.55579  1.0000
  F   F57       1.0  0.55677  0.14551  0.06485  1.0000
  F   F58       1.0  0.56488  0.15923  0.55727  1.0000
  F   F59       1.0  0.56243  0.65354  0.06358  1.0000
  F   F60       1.0  0.55997  0.64713  0.55733  1.0000
  F   F61       1.0  0.80621  0.14893  0.06390  1.0000
  F   F62       1.0  0.80818  0.14257  0.55717  1.0000
  F   F63       1.0  0.82325  0.65614  0.04087  1.0000
  F   F64       1.0  0.81945  0.67584  0.54411  1.0000
  F   F65       1.0  0.19560  0.21324  0.22238  1.0000
  F   F66       1.0  0.20456  0.20185  0.71992  1.0000
  F   F67       1.0  0.20384  0.70605  0.21495  1.0000
  F   F68       1.0  0.19807  0.69534  0.71519  1.0000
  F   F69       1.0  0.45409  0.19680  0.20399  1.0000
  F   F70       1.0  0.44601  0.20391  0.69585  1.0000
  F   F71       1.0  0.45749  0.70189  0.20666  1.0000
  F   F72       1.0  0.45136  0.70126  0.71474  1.0000
  F   F73       1.0  0.71187  0.19979  0.21558  1.0000
  F   F74       1.0  0.70552  0.20182  0.70486  1.0000
  F   F75       1.0  0.70514  0.70123  0.21461  1.0000
  F   F76       1.0  0.70474  0.69448  0.71737  1.0000
  F   F77       1.0  0.96082  0.19239  0.21202  1.0000
  F   F78       1.0  0.95610  0.19221  0.72187  1.0000
  F   F79       1.0  0.95058  0.70047  0.21298  1.0000
  F   F80       1.0  0.95797  0.69788  0.71585  1.0000
  F   F81       1.0  0.15986  0.08378  0.03549  1.0000
  F   F82       1.0  0.14807  0.09750  0.54279  1.0000
  F   F83       1.0  0.14596  0.59650  0.02970  1.0000
  F   F84       1.0  0.15037  0.58072  0.54991  1.0000
  F   F85       1.0  0.39710  0.12053  0.02390  1.0000
  F   F86       1.0  0.39549  0.08569  0.53123  1.0000
  F   F87       1.0  0.39985  0.59899  0.03890  1.0000
  F   F88       1.0  0.40076  0.59577  0.53469  1.0000
  F   F89       1.0  0.64982  0.08030  0.04772  1.0000
  F   F90       1.0  0.64902  0.09554  0.54326  1.0000
  F   F91       1.0  0.64846  0.59147  0.05425  1.0000
  F   F92       1.0  0.64580  0.61171  0.53083  1.0000
  F   F93       1.0  0.89826  0.10425  0.03868  1.0000
  F   F94       1.0  0.90132  0.11190  0.52824  1.0000
  F   F95       1.0  0.90043  0.58589  0.02526  1.0000
  F   F96       1.0  0.89340  0.58204  0.53880  1.0000
  F   F97       1.0  0.14955  0.20373  0.10337  1.0000
  F   F98       1.0  0.15984  0.18672  0.63241  1.0000
  F   F99       1.0  0.15227  0.70261  0.12680  1.0000
  F   F100      1.0  0.14781  0.71018  0.61574  1.0000
  F   F101      1.0  0.39649  0.19981  0.13311  1.0000
  F   F102      1.0  0.39249  0.19749  0.61824  1.0000
  F   F103      1.0  0.40032  0.70264  0.12511  1.0000
  F   F104      1.0  0.40413  0.69456  0.61636  1.0000
  F   F105      1.0  0.66025  0.18817  0.14223  1.0000
  F   F106      1.0  0.65000  0.19855  0.63249  1.0000
  F   F107      1.0  0.66222  0.69746  0.12276  1.0000
  F   F108      1.0  0.65302  0.69962  0.62806  1.0000
  F   F109      1.0  0.90296  0.19262  0.13820  1.0000
  F   F110      1.0  0.90307  0.19362  0.63705  1.0000
  F   F111      1.0  0.90317  0.69458  0.11312  1.0000
  F   F112      1.0  0.90953  0.70340  0.60569  1.0000
  F   F113      1.0  0.10276  0.29320  0.39628  1.0000
  F   F114      1.0  0.09514  0.29416  0.87947  1.0000
  F   F115      1.0  0.09772  0.79891  0.37269  1.0000
  F   F116      1.0  0.10108  0.79950  0.89023  1.0000
  F   F117      1.0  0.35221  0.30019  0.37814  1.0000
  F   F118      1.0  0.35240  0.30871  0.86230  1.0000
  F   F119      1.0  0.34360  0.79557  0.38764  1.0000
  F   F120      1.0  0.35095  0.80525  0.87977  1.0000
  F   F121      1.0  0.59612  0.29697  0.36419  1.0000
  F   F122      1.0  0.59869  0.30431  0.88061  1.0000
  F   F123      1.0  0.59665  0.80305  0.39254  1.0000
  F   F124      1.0  0.60095  0.80471  0.86592  1.0000
  F   F125      1.0  0.84562  0.30460  0.36558  1.0000
  F   F126      1.0  0.84710  0.30457  0.85615  1.0000
  F   F127      1.0  0.84159  0.81142  0.36632  1.0000
  F   F128      1.0  0.85065  0.80631  0.85563  1.0000
  F   F129      1.0  0.04855  0.23368  0.17384  1.0000
  F   F130      1.0  0.07382  0.24917  0.64268  1.0000
  F   F131      1.0  0.06874  0.75193  0.13637  1.0000
  F   F132      1.0  0.05790  0.74019  0.66209  1.0000
  F   F133      1.0  0.30141  0.25193  0.15636  1.0000
  F   F134      1.0  0.30919  0.25148  0.63519  1.0000
  F   F135      1.0  0.31955  0.74136  0.14462  1.0000
  F   F136      1.0  0.31496  0.75809  0.64604  1.0000
  F   F137      1.0  0.56741  0.24437  0.13542  1.0000
  F   F138      1.0  0.56792  0.26364  0.63329  1.0000
  F   F139      1.0  0.56846  0.76614  0.12806  1.0000
  F   F140      1.0  0.56455  0.75637  0.63601  1.0000
  F   F141      1.0  0.81126  0.24447  0.14527  1.0000
  F   F142      1.0  0.81793  0.25192  0.62663  1.0000
  F   F143      1.0  0.81257  0.75583  0.12699  1.0000
  F   F144      1.0  0.80817  0.74590  0.65301  1.0000
  F   F145      1.0  0.12688  0.35759  0.10903  1.0000
  F   F146      1.0  0.12312  0.36616  0.61208  1.0000
  F   F147      1.0  0.12627  0.88457  0.10181  1.0000
  F   F148      1.0  0.12246  0.87343  0.60314  1.0000
  F   F149      1.0  0.37205  0.37061  0.11063  1.0000
  F   F150      1.0  0.38186  0.38433  0.58989  1.0000
  F   F151      1.0  0.37183  0.86923  0.10935  1.0000
  F   F152      1.0  0.37312  0.86506  0.62557  1.0000
  F   F153      1.0  0.62520  0.37701  0.10172  1.0000
  F   F154      1.0  0.62639  0.37650  0.58350  1.0000
  F   F155      1.0  0.62767  0.88483  0.08840  1.0000
  F   F156      1.0  0.62397  0.86811  0.59941  1.0000
  F   F157      1.0  0.87259  0.37726  0.09461  1.0000
  F   F158      1.0  0.86860  0.37351  0.60615  1.0000
  F   F159      1.0  0.87031  0.85036  0.13082  1.0000
  F   F160      1.0  0.87283  0.85346  0.60325  1.0000
  F   F161      1.0  0.19247  0.25814  0.35238  1.0000
  F   F162      1.0  0.17873  0.23960  0.86901  1.0000
  F   F163      1.0  0.18523  0.74779  0.37207  1.0000
  F   F164      1.0  0.19247  0.75250  0.83932  1.0000
  F   F165      1.0  0.44293  0.25598  0.34821  1.0000
  F   F166      1.0  0.43946  0.25326  0.83786  1.0000
  F   F167      1.0  0.43455  0.73653  0.37369  1.0000
  F   F168      1.0  0.43180  0.75059  0.86493  1.0000
  F   F169      1.0  0.68137  0.25340  0.36396  1.0000
  F   F170      1.0  0.68877  0.24912  0.84741  1.0000
  F   F171      1.0  0.68453  0.75541  0.35197  1.0000
  F   F172      1.0  0.69138  0.74224  0.85835  1.0000
  F   F173      1.0  0.93858  0.24943  0.35211  1.0000
  F   F174      1.0  0.92962  0.25499  0.85219  1.0000
  F   F175      1.0  0.92537  0.75239  0.37131  1.0000
  F   F176      1.0  0.93121  0.74465  0.86138  1.0000
  F   F177      1.0  0.12672  0.13283  0.40678  1.0000
  F   F178      1.0  0.12266  0.10815  0.91255  1.0000
  F   F179      1.0  0.12494  0.64589  0.37778  1.0000
  F   F180      1.0  0.12442  0.62316  0.89579  1.0000
  F   F181      1.0  0.38029  0.15467  0.36041  1.0000
  F   F182      1.0  0.37495  0.15380  0.88016  1.0000
  F   F183      1.0  0.37403  0.63557  0.38388  1.0000
  F   F184      1.0  0.37166  0.61729  0.90900  1.0000
  F   F185      1.0  0.62286  0.11981  0.40580  1.0000
  F   F186      1.0  0.62877  0.14345  0.88788  1.0000
  F   F187      1.0  0.62810  0.64239  0.37695  1.0000
  F   F188      1.0  0.62459  0.61801  0.91307  1.0000
  F   F189      1.0  0.87798  0.12200  0.38709  1.0000
  F   F190      1.0  0.87420  0.12003  0.89405  1.0000
  F   F191      1.0  0.87335  0.63159  0.38064  1.0000
  F   F192      1.0  0.87851  0.63695  0.87421  1.0000
  F   F193      1.0  0.00845  0.37015  0.07888  1.0000
  F   F194      1.0  0.00568  0.35144  0.59545  1.0000
  F   F195      1.0  0.00555  0.84986  0.08087  1.0000
  F   F196      1.0  0.01127  0.86553  0.56273  1.0000
  F   F197      1.0  0.25674  0.37600  0.06682  1.0000
  F   F198      1.0  0.25485  0.37574  0.57339  1.0000
  F   F199      1.0  0.25703  0.84572  0.09867  1.0000
  F   F200      1.0  0.26061  0.85186  0.57641  1.0000
  F   F201      1.0  0.50663  0.36684  0.07687  1.0000
  F   F202      1.0  0.51129  0.37126  0.56947  1.0000
  F   F203      1.0  0.50221  0.88294  0.07258  1.0000
  F   F204      1.0  0.50521  0.87637  0.56937  1.0000
  F   F205      1.0  0.75779  0.36835  0.06547  1.0000
  F   F206      1.0  0.75859  0.37198  0.55636  1.0000
  F   F207      1.0  0.75790  0.87034  0.06598  1.0000
  F   F208      1.0  0.75400  0.86847  0.57566  1.0000
  F   F209      1.0  0.06805  0.48141  0.18199  1.0000
  F   F210      1.0  0.06366  0.47449  0.68798  1.0000
  F   F211      1.0  0.06677  0.98416  0.19024  1.0000
  F   F212      1.0  0.07045  0.98588  0.68161  1.0000
  F   F213      1.0  0.32154  0.48996  0.17322  1.0000
  F   F214      1.0  0.32475  0.49195  0.66257  1.0000
  F   F215      1.0  0.32687  0.98283  0.17344  1.0000
  F   F216      1.0  0.31908  0.98706  0.67594  1.0000
  F   F217      1.0  0.56307  0.48963  0.17415  1.0000
  F   F218      1.0  0.56961  0.47901  0.68586  1.0000
  F   F219      1.0  0.56832  0.97958  0.19247  1.0000
  F   F220      1.0  0.56898  0.97976  0.67435  1.0000
  F   F221      1.0  0.81865  0.47745  0.17822  1.0000
  F   F222      1.0  0.81488  0.49469  0.67099  1.0000
  F   F223      1.0  0.81681  0.98161  0.18687  1.0000
  F   F224      1.0  0.82762  0.99406  0.65767  1.0000
  F   F225      1.0  0.24243  0.13726  0.43222  1.0000
  F   F226      1.0  0.24697  0.14465  0.90692  1.0000
  F   F227      1.0  0.23914  0.63408  0.43209  1.0000
  F   F228      1.0  0.24419  0.64183  0.92755  1.0000
  F   F229      1.0  0.49146  0.13330  0.43273  1.0000
  F   F230      1.0  0.49088  0.13850  0.92688  1.0000
  F   F231      1.0  0.49625  0.63375  0.42843  1.0000
  F   F232      1.0  0.49043  0.63459  0.92366  1.0000
  F   F233      1.0  0.74285  0.13519  0.42042  1.0000
  F   F234      1.0  0.74607  0.13620  0.92185  1.0000
  F   F235      1.0  0.74710  0.64309  0.41282  1.0000
  F   F236      1.0  0.74893  0.64300  0.91445  1.0000
  F   F237      1.0  0.99163  0.13178  0.43916  1.0000
  F   F238      1.0  0.98559  0.13425  0.93479  1.0000
  F   F239      1.0  0.98880  0.64146  0.41892  1.0000
  F   F240      1.0  0.99740  0.63574  0.92173  1.0000
  F   F241      1.0  0.17700  0.01852  0.33160  1.0000
  F   F242      1.0  0.18402  0.01279  0.82203  1.0000
  F   F243      1.0  0.18430  0.52450  0.31854  1.0000
  F   F244      1.0  0.18044  0.51532  0.82089  1.0000
  F   F245      1.0  0.42861  0.02010  0.31877  1.0000
  F   F246      1.0  0.42614  0.01718  0.82732  1.0000
  F   F247      1.0  0.42863  0.50928  0.33657  1.0000
  F   F248      1.0  0.42754  0.51266  0.83229  1.0000
  F   F249      1.0  0.68313  0.02503  0.31265  1.0000
  F   F250      1.0  0.67772  0.02210  0.81780  1.0000
  F   F251      1.0  0.68571  0.51445  0.30864  1.0000
  F   F252      1.0  0.68511  0.51212  0.81930  1.0000
  F   F253      1.0  0.93439  0.01860  0.31756  1.0000
  F   F254      1.0  0.93482  0.00219  0.82972  1.0000
  F   F255      1.0  0.92846  0.50547  0.34125  1.0000
  F   F256      1.0  0.93018  0.51239  0.81657  1.0000
  F   F257      1.0  0.00362  0.25298  0.99711  1.0000
  F   F258      1.0  0.00490  0.24965  0.51032  1.0000
  F   F259      1.0  0.99931  0.72750  0.00991  1.0000
  F   F260      1.0  0.00251  0.73615  0.51008  1.0000
  F   F261      1.0  0.24481  0.24079  0.01037  1.0000
  F   F262      1.0  0.25552  0.26190  0.49573  1.0000
  F   F263      1.0  0.24730  0.76883  0.98095  1.0000
  F   F264      1.0  0.24560  0.74501  0.51342  1.0000
  F   F265      1.0  0.50151  0.27214  0.97382  1.0000
  F   F266      1.0  0.50812  0.26661  0.50060  1.0000
  F   F267      1.0  0.49916  0.74561  0.00086  1.0000
  F   F268      1.0  0.49746  0.75531  0.50006  1.0000
  F   F269      1.0  0.75294  0.26607  0.99609  1.0000
  F   F270      1.0  0.75209  0.25526  0.49955  1.0000
  F   F271      1.0  0.75321  0.75707  0.98659  1.0000
  F   F272      1.0  0.75011  0.74671  0.50412  1.0000
  F   F273      1.0  0.13063  0.00257  0.24931  1.0000
  F   F274      1.0  0.12327  0.99727  0.76057  1.0000
  F   F275      1.0  0.12732  0.51188  0.25079  1.0000
  F   F276      1.0  0.12642  0.48782  0.74978  1.0000
  F   F277      1.0  0.38166  0.00616  0.24218  1.0000
  F   F278      1.0  0.38025  0.01591  0.74595  1.0000
  F   F279      1.0  0.38086  0.51349  0.24696  1.0000
  F   F280      1.0  0.37547  0.49999  0.74660  1.0000
  F   F281      1.0  0.62274  0.99657  0.26031  1.0000
  F   F282      1.0  0.62790  0.99704  0.74534  1.0000
  F   F283      1.0  0.62257  0.49929  0.24664  1.0000
  F   F284      1.0  0.62734  0.50709  0.75173  1.0000
  F   F285      1.0  0.88144  0.00694  0.23317  1.0000
  F   F286      1.0  0.88527  0.00748  0.73561  1.0000
  F   F287      1.0  0.87661  0.50179  0.24539  1.0000
  F   F288      1.0  0.87391  0.49298  0.74967  1.0000
  F   F289      1.0  0.03320  0.02991  0.04264  1.0000
  F   F290      1.0  0.04429  0.02634  0.53038  1.0000
  F   F291      1.0  0.04427  0.52962  0.02698  1.0000
  F   F292      1.0  0.04304  0.53071  0.52398  1.0000
  F   F293      1.0  0.29024  0.03047  0.02626  1.0000
  F   F294      1.0  0.28591  0.02709  0.52357  1.0000
  F   F295      1.0  0.29016  0.53099  0.02963  1.0000
  F   F296      1.0  0.29027  0.54148  0.53150  1.0000
  F   F297      1.0  0.54596  0.02744  0.01737  1.0000
  F   F298      1.0  0.53494  0.03409  0.54334  1.0000
  F   F299      1.0  0.54212  0.53182  0.01582  1.0000
  F   F300      1.0  0.55283  0.52929  0.51395  1.0000
  F   F301      1.0  0.79957  0.02264  0.02565  1.0000
  F   F302      1.0  0.80052  0.02804  0.50233  1.0000
  F   F303      1.0  0.79500  0.53607  0.01828  1.0000
  F   F304      1.0  0.79594  0.54123  0.51906  1.0000
  F   F305      1.0  0.23269  0.41783  0.22927  1.0000
  F   F306      1.0  0.23698  0.40120  0.73057  1.0000
  F   F307      1.0  0.23332  0.91552  0.23560  1.0000
  F   F308      1.0  0.23650  0.91318  0.72988  1.0000
  F   F309      1.0  0.48016  0.42058  0.21405  1.0000
  F   F310      1.0  0.48399  0.42276  0.72617  1.0000
  F   F311      1.0  0.48223  0.90384  0.23603  1.0000
  F   F312      1.0  0.48246  0.90056  0.74611  1.0000
  F   F313      1.0  0.73144  0.41331  0.21004  1.0000
  F   F314      1.0  0.72897  0.42293  0.71050  1.0000
  F   F315      1.0  0.73276  0.91651  0.22587  1.0000
  F   F316      1.0  0.73473  0.91990  0.72501  1.0000
  F   F317      1.0  0.98389  0.41509  0.24485  1.0000
  F   F318      1.0  0.98208  0.40648  0.73601  1.0000
  F   F319      1.0  0.98811  0.91554  0.21693  1.0000
  F   F320      1.0  0.98912  0.90856  0.71759  1.0000
  F   F321      1.0  0.20649  0.46628  0.48335  1.0000
  F   F322      1.0  0.21118  0.48357  0.97646  1.0000
  F   F323      1.0  0.20321  0.97791  0.48753  1.0000
  F   F324      1.0  0.21761  0.96115  0.96993  1.0000
  F   F325      1.0  0.46409  0.47185  0.46540  1.0000
  F   F326      1.0  0.45189  0.46496  0.98591  1.0000
  F   F327      1.0  0.45525  0.96986  0.47042  1.0000
  F   F328      1.0  0.44487  0.97826  0.98337  1.0000
  F   F329      1.0  0.69881  0.48191  0.46603  1.0000
  F   F330      1.0  0.70139  0.46932  0.98677  1.0000
  F   F331      1.0  0.70010  0.96435  0.47736  1.0000
  F   F332      1.0  0.70665  0.97041  0.96937  1.0000
  F   F333      1.0  0.95933  0.45299  0.48187  1.0000
  F   F334      1.0  0.95919  0.46160  0.96518  1.0000
  F   F335      1.0  0.94681  0.97394  0.48419  1.0000
  F   F336      1.0  0.94920  0.96159  0.99087  1.0000
  F   F337      1.0  0.01893  0.06771  0.30151  1.0000
  F   F338      1.0  0.01543  0.06822  0.80158  1.0000
  F   F339      1.0  0.01180  0.58507  0.27453  1.0000
  F   F340      1.0  0.01924  0.57201  0.77842  1.0000
  F   F341      1.0  0.26454  0.08749  0.27146  1.0000
  F   F342      1.0  0.26637  0.08067  0.76313  1.0000
  F   F343      1.0  0.26276  0.58639  0.27497  1.0000
  F   F344      1.0  0.26780  0.57852  0.77242  1.0000
  F   F345      1.0  0.51444  0.07995  0.27481  1.0000
  F   F346      1.0  0.51021  0.09620  0.76815  1.0000
  F   F347      1.0  0.51648  0.57934  0.27634  1.0000
  F   F348      1.0  0.51698  0.57801  0.77156  1.0000
  F   F349      1.0  0.76206  0.07869  0.27563  1.0000
  F   F350      1.0  0.76790  0.09089  0.76688  1.0000
  F   F351      1.0  0.76736  0.58814  0.25330  1.0000
  F   F352      1.0  0.76778  0.56012  0.79091  1.0000
  F   F353      1.0  0.10035  0.41565  0.45991  1.0000
  F   F354      1.0  0.09985  0.39946  0.96998  1.0000
  F   F355      1.0  0.09984  0.89202  0.47057  1.0000
  F   F356      1.0  0.09556  0.91881  0.96958  1.0000
  F   F357      1.0  0.35177  0.41409  0.46087  1.0000
  F   F358      1.0  0.34507  0.41027  0.97236  1.0000
  F   F359      1.0  0.34545  0.91523  0.46002  1.0000
  F   F360      1.0  0.34667  0.92004  0.96506  1.0000
  F   F361      1.0  0.60301  0.39799  0.44446  1.0000
  F   F362      1.0  0.60025  0.40674  0.96345  1.0000
  F   F363      1.0  0.59992  0.92259  0.45793  1.0000
  F   F364      1.0  0.60023  0.90215  0.94173  1.0000
  F   F365      1.0  0.84625  0.40017  0.45845  1.0000
  F   F366      1.0  0.84664  0.39444  0.96078  1.0000
  F   F367      1.0  0.85390  0.88501  0.46159  1.0000
  F   F368      1.0  0.85821  0.89283  0.95897  1.0000
  F   F369      1.0  0.04951  0.29461  0.29351  1.0000
  F   F370      1.0  0.04040  0.29348  0.79605  1.0000
  F   F371      1.0  0.04921  0.78893  0.29051  1.0000
  F   F372      1.0  0.05925  0.79575  0.78456  1.0000
  F   F373      1.0  0.29942  0.30468  0.28205  1.0000
  F   F374      1.0  0.30081  0.30883  0.78258  1.0000
  F   F375      1.0  0.29297  0.79607  0.29259  1.0000
  F   F376      1.0  0.29706  0.80283  0.78637  1.0000
  F   F377      1.0  0.54407  0.30042  0.27822  1.0000
  F   F378      1.0  0.54642  0.29949  0.78742  1.0000
  F   F379      1.0  0.54306  0.79872  0.28852  1.0000
  F   F380      1.0  0.54851  0.79300  0.78544  1.0000
  F   F381      1.0  0.79121  0.29940  0.29554  1.0000
  F   F382      1.0  0.78851  0.30065  0.78149  1.0000
  F   F383      1.0  0.79000  0.80470  0.29302  1.0000
  F   F384      1.0  0.79718  0.81838  0.77959  1.0000
