data_image0
_chemical_formula_structural       Hf96F384
_chemical_formula_sum              "Hf96 F384"
_cell_length_a       31.0377
_cell_length_b       15.5249
_cell_length_c       15.5094
_cell_angle_alpha    63.342
_cell_angle_beta     63.342
_cell_angle_gamma    80.1625

_space_group_name_H-M_alt    "P 1"
_space_group_IT_number       1

loop_
  _space_group_symop_operation_xyz
  'x, y, z'

loop_
  _atom_site_type_symbol
  _atom_site_label
  _atom_site_symmetry_multiplicity
  _atom_site_fract_x
  _atom_site_fract_y
  _atom_site_fract_z
  _atom_site_occupancy
  Hf  Hf1       1.0  0.19603  0.09584  0.37886  1.0000
  Hf  Hf2       1.0  0.19685  0.10453  0.87540  1.0000
  Hf  Hf3       1.0  0.19256  0.61108  0.37588  1.0000
  Hf  Hf4       1.0  0.19567  0.60139  0.87102  1.0000
  Hf  Hf5       1.0  0.44718  0.10690  0.37406  1.0000
  Hf  Hf6       1.0  0.44734  0.10991  0.87012  1.0000
  Hf  Hf7       1.0  0.44440  0.61191  0.37776  1.0000
  Hf  Hf8       1.0  0.44465  0.61370  0.87233  1.0000
  Hf  Hf9       1.0  0.69739  0.10687  0.38319  1.0000
  Hf  Hf10      1.0  0.69521  0.10298  0.87760  1.0000
  Hf  Hf11      1.0  0.69566  0.61191  0.36905  1.0000
  Hf  Hf12      1.0  0.69589  0.61605  0.86559  1.0000
  Hf  Hf13      1.0  0.94690  0.11098  0.37187  1.0000
  Hf  Hf14      1.0  0.94675  0.10159  0.87106  1.0000
  Hf  Hf15      1.0  0.94652  0.60409  0.37889  1.0000
  Hf  Hf16      1.0  0.94360  0.60081  0.88637  1.0000
  Hf  Hf17      1.0  0.05476  0.39589  0.12293  1.0000
  Hf  Hf18      1.0  0.05457  0.39264  0.62269  1.0000
  Hf  Hf19      1.0  0.05604  0.89386  0.11384  1.0000
  Hf  Hf20      1.0  0.05244  0.89545  0.62432  1.0000
  Hf  Hf21      1.0  0.30382  0.39655  0.13323  1.0000
  Hf  Hf22      1.0  0.30682  0.38781  0.62725  1.0000
  Hf  Hf23      1.0  0.30450  0.89672  0.13390  1.0000
  Hf  Hf24      1.0  0.30436  0.88828  0.62465  1.0000
  Hf  Hf25      1.0  0.55262  0.38636  0.13371  1.0000
  Hf  Hf26      1.0  0.55230  0.39359  0.62034  1.0000
  Hf  Hf27      1.0  0.55454  0.90100  0.11524  1.0000
  Hf  Hf28      1.0  0.55074  0.88995  0.63258  1.0000
  Hf  Hf29      1.0  0.80396  0.39794  0.11893  1.0000
  Hf  Hf30      1.0  0.80597  0.39242  0.62407  1.0000
  Hf  Hf31      1.0  0.80527  0.89341  0.12748  1.0000
  Hf  Hf32      1.0  0.80657  0.89387  0.61783  1.0000
  Hf  Hf33      1.0  0.05966  0.18186  0.40318  1.0000
  Hf  Hf34      1.0  0.05507  0.17545  0.91640  1.0000
  Hf  Hf35      1.0  0.05526  0.68127  0.41692  1.0000
  Hf  Hf36      1.0  0.05633  0.67665  0.91760  1.0000
  Hf  Hf37      1.0  0.30459  0.17386  0.42595  1.0000
  Hf  Hf38      1.0  0.30718  0.17918  0.91557  1.0000
  Hf  Hf39      1.0  0.30517  0.67065  0.42397  1.0000
  Hf  Hf40      1.0  0.30249  0.67357  0.92541  1.0000
  Hf  Hf41      1.0  0.55883  0.17837  0.41301  1.0000
  Hf  Hf42      1.0  0.55833  0.19572  0.90473  1.0000
  Hf  Hf43      1.0  0.55428  0.68340  0.41815  1.0000
  Hf  Hf44      1.0  0.55396  0.67662  0.91917  1.0000
  Hf  Hf45      1.0  0.80522  0.18144  0.42436  1.0000
  Hf  Hf46      1.0  0.80417  0.18596  0.91880  1.0000
  Hf  Hf47      1.0  0.80330  0.68496  0.42128  1.0000
  Hf  Hf48      1.0  0.80510  0.68467  0.91587  1.0000
  Hf  Hf49      1.0  0.15940  0.38516  0.33052  1.0000
  Hf  Hf50      1.0  0.15801  0.38134  0.83863  1.0000
  Hf  Hf51      1.0  0.15889  0.89511  0.32416  1.0000
  Hf  Hf52      1.0  0.15932  0.88353  0.82987  1.0000
  Hf  Hf53      1.0  0.40728  0.39508  0.32924  1.0000
  Hf  Hf54      1.0  0.40852  0.39145  0.82896  1.0000
  Hf  Hf55      1.0  0.40600  0.88252  0.34441  1.0000
  Hf  Hf56      1.0  0.40404  0.89139  0.83894  1.0000
  Hf  Hf57      1.0  0.65828  0.39000  0.33085  1.0000
  Hf  Hf58      1.0  0.66215  0.39730  0.82491  1.0000
  Hf  Hf59      1.0  0.65511  0.88133  0.34437  1.0000
  Hf  Hf60      1.0  0.65496  0.89193  0.83548  1.0000
  Hf  Hf61      1.0  0.91060  0.39228  0.33254  1.0000
  Hf  Hf62      1.0  0.91126  0.38449  0.83529  1.0000
  Hf  Hf63      1.0  0.91357  0.89040  0.32727  1.0000
  Hf  Hf64      1.0  0.90645  0.88271  0.84188  1.0000
  Hf  Hf65      1.0  0.19518  0.30617  0.09053  1.0000
  Hf  Hf66      1.0  0.19615  0.31352  0.58298  1.0000
  Hf  Hf67      1.0  0.19659  0.82553  0.07660  1.0000
  Hf  Hf68      1.0  0.18851  0.80645  0.59022  1.0000
  Hf  Hf69      1.0  0.44515  0.32905  0.07905  1.0000
  Hf  Hf70      1.0  0.44397  0.31811  0.57691  1.0000
  Hf  Hf71      1.0  0.44152  0.82510  0.08734  1.0000
  Hf  Hf72      1.0  0.44350  0.81438  0.58755  1.0000
  Hf  Hf73      1.0  0.69615  0.32461  0.07895  1.0000
  Hf  Hf74      1.0  0.69362  0.32172  0.58126  1.0000
  Hf  Hf75      1.0  0.69387  0.82379  0.08301  1.0000
  Hf  Hf76      1.0  0.69178  0.81691  0.59011  1.0000
  Hf  Hf77      1.0  0.94148  0.31618  0.08711  1.0000
  Hf  Hf78      1.0  0.94488  0.31619  0.58297  1.0000
  Hf  Hf79      1.0  0.94570  0.81506  0.08486  1.0000
  Hf  Hf80      1.0  0.94145  0.81916  0.58614  1.0000
  Hf  Hf81      1.0  0.08994  0.11562  0.15744  1.0000
  Hf  Hf82      1.0  0.09065  0.10983  0.65226  1.0000
  Hf  Hf83      1.0  0.08838  0.60639  0.17043  1.0000
  Hf  Hf84      1.0  0.08925  0.60136  0.67356  1.0000
  Hf  Hf85      1.0  0.34589  0.12316  0.16001  1.0000
  Hf  Hf86      1.0  0.34247  0.11021  0.65978  1.0000
  Hf  Hf87      1.0  0.34285  0.62260  0.15668  1.0000
  Hf  Hf88      1.0  0.33941  0.60723  0.67525  1.0000
  Hf  Hf89      1.0  0.59145  0.10510  0.16745  1.0000
  Hf  Hf90      1.0  0.59193  0.11422  0.66442  1.0000
  Hf  Hf91      1.0  0.59253  0.62092  0.16818  1.0000
  Hf  Hf92      1.0  0.59204  0.60809  0.66557  1.0000
  Hf  Hf93      1.0  0.84111  0.11209  0.16920  1.0000
  Hf  Hf94      1.0  0.84025  0.11596  0.66146  1.0000
  Hf  Hf95      1.0  0.83876  0.60885  0.18101  1.0000
  Hf  Hf96      1.0  0.83926  0.61471  0.66594  1.0000
  F   F1        1.0  0.08341  0.14082  0.28499  1.0000
  F   F2        1.0  0.07802  0.12179  0.80152  1.0000
  F   F3        1.0  0.07464  0.62700  0.30544  1.0000
  F   F4        1.0  0.07473  0.61990  0.81458  1.0000
  F   F5        1.0  0.32813  0.13936  0.29763  1.0000
  F   F6        1.0  0.32426  0.13036  0.79913  1.0000
  F   F7        1.0  0.33472  0.61986  0.30515  1.0000
  F   F8        1.0  0.32570  0.59804  0.82188  1.0000
  F   F9        1.0  0.58393  0.11570  0.31038  1.0000
  F   F10       1.0  0.58227  0.14173  0.79197  1.0000
  F   F11       1.0  0.58440  0.62841  0.30100  1.0000
  F   F12       1.0  0.58843  0.62703  0.80279  1.0000
  F   F13       1.0  0.82833  0.12345  0.31232  1.0000
  F   F14       1.0  0.83186  0.13274  0.80992  1.0000
  F   F15       1.0  0.82724  0.63665  0.30998  1.0000
  F   F16       1.0  0.83135  0.63092  0.79476  1.0000
  F   F17       1.0  0.18804  0.33762  0.45307  1.0000
  F   F18       1.0  0.18316  0.33860  0.95423  1.0000
  F   F19       1.0  0.18301  0.83815  0.45245  1.0000
  F   F20       1.0  0.18660  0.84300  0.94154  1.0000
  F   F21       1.0  0.43199  0.35665  0.44047  1.0000
  F   F22       1.0  0.44485  0.35802  0.91472  1.0000
  F   F23       1.0  0.43079  0.82685  0.46210  1.0000
  F   F24       1.0  0.43408  0.85520  0.94874  1.0000
  F   F25       1.0  0.68611  0.34593  0.43784  1.0000
  F   F26       1.0  0.68705  0.33669  0.94546  1.0000
  F   F27       1.0  0.68623  0.84178  0.45025  1.0000
  F   F28       1.0  0.68261  0.84516  0.94154  1.0000
  F   F29       1.0  0.92496  0.31663  0.46533  1.0000
  F   F30       1.0  0.94462  0.34756  0.93735  1.0000
  F   F31       1.0  0.94305  0.83896  0.43717  1.0000
  F   F32       1.0  0.92883  0.83425  0.96228  1.0000
  F   F33       1.0  0.17591  0.37439  0.18871  1.0000
  F   F34       1.0  0.17970  0.38799  0.67912  1.0000
  F   F35       1.0  0.17067  0.87897  0.19452  1.0000
  F   F36       1.0  0.17275  0.86085  0.70262  1.0000
  F   F37       1.0  0.41977  0.36472  0.19732  1.0000
  F   F38       1.0  0.42167  0.36373  0.69628  1.0000
  F   F39       1.0  0.42315  0.88235  0.20002  1.0000
  F   F40       1.0  0.41799  0.85243  0.71241  1.0000
  F   F41       1.0  0.67809  0.38166  0.18079  1.0000
  F   F42       1.0  0.67614  0.38409  0.68894  1.0000
  F   F43       1.0  0.66802  0.86952  0.19830  1.0000
  F   F44       1.0  0.67115  0.87468  0.69909  1.0000
  F   F45       1.0  0.91754  0.37200  0.19934  1.0000
  F   F46       1.0  0.92105  0.37685  0.69562  1.0000
  F   F47       1.0  0.92551  0.87742  0.18819  1.0000
  F   F48       1.0  0.91099  0.84792  0.71917  1.0000
  F   F49       1.0  0.06056  0.16287  0.05229  1.0000
  F   F50       1.0  0.06377  0.16687  0.54353  1.0000
  F   F51       1.0  0.06221  0.65171  0.05938  1.0000
  F   F52       1.0  0.06579  0.66242  0.55641  1.0000
  F   F53       1.0  0.31651  0.16428  0.05169  1.0000
  F   F54       1.0  0.31233  0.13739  0.56073  1.0000
  F   F55       1.0  0.31237  0.66674  0.05472  1.0000
  F   F56       1.0  0.31444  0.65575  0.56063  1.0000
  F   F57       1.0  0.57099  0.17372  0.04246  1.0000
  F   F58       1.0  0.56854  0.17059  0.54309  1.0000
  F   F59       1.0  0.55533  0.65898  0.06879  1.0000
  F   F60       1.0  0.56849  0.66237  0.55246  1.0000
  F   F61       1.0  0.81798  0.15884  0.05085  1.0000
  F   F62       1.0  0.80240  0.14906  0.57449  1.0000
  F   F63       1.0  0.80883  0.66095  0.05808  1.0000
  F   F64       1.0  0.81593  0.67195  0.54916  1.0000
  F   F65       1.0  0.21637  0.19638  0.20052  1.0000
  F   F66       1.0  0.20426  0.20236  0.72085  1.0000
  F   F67       1.0  0.20037  0.70725  0.21366  1.0000
  F   F68       1.0  0.19924  0.69336  0.71086  1.0000
  F   F69       1.0  0.44610  0.20101  0.22034  1.0000
  F   F70       1.0  0.45794  0.19994  0.71129  1.0000
  F   F71       1.0  0.43308  0.70309  0.22772  1.0000
  F   F72       1.0  0.46039  0.71506  0.70996  1.0000
  F   F73       1.0  0.70207  0.21389  0.19561  1.0000
  F   F74       1.0  0.70592  0.19355  0.70939  1.0000
  F   F75       1.0  0.70400  0.69413  0.20854  1.0000
  F   F76       1.0  0.70287  0.70034  0.72076  1.0000
  F   F77       1.0  0.95567  0.19647  0.20187  1.0000
  F   F78       1.0  0.95108  0.20091  0.71229  1.0000
  F   F79       1.0  0.95453  0.69664  0.20973  1.0000
  F   F80       1.0  0.95139  0.70104  0.70477  1.0000
  F   F81       1.0  0.15020  0.09413  0.04257  1.0000
  F   F82       1.0  0.14968  0.07767  0.53927  1.0000
  F   F83       1.0  0.14988  0.60174  0.03635  1.0000
  F   F84       1.0  0.14401  0.58745  0.54343  1.0000
  F   F85       1.0  0.40162  0.09214  0.04466  1.0000
  F   F86       1.0  0.40227  0.10663  0.54145  1.0000
  F   F87       1.0  0.39305  0.57751  0.04354  1.0000
  F   F88       1.0  0.39820  0.59619  0.53715  1.0000
  F   F89       1.0  0.65546  0.06601  0.04205  1.0000
  F   F90       1.0  0.65143  0.08871  0.54135  1.0000
  F   F91       1.0  0.64744  0.61977  0.03643  1.0000
  F   F92       1.0  0.65604  0.61027  0.53217  1.0000
  F   F93       1.0  0.89869  0.07598  0.03946  1.0000
  F   F94       1.0  0.89939  0.10955  0.52818  1.0000
  F   F95       1.0  0.89774  0.59120  0.04616  1.0000
  F   F96       1.0  0.90243  0.59719  0.53480  1.0000
  F   F97       1.0  0.15191  0.19472  0.12300  1.0000
  F   F98       1.0  0.15029  0.18365  0.61980  1.0000
  F   F99       1.0  0.15165  0.69305  0.13491  1.0000
  F   F100      1.0  0.14314  0.68888  0.63143  1.0000
  F   F101      1.0  0.40265  0.21247  0.11850  1.0000
  F   F102      1.0  0.39994  0.19780  0.63377  1.0000
  F   F103      1.0  0.39839  0.70471  0.10315  1.0000
  F   F104      1.0  0.40514  0.69290  0.64365  1.0000
  F   F105      1.0  0.65238  0.17579  0.12008  1.0000
  F   F106      1.0  0.65571  0.19495  0.61364  1.0000
  F   F107      1.0  0.65200  0.69696  0.13210  1.0000
  F   F108      1.0  0.65218  0.70812  0.63176  1.0000
  F   F109      1.0  0.90146  0.20226  0.11739  1.0000
  F   F110      1.0  0.89832  0.18762  0.63866  1.0000
  F   F111      1.0  0.89890  0.68933  0.14284  1.0000
  F   F112      1.0  0.90027  0.70968  0.61701  1.0000
  F   F113      1.0  0.10407  0.30178  0.35832  1.0000
  F   F114      1.0  0.10388  0.30377  0.86000  1.0000
  F   F115      1.0  0.10162  0.79820  0.37119  1.0000
  F   F116      1.0  0.10142  0.78517  0.87904  1.0000
  F   F117      1.0  0.35152  0.29794  0.38307  1.0000
  F   F118      1.0  0.34438  0.30255  0.87439  1.0000
  F   F119      1.0  0.34948  0.79974  0.38015  1.0000
  F   F120      1.0  0.34410  0.81931  0.88110  1.0000
  F   F121      1.0  0.60453  0.30089  0.36570  1.0000
  F   F122      1.0  0.60511  0.30904  0.86604  1.0000
  F   F123      1.0  0.59973  0.79347  0.38243  1.0000
  F   F124      1.0  0.59156  0.81105  0.89211  1.0000
  F   F125      1.0  0.84347  0.29995  0.40005  1.0000
  F   F126      1.0  0.84841  0.30315  0.87075  1.0000
  F   F127      1.0  0.85844  0.80208  0.35201  1.0000
  F   F128      1.0  0.84265  0.80850  0.89773  1.0000
  F   F129      1.0  0.06700  0.25191  0.14150  1.0000
  F   F130      1.0  0.06658  0.24419  0.63463  1.0000
  F   F131      1.0  0.06512  0.74361  0.14322  1.0000
  F   F132      1.0  0.05703  0.75689  0.66014  1.0000
  F   F133      1.0  0.31268  0.24898  0.15113  1.0000
  F   F134      1.0  0.31826  0.25433  0.62256  1.0000
  F   F135      1.0  0.30943  0.75102  0.15529  1.0000
  F   F136      1.0  0.31780  0.73894  0.65599  1.0000
  F   F137      1.0  0.56606  0.24427  0.14607  1.0000
  F   F138      1.0  0.56403  0.25449  0.64392  1.0000
  F   F139      1.0  0.56608  0.75804  0.12911  1.0000
  F   F140      1.0  0.56388  0.75259  0.64599  1.0000
  F   F141      1.0  0.80827  0.25884  0.14248  1.0000
  F   F142      1.0  0.82034  0.25547  0.62816  1.0000
  F   F143      1.0  0.82037  0.75484  0.12721  1.0000
  F   F144      1.0  0.80861  0.75366  0.65248  1.0000
  F   F145      1.0  0.11987  0.35517  0.12525  1.0000
  F   F146      1.0  0.12605  0.35529  0.61200  1.0000
  F   F147      1.0  0.12895  0.88949  0.08760  1.0000
  F   F148      1.0  0.11897  0.85538  0.63093  1.0000
  F   F149      1.0  0.38121  0.38175  0.08674  1.0000
  F   F150      1.0  0.37901  0.38305  0.59338  1.0000
  F   F151      1.0  0.37313  0.88062  0.11302  1.0000
  F   F152      1.0  0.37179  0.85963  0.60932  1.0000
  F   F153      1.0  0.62532  0.34490  0.12414  1.0000
  F   F154      1.0  0.62354  0.36807  0.60394  1.0000
  F   F155      1.0  0.62510  0.87529  0.10240  1.0000
  F   F156      1.0  0.62538  0.87607  0.60533  1.0000
  F   F157      1.0  0.87481  0.36700  0.11203  1.0000
  F   F158      1.0  0.87411  0.36110  0.61900  1.0000
  F   F159      1.0  0.87377  0.87744  0.11295  1.0000
  F   F160      1.0  0.87915  0.89135  0.57713  1.0000
  F   F161      1.0  0.18863  0.24639  0.35010  1.0000
  F   F162      1.0  0.18347  0.24672  0.86557  1.0000
  F   F163      1.0  0.18117  0.74928  0.35901  1.0000
  F   F164      1.0  0.18213  0.73669  0.87118  1.0000
  F   F165      1.0  0.43821  0.24990  0.35791  1.0000
  F   F166      1.0  0.42722  0.24813  0.86444  1.0000
  F   F167      1.0  0.43873  0.75045  0.35290  1.0000
  F   F168      1.0  0.43591  0.75876  0.86467  1.0000
  F   F169      1.0  0.69712  0.25426  0.34280  1.0000
  F   F170      1.0  0.68935  0.24462  0.85505  1.0000
  F   F171      1.0  0.69336  0.75441  0.34292  1.0000
  F   F172      1.0  0.67987  0.75408  0.85962  1.0000
  F   F173      1.0  0.93022  0.25114  0.35287  1.0000
  F   F174      1.0  0.93688  0.24677  0.84928  1.0000
  F   F175      1.0  0.93697  0.74534  0.35377  1.0000
  F   F176      1.0  0.93453  0.74509  0.85883  1.0000
  F   F177      1.0  0.12945  0.13199  0.38545  1.0000
  F   F178      1.0  0.12806  0.12279  0.89295  1.0000
  F   F179      1.0  0.12806  0.63566  0.37135  1.0000
  F   F180      1.0  0.12501  0.61721  0.89495  1.0000
  F   F181      1.0  0.37629  0.11070  0.39853  1.0000
  F   F182      1.0  0.37367  0.12788  0.90065  1.0000
  F   F183      1.0  0.37299  0.61888  0.40007  1.0000
  F   F184      1.0  0.37535  0.66311  0.87252  1.0000
  F   F185      1.0  0.62912  0.13532  0.39682  1.0000
  F   F186      1.0  0.62377  0.13898  0.88078  1.0000
  F   F187      1.0  0.62669  0.62057  0.40786  1.0000
  F   F188      1.0  0.62499  0.61781  0.90528  1.0000
  F   F189      1.0  0.87125  0.12955  0.40089  1.0000
  F   F190      1.0  0.87461  0.12852  0.90103  1.0000
  F   F191      1.0  0.87565  0.62703  0.39084  1.0000
  F   F192      1.0  0.87612  0.64739  0.87604  1.0000
  F   F193      1.0  0.00353  0.35072  0.08954  1.0000
  F   F194      1.0  0.01185  0.36547  0.56546  1.0000
  F   F195      1.0  0.01320  0.85585  0.07358  1.0000
  F   F196      1.0  0.00072  0.86795  0.57530  1.0000
  F   F197      1.0  0.25931  0.36320  0.07098  1.0000
  F   F198      1.0  0.26303  0.37165  0.56197  1.0000
  F   F199      1.0  0.26053  0.86121  0.06659  1.0000
  F   F200      1.0  0.25520  0.85314  0.58084  1.0000
  F   F201      1.0  0.50302  0.36450  0.09153  1.0000
  F   F202      1.0  0.50564  0.36005  0.56859  1.0000
  F   F203      1.0  0.50539  0.86675  0.07138  1.0000
  F   F204      1.0  0.50675  0.86779  0.57425  1.0000
  F   F205      1.0  0.76336  0.38516  0.04516  1.0000
  F   F206      1.0  0.76041  0.36694  0.56549  1.0000
  F   F207      1.0  0.76243  0.85144  0.07180  1.0000
  F   F208      1.0  0.75470  0.85228  0.58850  1.0000
  F   F209      1.0  0.06561  0.47295  0.19248  1.0000
  F   F210      1.0  0.06708  0.47388  0.68405  1.0000
  F   F211      1.0  0.06729  0.98711  0.16835  1.0000
  F   F212      1.0  0.07386  0.98531  0.66143  1.0000
  F   F213      1.0  0.31592  0.48139  0.19382  1.0000
  F   F214      1.0  0.32053  0.48064  0.69113  1.0000
  F   F215      1.0  0.32223  0.99213  0.17840  1.0000
  F   F216      1.0  0.31515  0.97780  0.68901  1.0000
  F   F217      1.0  0.56625  0.48823  0.16117  1.0000
  F   F218      1.0  0.57021  0.49229  0.66724  1.0000
  F   F219      1.0  0.57085  0.98131  0.17374  1.0000
  F   F220      1.0  0.57261  0.98474  0.66911  1.0000
  F   F221      1.0  0.81730  0.48630  0.17874  1.0000
  F   F222      1.0  0.82989  0.49520  0.65598  1.0000
  F   F223      1.0  0.81535  0.98679  0.19457  1.0000
  F   F224      1.0  0.81819  0.98014  0.68586  1.0000
  F   F225      1.0  0.24406  0.13595  0.43081  1.0000
  F   F226      1.0  0.24142  0.13266  0.93316  1.0000
  F   F227      1.0  0.24361  0.62969  0.42501  1.0000
  F   F228      1.0  0.24323  0.63257  0.91825  1.0000
  F   F229      1.0  0.49519  0.13556  0.43043  1.0000
  F   F230      1.0  0.49431  0.13418  0.92013  1.0000
  F   F231      1.0  0.49236  0.64302  0.41992  1.0000
  F   F232      1.0  0.48848  0.63592  0.93526  1.0000
  F   F233      1.0  0.74043  0.12844  0.45940  1.0000
  F   F234      1.0  0.74059  0.14976  0.93260  1.0000
  F   F235      1.0  0.74325  0.62402  0.43612  1.0000
  F   F236      1.0  0.74848  0.64583  0.90878  1.0000
  F   F237      1.0  0.99132  0.13144  0.42691  1.0000
  F   F238      1.0  0.99017  0.13538  0.92291  1.0000
  F   F239      1.0  0.99171  0.63661  0.43222  1.0000
  F   F240      1.0  0.98744  0.62696  0.93156  1.0000
  F   F241      1.0  0.18508  0.00947  0.31383  1.0000
  F   F242      1.0  0.18704  0.01794  0.81335  1.0000
  F   F243      1.0  0.18213  0.51314  0.32967  1.0000
  F   F244      1.0  0.17722  0.51307  0.81851  1.0000
  F   F245      1.0  0.43556  0.00625  0.32817  1.0000
  F   F246      1.0  0.43101  0.01659  0.82380  1.0000
  F   F247      1.0  0.43394  0.52487  0.32437  1.0000
  F   F248      1.0  0.42755  0.52256  0.83001  1.0000
  F   F249      1.0  0.68413  0.02551  0.32746  1.0000
  F   F250      1.0  0.68347  0.01635  0.82194  1.0000
  F   F251      1.0  0.67595  0.51634  0.32510  1.0000
  F   F252      1.0  0.67616  0.52698  0.81314  1.0000
  F   F253      1.0  0.93514  0.00799  0.32173  1.0000
  F   F254      1.0  0.92669  0.01079  0.83474  1.0000
  F   F255      1.0  0.93058  0.51098  0.31908  1.0000
  F   F256      1.0  0.93219  0.51253  0.83320  1.0000
  F   F257      1.0  0.00152  0.24363  0.99277  1.0000
  F   F258      1.0  0.99860  0.26186  0.49209  1.0000
  F   F259      1.0  0.99849  0.73957  0.00729  1.0000
  F   F260      1.0  0.00211  0.75231  0.50499  1.0000
  F   F261      1.0  0.25019  0.25309  0.00068  1.0000
  F   F262      1.0  0.25366  0.24726  0.50980  1.0000
  F   F263      1.0  0.24586  0.73890  0.01027  1.0000
  F   F264      1.0  0.24910  0.73333  0.51167  1.0000
  F   F265      1.0  0.50356  0.27141  0.99160  1.0000
  F   F266      1.0  0.50504  0.25302  0.48171  1.0000
  F   F267      1.0  0.49964  0.76185  0.99194  1.0000
  F   F268      1.0  0.50208  0.76127  0.49025  1.0000
  F   F269      1.0  0.76099  0.27415  0.98863  1.0000
  F   F270      1.0  0.75103  0.28072  0.48061  1.0000
  F   F271      1.0  0.74330  0.73732  0.99908  1.0000
  F   F272      1.0  0.74881  0.75064  0.50248  1.0000
  F   F273      1.0  0.11473  0.99559  0.26859  1.0000
  F   F274      1.0  0.12375  0.99804  0.74882  1.0000
  F   F275      1.0  0.12583  0.50337  0.24324  1.0000
  F   F276      1.0  0.12281  0.49298  0.75436  1.0000
  F   F277      1.0  0.37175  0.00855  0.25354  1.0000
  F   F278      1.0  0.37849  0.00272  0.74769  1.0000
  F   F279      1.0  0.38295  0.50801  0.23033  1.0000
  F   F280      1.0  0.38626  0.50945  0.72875  1.0000
  F   F281      1.0  0.63309  0.00059  0.25248  1.0000
  F   F282      1.0  0.62718  0.01098  0.75304  1.0000
  F   F283      1.0  0.62468  0.49305  0.24384  1.0000
  F   F284      1.0  0.62017  0.49314  0.75059  1.0000
  F   F285      1.0  0.88436  0.01209  0.23786  1.0000
  F   F286      1.0  0.87473  0.99753  0.75561  1.0000
  F   F287      1.0  0.87217  0.49180  0.24858  1.0000
  F   F288      1.0  0.88934  0.50688  0.74218  1.0000
  F   F289      1.0  0.03703  0.03048  0.03014  1.0000
  F   F290      1.0  0.03900  0.03450  0.52251  1.0000
  F   F291      1.0  0.04149  0.52311  0.02942  1.0000
  F   F292      1.0  0.05367  0.53622  0.51399  1.0000
  F   F293      1.0  0.28877  0.03924  0.03516  1.0000
  F   F294      1.0  0.28866  0.02533  0.52502  1.0000
  F   F295      1.0  0.29480  0.53458  0.03725  1.0000
  F   F296      1.0  0.29275  0.52622  0.53485  1.0000
  F   F297      1.0  0.54208  0.04838  0.02287  1.0000
  F   F298      1.0  0.54565  0.04056  0.52592  1.0000
  F   F299      1.0  0.54042  0.53964  0.02163  1.0000
  F   F300      1.0  0.53984  0.54080  0.51967  1.0000
  F   F301      1.0  0.78248  0.04148  0.03528  1.0000
  F   F302      1.0  0.79164  0.02239  0.52239  1.0000
  F   F303      1.0  0.80856  0.53279  0.99020  1.0000
  F   F304      1.0  0.79309  0.53276  0.52975  1.0000
  F   F305      1.0  0.23276  0.41412  0.23461  1.0000
  F   F306      1.0  0.23690  0.40372  0.73800  1.0000
  F   F307      1.0  0.23722  0.90280  0.23903  1.0000
  F   F308      1.0  0.23864  0.89453  0.74659  1.0000
  F   F309      1.0  0.48123  0.41855  0.22817  1.0000
  F   F310      1.0  0.48462  0.41901  0.71013  1.0000
  F   F311      1.0  0.48837  0.91414  0.22665  1.0000
  F   F312      1.0  0.48412  0.90825  0.72332  1.0000
  F   F313      1.0  0.73679  0.41589  0.23239  1.0000
  F   F314      1.0  0.73930  0.42808  0.72229  1.0000
  F   F315      1.0  0.73646  0.91084  0.22265  1.0000
  F   F316      1.0  0.74081  0.90161  0.73224  1.0000
  F   F317      1.0  0.98344  0.41078  0.23712  1.0000
  F   F318      1.0  0.98927  0.40750  0.71873  1.0000
  F   F319      1.0  0.98904  0.91479  0.22031  1.0000
  F   F320      1.0  0.98146  0.90980  0.73740  1.0000
  F   F321      1.0  0.20943  0.46697  0.46848  1.0000
  F   F322      1.0  0.20323  0.46906  0.97334  1.0000
  F   F323      1.0  0.20018  0.96174  0.48708  1.0000
  F   F324      1.0  0.21179  0.97197  0.97699  1.0000
  F   F325      1.0  0.45852  0.47497  0.47656  1.0000
  F   F326      1.0  0.46112  0.46958  0.96803  1.0000
  F   F327      1.0  0.45504  0.96714  0.47940  1.0000
  F   F328      1.0  0.45556  0.97531  0.97562  1.0000
  F   F329      1.0  0.70625  0.46952  0.47169  1.0000
  F   F330      1.0  0.69823  0.47929  0.97017  1.0000
  F   F331      1.0  0.71465  0.97813  0.47261  1.0000
  F   F332      1.0  0.71540  0.96789  0.96144  1.0000
  F   F333      1.0  0.95951  0.46732  0.47787  1.0000
  F   F334      1.0  0.96228  0.47036  0.97778  1.0000
  F   F335      1.0  0.95771  0.98202  0.47482  1.0000
  F   F336      1.0  0.97237  0.95960  0.95845  1.0000
  F   F337      1.0  0.01793  0.08183  0.26945  1.0000
  F   F338      1.0  0.01913  0.08012  0.75399  1.0000
  F   F339      1.0  0.01251  0.57913  0.26897  1.0000
  F   F340      1.0  0.01691  0.59029  0.76292  1.0000
  F   F341      1.0  0.26646  0.07899  0.29034  1.0000
  F   F342      1.0  0.26392  0.10059  0.76699  1.0000
  F   F343      1.0  0.26126  0.59620  0.26667  1.0000
  F   F344      1.0  0.26333  0.58191  0.77375  1.0000
  F   F345      1.0  0.51570  0.08193  0.27186  1.0000
  F   F346      1.0  0.51554  0.07553  0.77749  1.0000
  F   F347      1.0  0.51616  0.59420  0.27772  1.0000
  F   F348      1.0  0.51634  0.59475  0.77584  1.0000
  F   F349      1.0  0.76529  0.11120  0.27060  1.0000
  F   F350      1.0  0.76518  0.07818  0.78235  1.0000
  F   F351      1.0  0.76323  0.59195  0.26985  1.0000
  F   F352      1.0  0.75999  0.56753  0.77648  1.0000
  F   F353      1.0  0.10439  0.40719  0.45464  1.0000
  F   F354      1.0  0.10345  0.39436  0.96799  1.0000
  F   F355      1.0  0.10216  0.91670  0.46544  1.0000
  F   F356      1.0  0.10157  0.91222  0.94985  1.0000
  F   F357      1.0  0.35478  0.42796  0.44627  1.0000
  F   F358      1.0  0.34998  0.39729  0.96718  1.0000
  F   F359      1.0  0.34748  0.90355  0.46845  1.0000
  F   F360      1.0  0.35074  0.90951  0.96438  1.0000
  F   F361      1.0  0.59757  0.42101  0.46023  1.0000
  F   F362      1.0  0.59517  0.40359  0.97569  1.0000
  F   F363      1.0  0.60216  0.91151  0.46056  1.0000
  F   F364      1.0  0.59978  0.92555  0.96066  1.0000
  F   F365      1.0  0.85162  0.41408  0.45948  1.0000
  F   F366      1.0  0.85726  0.38557  0.97113  1.0000
  F   F367      1.0  0.85347  0.90042  0.45079  1.0000
  F   F368      1.0  0.84903  0.92352  0.96723  1.0000
  F   F369      1.0  0.04177  0.28320  0.29595  1.0000
  F   F370      1.0  0.04885  0.28856  0.77844  1.0000
  F   F371      1.0  0.05091  0.79658  0.26650  1.0000
  F   F372      1.0  0.04513  0.79824  0.80212  1.0000
  F   F373      1.0  0.30317  0.30334  0.28180  1.0000
  F   F374      1.0  0.29599  0.29187  0.78038  1.0000
  F   F375      1.0  0.29449  0.79135  0.30762  1.0000
  F   F376      1.0  0.30486  0.78813  0.79440  1.0000
  F   F377      1.0  0.54482  0.29566  0.28547  1.0000
  F   F378      1.0  0.55300  0.31416  0.77470  1.0000
  F   F379      1.0  0.55052  0.78889  0.28875  1.0000
  F   F380      1.0  0.54464  0.79054  0.78800  1.0000
  F   F381      1.0  0.80068  0.29202  0.28769  1.0000
  F   F382      1.0  0.80108  0.30694  0.77707  1.0000
  F   F383      1.0  0.79241  0.79078  0.28601  1.0000
  F   F384      1.0  0.80586  0.80276  0.78161  1.0000
