data_image0
_chemical_formula_structural       Hf96F384
_chemical_formula_sum              "Hf96 F384"
_cell_length_a       31.0558
_cell_length_b       15.5259
_cell_length_c       15.5175
_cell_angle_alpha    63.342
_cell_angle_beta     63.342
_cell_angle_gamma    80.1625

_space_group_name_H-M_alt    "P 1"
_space_group_IT_number       1

loop_
  _space_group_symop_operation_xyz
  'x, y, z'

loop_
  _atom_site_type_symbol
  _atom_site_label
  _atom_site_symmetry_multiplicity
  _atom_site_fract_x
  _atom_site_fract_y
  _atom_site_fract_z
  _atom_site_occupancy
  Hf  Hf1       1.0  0.19340  0.10750  0.37421  1.0000
  Hf  Hf2       1.0  0.19585  0.09901  0.87669  1.0000
  Hf  Hf3       1.0  0.19905  0.60261  0.37709  1.0000
  Hf  Hf4       1.0  0.19735  0.61295  0.86740  1.0000
  Hf  Hf5       1.0  0.44558  0.10063  0.38153  1.0000
  Hf  Hf6       1.0  0.44362  0.10580  0.88101  1.0000
  Hf  Hf7       1.0  0.44696  0.61516  0.36745  1.0000
  Hf  Hf8       1.0  0.44418  0.59556  0.88296  1.0000
  Hf  Hf9       1.0  0.69883  0.11457  0.36349  1.0000
  Hf  Hf10      1.0  0.69626  0.11412  0.86616  1.0000
  Hf  Hf11      1.0  0.70050  0.60179  0.37436  1.0000
  Hf  Hf12      1.0  0.69402  0.60890  0.87669  1.0000
  Hf  Hf13      1.0  0.94849  0.10867  0.37388  1.0000
  Hf  Hf14      1.0  0.94804  0.10293  0.87559  1.0000
  Hf  Hf15      1.0  0.94656  0.60651  0.37562  1.0000
  Hf  Hf16      1.0  0.94773  0.60729  0.86062  1.0000
  Hf  Hf17      1.0  0.05071  0.38565  0.13704  1.0000
  Hf  Hf18      1.0  0.05827  0.39239  0.62171  1.0000
  Hf  Hf19      1.0  0.04958  0.88832  0.13183  1.0000
  Hf  Hf20      1.0  0.05647  0.88444  0.62828  1.0000
  Hf  Hf21      1.0  0.30431  0.39198  0.12032  1.0000
  Hf  Hf22      1.0  0.30680  0.39470  0.62036  1.0000
  Hf  Hf23      1.0  0.30628  0.89307  0.12197  1.0000
  Hf  Hf24      1.0  0.30634  0.89620  0.61743  1.0000
  Hf  Hf25      1.0  0.54816  0.38332  0.13426  1.0000
  Hf  Hf26      1.0  0.55201  0.39075  0.63230  1.0000
  Hf  Hf27      1.0  0.55443  0.90179  0.12186  1.0000
  Hf  Hf28      1.0  0.54940  0.88006  0.63914  1.0000
  Hf  Hf29      1.0  0.80675  0.39234  0.12616  1.0000
  Hf  Hf30      1.0  0.79784  0.39415  0.62464  1.0000
  Hf  Hf31      1.0  0.80540  0.89494  0.12587  1.0000
  Hf  Hf32      1.0  0.80059  0.89425  0.62814  1.0000
  Hf  Hf33      1.0  0.05120  0.17613  0.43332  1.0000
  Hf  Hf34      1.0  0.05674  0.17916  0.91989  1.0000
  Hf  Hf35      1.0  0.05703  0.67826  0.41874  1.0000
  Hf  Hf36      1.0  0.05716  0.67607  0.91418  1.0000
  Hf  Hf37      1.0  0.30766  0.18551  0.41301  1.0000
  Hf  Hf38      1.0  0.30370  0.18491  0.91583  1.0000
  Hf  Hf39      1.0  0.30735  0.68875  0.41249  1.0000
  Hf  Hf40      1.0  0.30621  0.68802  0.91547  1.0000
  Hf  Hf41      1.0  0.55489  0.17247  0.41988  1.0000
  Hf  Hf42      1.0  0.55593  0.18974  0.91547  1.0000
  Hf  Hf43      1.0  0.55688  0.68121  0.41651  1.0000
  Hf  Hf44      1.0  0.55334  0.67713  0.92163  1.0000
  Hf  Hf45      1.0  0.80610  0.18478  0.42050  1.0000
  Hf  Hf46      1.0  0.80547  0.18490  0.91959  1.0000
  Hf  Hf47      1.0  0.80360  0.68131  0.42372  1.0000
  Hf  Hf48      1.0  0.80325  0.68804  0.91722  1.0000
  Hf  Hf49      1.0  0.15399  0.39216  0.33298  1.0000
  Hf  Hf50      1.0  0.16355  0.37949  0.83191  1.0000
  Hf  Hf51      1.0  0.15605  0.88271  0.33457  1.0000
  Hf  Hf52      1.0  0.15637  0.89109  0.83564  1.0000
  Hf  Hf53      1.0  0.40954  0.38564  0.33539  1.0000
  Hf  Hf54      1.0  0.41001  0.38558  0.82168  1.0000
  Hf  Hf55      1.0  0.41042  0.89129  0.32973  1.0000
  Hf  Hf56      1.0  0.40583  0.89314  0.82963  1.0000
  Hf  Hf57      1.0  0.65323  0.39076  0.33608  1.0000
  Hf  Hf58      1.0  0.65727  0.39309  0.82997  1.0000
  Hf  Hf59      1.0  0.65785  0.88178  0.34556  1.0000
  Hf  Hf60      1.0  0.65445  0.88565  0.83723  1.0000
  Hf  Hf61      1.0  0.90869  0.39463  0.34371  1.0000
  Hf  Hf62      1.0  0.90649  0.38384  0.84114  1.0000
  Hf  Hf63      1.0  0.90507  0.88761  0.33731  1.0000
  Hf  Hf64      1.0  0.90884  0.89108  0.82926  1.0000
  Hf  Hf65      1.0  0.19198  0.31919  0.08203  1.0000
  Hf  Hf66      1.0  0.19554  0.31368  0.58144  1.0000
  Hf  Hf67      1.0  0.19304  0.81710  0.07944  1.0000
  Hf  Hf68      1.0  0.19582  0.81986  0.57861  1.0000
  Hf  Hf69      1.0  0.44136  0.31053  0.08870  1.0000
  Hf  Hf70      1.0  0.44557  0.31938  0.57738  1.0000
  Hf  Hf71      1.0  0.44088  0.82169  0.08178  1.0000
  Hf  Hf72      1.0  0.44445  0.80743  0.58671  1.0000
  Hf  Hf73      1.0  0.69152  0.32055  0.08629  1.0000
  Hf  Hf74      1.0  0.69219  0.31441  0.58669  1.0000
  Hf  Hf75      1.0  0.69762  0.82516  0.07650  1.0000
  Hf  Hf76      1.0  0.69334  0.81945  0.58297  1.0000
  Hf  Hf77      1.0  0.94734  0.32573  0.08424  1.0000
  Hf  Hf78      1.0  0.94100  0.32106  0.58680  1.0000
  Hf  Hf79      1.0  0.94955  0.81431  0.08366  1.0000
  Hf  Hf80      1.0  0.93864  0.81649  0.58765  1.0000
  Hf  Hf81      1.0  0.08711  0.10650  0.17815  1.0000
  Hf  Hf82      1.0  0.09211  0.11119  0.66544  1.0000
  Hf  Hf83      1.0  0.09028  0.61445  0.16294  1.0000
  Hf  Hf84      1.0  0.09679  0.59987  0.66565  1.0000
  Hf  Hf85      1.0  0.33898  0.11773  0.16503  1.0000
  Hf  Hf86      1.0  0.34159  0.11718  0.65957  1.0000
  Hf  Hf87      1.0  0.34542  0.61886  0.16277  1.0000
  Hf  Hf88      1.0  0.34092  0.61494  0.66018  1.0000
  Hf  Hf89      1.0  0.59729  0.11858  0.15948  1.0000
  Hf  Hf90      1.0  0.58760  0.10443  0.67557  1.0000
  Hf  Hf91      1.0  0.59290  0.61614  0.16706  1.0000
  Hf  Hf92      1.0  0.59660  0.61417  0.65525  1.0000
  Hf  Hf93      1.0  0.84357  0.11306  0.16372  1.0000
  Hf  Hf94      1.0  0.84310  0.11180  0.66984  1.0000
  Hf  Hf95      1.0  0.85138  0.61743  0.15556  1.0000
  Hf  Hf96      1.0  0.83912  0.60359  0.67497  1.0000
  F   F1        1.0  0.07234  0.12555  0.30913  1.0000
  F   F2        1.0  0.07991  0.13555  0.79919  1.0000
  F   F3        1.0  0.08194  0.63419  0.29883  1.0000
  F   F4        1.0  0.08124  0.61655  0.80041  1.0000
  F   F5        1.0  0.33225  0.13966  0.29922  1.0000
  F   F6        1.0  0.32578  0.12413  0.80525  1.0000
  F   F7        1.0  0.33435  0.63601  0.29160  1.0000
  F   F8        1.0  0.33227  0.63227  0.79511  1.0000
  F   F9        1.0  0.57930  0.12341  0.31297  1.0000
  F   F10       1.0  0.57360  0.13256  0.80056  1.0000
  F   F11       1.0  0.57338  0.61754  0.31237  1.0000
  F   F12       1.0  0.57881  0.63290  0.79444  1.0000
  F   F13       1.0  0.83343  0.14926  0.29329  1.0000
  F   F14       1.0  0.82749  0.13561  0.81550  1.0000
  F   F15       1.0  0.82825  0.63760  0.30301  1.0000
  F   F16       1.0  0.83296  0.64277  0.79220  1.0000
  F   F17       1.0  0.18143  0.33654  0.44248  1.0000
  F   F18       1.0  0.19946  0.33287  0.94335  1.0000
  F   F19       1.0  0.19310  0.83090  0.44168  1.0000
  F   F20       1.0  0.18313  0.84517  0.94939  1.0000
  F   F21       1.0  0.43975  0.34404  0.43736  1.0000
  F   F22       1.0  0.43300  0.33447  0.94779  1.0000
  F   F23       1.0  0.43529  0.83263  0.45449  1.0000
  F   F24       1.0  0.42546  0.83705  0.95420  1.0000
  F   F25       1.0  0.68605  0.33999  0.44127  1.0000
  F   F26       1.0  0.68648  0.34288  0.94602  1.0000
  F   F27       1.0  0.68561  0.85052  0.44162  1.0000
  F   F28       1.0  0.68358  0.83698  0.95288  1.0000
  F   F29       1.0  0.93033  0.33337  0.45917  1.0000
  F   F30       1.0  0.93721  0.34828  0.94965  1.0000
  F   F31       1.0  0.92975  0.83945  0.45961  1.0000
  F   F32       1.0  0.93703  0.83704  0.94123  1.0000
  F   F33       1.0  0.16785  0.37551  0.19837  1.0000
  F   F34       1.0  0.17260  0.36045  0.69724  1.0000
  F   F35       1.0  0.16808  0.87540  0.19495  1.0000
  F   F36       1.0  0.16667  0.85439  0.70541  1.0000
  F   F37       1.0  0.42783  0.37556  0.18475  1.0000
  F   F38       1.0  0.42539  0.38281  0.68114  1.0000
  F   F39       1.0  0.41247  0.86123  0.21026  1.0000
  F   F40       1.0  0.41568  0.86047  0.70800  1.0000
  F   F41       1.0  0.67300  0.39176  0.18354  1.0000
  F   F42       1.0  0.66749  0.36319  0.70073  1.0000
  F   F43       1.0  0.68629  0.87347  0.18596  1.0000
  F   F44       1.0  0.67032  0.88114  0.68385  1.0000
  F   F45       1.0  0.91834  0.39080  0.20456  1.0000
  F   F46       1.0  0.91286  0.37472  0.70039  1.0000
  F   F47       1.0  0.92709  0.88690  0.19239  1.0000
  F   F48       1.0  0.92397  0.87772  0.69272  1.0000
  F   F49       1.0  0.07424  0.16740  0.04228  1.0000
  F   F50       1.0  0.05166  0.13993  0.58071  1.0000
  F   F51       1.0  0.05524  0.66330  0.05620  1.0000
  F   F52       1.0  0.06522  0.65312  0.55574  1.0000
  F   F53       1.0  0.32618  0.17826  0.03946  1.0000
  F   F54       1.0  0.31544  0.16507  0.54378  1.0000
  F   F55       1.0  0.32521  0.66677  0.03927  1.0000
  F   F56       1.0  0.31571  0.67227  0.54481  1.0000
  F   F57       1.0  0.57123  0.16386  0.04948  1.0000
  F   F58       1.0  0.56101  0.14483  0.55821  1.0000
  F   F59       1.0  0.56362  0.66140  0.05549  1.0000
  F   F60       1.0  0.57681  0.65787  0.53776  1.0000
  F   F61       1.0  0.81833  0.15908  0.05698  1.0000
  F   F62       1.0  0.81161  0.14982  0.56068  1.0000
  F   F63       1.0  0.81142  0.66537  0.05234  1.0000
  F   F64       1.0  0.81422  0.65054  0.55154  1.0000
  F   F65       1.0  0.19646  0.20021  0.21645  1.0000
  F   F66       1.0  0.20680  0.20113  0.70572  1.0000
  F   F67       1.0  0.19821  0.70888  0.22133  1.0000
  F   F68       1.0  0.20889  0.69853  0.70199  1.0000
  F   F69       1.0  0.43962  0.19553  0.22438  1.0000
  F   F70       1.0  0.45309  0.21623  0.69727  1.0000
  F   F71       1.0  0.45802  0.70591  0.20593  1.0000
  F   F72       1.0  0.45422  0.70034  0.70486  1.0000
  F   F73       1.0  0.71007  0.20499  0.20476  1.0000
  F   F74       1.0  0.70938  0.20747  0.70813  1.0000
  F   F75       1.0  0.70875  0.71141  0.20934  1.0000
  F   F76       1.0  0.70588  0.70931  0.69880  1.0000
  F   F77       1.0  0.94795  0.20201  0.21489  1.0000
  F   F78       1.0  0.95213  0.19377  0.72837  1.0000
  F   F79       1.0  0.95680  0.71176  0.20765  1.0000
  F   F80       1.0  0.94947  0.69326  0.70489  1.0000
  F   F81       1.0  0.14716  0.08237  0.04356  1.0000
  F   F82       1.0  0.14386  0.10485  0.53199  1.0000
  F   F83       1.0  0.14096  0.60482  0.03027  1.0000
  F   F84       1.0  0.15263  0.57836  0.54864  1.0000
  F   F85       1.0  0.39940  0.08509  0.02794  1.0000
  F   F86       1.0  0.39982  0.07163  0.54880  1.0000
  F   F87       1.0  0.40406  0.58050  0.04420  1.0000
  F   F88       1.0  0.39754  0.60147  0.52442  1.0000
  F   F89       1.0  0.65245  0.08692  0.03755  1.0000
  F   F90       1.0  0.64956  0.08739  0.54377  1.0000
  F   F91       1.0  0.65383  0.60812  0.02789  1.0000
  F   F92       1.0  0.65412  0.58957  0.54422  1.0000
  F   F93       1.0  0.90120  0.09241  0.04477  1.0000
  F   F94       1.0  0.89549  0.08791  0.55928  1.0000
  F   F95       1.0  0.90356  0.60022  0.03534  1.0000
  F   F96       1.0  0.89727  0.58043  0.55725  1.0000
  F   F97       1.0  0.14392  0.19996  0.11672  1.0000
  F   F98       1.0  0.15631  0.19723  0.62074  1.0000
  F   F99       1.0  0.15238  0.68906  0.11910  1.0000
  F   F100      1.0  0.15216  0.69025  0.62778  1.0000
  F   F101      1.0  0.39453  0.19397  0.12767  1.0000
  F   F102      1.0  0.40528  0.18985  0.61832  1.0000
  F   F103      1.0  0.40433  0.70282  0.11897  1.0000
  F   F104      1.0  0.40021  0.68783  0.62371  1.0000
  F   F105      1.0  0.65859  0.18568  0.13000  1.0000
  F   F106      1.0  0.65295  0.19756  0.63427  1.0000
  F   F107      1.0  0.65119  0.70032  0.13638  1.0000
  F   F108      1.0  0.65387  0.69258  0.62762  1.0000
  F   F109      1.0  0.90321  0.21026  0.11279  1.0000
  F   F110      1.0  0.90095  0.19565  0.63692  1.0000
  F   F111      1.0  0.91029  0.68574  0.13188  1.0000
  F   F112      1.0  0.89965  0.69501  0.61114  1.0000
  F   F113      1.0  0.09489  0.29945  0.38810  1.0000
  F   F114      1.0  0.10371  0.29732  0.85479  1.0000
  F   F115      1.0  0.09890  0.79843  0.34904  1.0000
  F   F116      1.0  0.10031  0.80621  0.89034  1.0000
  F   F117      1.0  0.35469  0.29620  0.38019  1.0000
  F   F118      1.0  0.35301  0.30050  0.85558  1.0000
  F   F119      1.0  0.34972  0.79989  0.37993  1.0000
  F   F120      1.0  0.34245  0.81035  0.87583  1.0000
  F   F121      1.0  0.59676  0.31008  0.36619  1.0000
  F   F122      1.0  0.58259  0.31135  0.88063  1.0000
  F   F123      1.0  0.59785  0.80703  0.35916  1.0000
  F   F124      1.0  0.59696  0.80691  0.86760  1.0000
  F   F125      1.0  0.85210  0.29684  0.39108  1.0000
  F   F126      1.0  0.84502  0.30144  0.87407  1.0000
  F   F127      1.0  0.84567  0.81424  0.37502  1.0000
  F   F128      1.0  0.85267  0.80968  0.87085  1.0000
  F   F129      1.0  0.04715  0.24149  0.17629  1.0000
  F   F130      1.0  0.07295  0.25299  0.62304  1.0000
  F   F131      1.0  0.06946  0.75119  0.12930  1.0000
  F   F132      1.0  0.06564  0.74215  0.65310  1.0000
  F   F133      1.0  0.30599  0.24955  0.15246  1.0000
  F   F134      1.0  0.30954  0.24924  0.66297  1.0000
  F   F135      1.0  0.31548  0.76121  0.14589  1.0000
  F   F136      1.0  0.31487  0.75155  0.64935  1.0000
  F   F137      1.0  0.56558  0.24740  0.15200  1.0000
  F   F138      1.0  0.57148  0.25260  0.62156  1.0000
  F   F139      1.0  0.57467  0.75684  0.12538  1.0000
  F   F140      1.0  0.56064  0.75476  0.63050  1.0000
  F   F141      1.0  0.80521  0.25359  0.16450  1.0000
  F   F142      1.0  0.82396  0.25199  0.63715  1.0000
  F   F143      1.0  0.81577  0.75551  0.13369  1.0000
  F   F144      1.0  0.81312  0.74884  0.65218  1.0000
  F   F145      1.0  0.11785  0.36045  0.10962  1.0000
  F   F146      1.0  0.12911  0.37363  0.59164  1.0000
  F   F147      1.0  0.12240  0.86670  0.11322  1.0000
  F   F148      1.0  0.12915  0.87694  0.58171  1.0000
  F   F149      1.0  0.37288  0.36290  0.11375  1.0000
  F   F150      1.0  0.37745  0.35634  0.61879  1.0000
  F   F151      1.0  0.37557  0.88717  0.09739  1.0000
  F   F152      1.0  0.37622  0.85523  0.61759  1.0000
  F   F153      1.0  0.62475  0.38232  0.09082  1.0000
  F   F154      1.0  0.62346  0.36871  0.60704  1.0000
  F   F155      1.0  0.62498  0.87330  0.11103  1.0000
  F   F156      1.0  0.62231  0.85530  0.60226  1.0000
  F   F157      1.0  0.88047  0.38119  0.10595  1.0000
  F   F158      1.0  0.87109  0.39753  0.59601  1.0000
  F   F159      1.0  0.87864  0.85582  0.12815  1.0000
  F   F160      1.0  0.87099  0.88290  0.60454  1.0000
  F   F161      1.0  0.18642  0.24898  0.34750  1.0000
  F   F162      1.0  0.18370  0.23984  0.86158  1.0000
  F   F163      1.0  0.18164  0.75015  0.36645  1.0000
  F   F164      1.0  0.18810  0.74717  0.86203  1.0000
  F   F165      1.0  0.43974  0.24344  0.35984  1.0000
  F   F166      1.0  0.44200  0.25150  0.84382  1.0000
  F   F167      1.0  0.44231  0.76019  0.34858  1.0000
  F   F168      1.0  0.43711  0.72541  0.86675  1.0000
  F   F169      1.0  0.68044  0.24797  0.36307  1.0000
  F   F170      1.0  0.66884  0.25441  0.87603  1.0000
  F   F171      1.0  0.68014  0.74864  0.36780  1.0000
  F   F172      1.0  0.68680  0.75431  0.84451  1.0000
  F   F173      1.0  0.93995  0.24689  0.35364  1.0000
  F   F174      1.0  0.92892  0.24625  0.86873  1.0000
  F   F175      1.0  0.93242  0.74235  0.36259  1.0000
  F   F176      1.0  0.93121  0.74928  0.85325  1.0000
  F   F177      1.0  0.12249  0.12744  0.39856  1.0000
  F   F178      1.0  0.12618  0.11265  0.89516  1.0000
  F   F179      1.0  0.12834  0.61922  0.40680  1.0000
  F   F180      1.0  0.12931  0.65218  0.87039  1.0000
  F   F181      1.0  0.37451  0.11659  0.40171  1.0000
  F   F182      1.0  0.37375  0.12442  0.90014  1.0000
  F   F183      1.0  0.37745  0.64380  0.37621  1.0000
  F   F184      1.0  0.37432  0.64296  0.88829  1.0000
  F   F185      1.0  0.62900  0.14060  0.37834  1.0000
  F   F186      1.0  0.62277  0.12770  0.88610  1.0000
  F   F187      1.0  0.62779  0.63560  0.37252  1.0000
  F   F188      1.0  0.62863  0.63129  0.87862  1.0000
  F   F189      1.0  0.87742  0.11883  0.39976  1.0000
  F   F190      1.0  0.87940  0.11397  0.89924  1.0000
  F   F191      1.0  0.87467  0.63810  0.39123  1.0000
  F   F192      1.0  0.87508  0.63428  0.89084  1.0000
  F   F193      1.0  0.01180  0.37296  0.06870  1.0000
  F   F194      1.0  0.00562  0.34849  0.58489  1.0000
  F   F195      1.0  0.00826  0.86272  0.07601  1.0000
  F   F196      1.0  0.00975  0.86114  0.57132  1.0000
  F   F197      1.0  0.25393  0.36494  0.06224  1.0000
  F   F198      1.0  0.25842  0.36279  0.57621  1.0000
  F   F199      1.0  0.25813  0.87146  0.07949  1.0000
  F   F200      1.0  0.25575  0.86304  0.57899  1.0000
  F   F201      1.0  0.51077  0.35927  0.07141  1.0000
  F   F202      1.0  0.50788  0.37137  0.56702  1.0000
  F   F203      1.0  0.50738  0.85800  0.08689  1.0000
  F   F204      1.0  0.50339  0.86236  0.59051  1.0000
  F   F205      1.0  0.75928  0.37999  0.06909  1.0000
  F   F206      1.0  0.75600  0.37025  0.56380  1.0000
  F   F207      1.0  0.76215  0.87907  0.06207  1.0000
  F   F208      1.0  0.75886  0.86643  0.55884  1.0000
  F   F209      1.0  0.06465  0.48744  0.16537  1.0000
  F   F210      1.0  0.07239  0.47649  0.67911  1.0000
  F   F211      1.0  0.07207  0.98692  0.16812  1.0000
  F   F212      1.0  0.07741  0.97595  0.66490  1.0000
  F   F213      1.0  0.32329  0.49226  0.16318  1.0000
  F   F214      1.0  0.32699  0.49055  0.65289  1.0000
  F   F215      1.0  0.31863  0.98736  0.17884  1.0000
  F   F216      1.0  0.32499  0.98608  0.66531  1.0000
  F   F217      1.0  0.57788  0.49599  0.16213  1.0000
  F   F218      1.0  0.56825  0.48324  0.67854  1.0000
  F   F219      1.0  0.57031  0.99931  0.17321  1.0000
  F   F220      1.0  0.55671  0.98621  0.71038  1.0000
  F   F221      1.0  0.82517  0.49650  0.16530  1.0000
  F   F222      1.0  0.81553  0.48630  0.67824  1.0000
  F   F223      1.0  0.82398  0.97808  0.17643  1.0000
  F   F224      1.0  0.82114  0.98846  0.66387  1.0000
  F   F225      1.0  0.24185  0.14972  0.42320  1.0000
  F   F226      1.0  0.23996  0.15287  0.90640  1.0000
  F   F227      1.0  0.24247  0.64126  0.42884  1.0000
  F   F228      1.0  0.24371  0.64489  0.91058  1.0000
  F   F229      1.0  0.49391  0.12110  0.44416  1.0000
  F   F230      1.0  0.48575  0.13980  0.93218  1.0000
  F   F231      1.0  0.49522  0.64707  0.42870  1.0000
  F   F232      1.0  0.49144  0.62915  0.94560  1.0000
  F   F233      1.0  0.73791  0.14559  0.42560  1.0000
  F   F234      1.0  0.73972  0.15342  0.92032  1.0000
  F   F235      1.0  0.74568  0.64216  0.41499  1.0000
  F   F236      1.0  0.73905  0.63605  0.93725  1.0000
  F   F237      1.0  0.98852  0.13986  0.44672  1.0000
  F   F238      1.0  0.99476  0.14645  0.92405  1.0000
  F   F239      1.0  0.99176  0.64163  0.42007  1.0000
  F   F240      1.0  0.00002  0.64539  0.89454  1.0000
  F   F241      1.0  0.17725  0.00317  0.33392  1.0000
  F   F242      1.0  0.18393  0.00945  0.81989  1.0000
  F   F243      1.0  0.18398  0.51210  0.32156  1.0000
  F   F244      1.0  0.18136  0.51331  0.82629  1.0000
  F   F245      1.0  0.43411  0.00982  0.33150  1.0000
  F   F246      1.0  0.43322  0.01364  0.82775  1.0000
  F   F247      1.0  0.42688  0.52385  0.31537  1.0000
  F   F248      1.0  0.42762  0.50289  0.82892  1.0000
  F   F249      1.0  0.67693  0.01839  0.32073  1.0000
  F   F250      1.0  0.68849  0.00327  0.81608  1.0000
  F   F251      1.0  0.68254  0.51003  0.33391  1.0000
  F   F252      1.0  0.68132  0.52123  0.81385  1.0000
  F   F253      1.0  0.93270  0.00322  0.32829  1.0000
  F   F254      1.0  0.93457  0.01041  0.81777  1.0000
  F   F255      1.0  0.93652  0.52484  0.30451  1.0000
  F   F256      1.0  0.93703  0.51298  0.80985  1.0000
  F   F257      1.0  0.00164  0.26153  0.99489  1.0000
  F   F258      1.0  0.99964  0.25769  0.50084  1.0000
  F   F259      1.0  0.99946  0.74757  0.98398  1.0000
  F   F260      1.0  0.00336  0.76156  0.48887  1.0000
  F   F261      1.0  0.24416  0.21216  0.03206  1.0000
  F   F262      1.0  0.25295  0.25473  0.50652  1.0000
  F   F263      1.0  0.25107  0.74318  0.01399  1.0000
  F   F264      1.0  0.25618  0.76406  0.48628  1.0000
  F   F265      1.0  0.49772  0.23832  0.01864  1.0000
  F   F266      1.0  0.50592  0.25537  0.47835  1.0000
  F   F267      1.0  0.49685  0.75231  0.98665  1.0000
  F   F268      1.0  0.50301  0.75093  0.50472  1.0000
  F   F269      1.0  0.75181  0.26138  0.00372  1.0000
  F   F270      1.0  0.74534  0.23643  0.50565  1.0000
  F   F271      1.0  0.75700  0.76799  0.98557  1.0000
  F   F272      1.0  0.74747  0.73993  0.50432  1.0000
  F   F273      1.0  0.11898  0.00020  0.27118  1.0000
  F   F274      1.0  0.13315  0.99802  0.73654  1.0000
  F   F275      1.0  0.11281  0.50105  0.25979  1.0000
  F   F276      1.0  0.12532  0.49004  0.75654  1.0000
  F   F277      1.0  0.37745  0.00244  0.25389  1.0000
  F   F278      1.0  0.37304  0.00282  0.75287  1.0000
  F   F279      1.0  0.37404  0.49640  0.25344  1.0000
  F   F280      1.0  0.36949  0.49768  0.74966  1.0000
  F   F281      1.0  0.62225  0.00245  0.25465  1.0000
  F   F282      1.0  0.62545  0.00259  0.75827  1.0000
  F   F283      1.0  0.63056  0.50907  0.25537  1.0000
  F   F284      1.0  0.63689  0.51367  0.72874  1.0000
  F   F285      1.0  0.87518  0.00098  0.25416  1.0000
  F   F286      1.0  0.87245  0.00468  0.76458  1.0000
  F   F287      1.0  0.86598  0.50182  0.27397  1.0000
  F   F288      1.0  0.86710  0.49589  0.77123  1.0000
  F   F289      1.0  0.04050  0.04282  0.02765  1.0000
  F   F290      1.0  0.04731  0.01678  0.51316  1.0000
  F   F291      1.0  0.05211  0.52339  0.00605  1.0000
  F   F292      1.0  0.04012  0.52932  0.52959  1.0000
  F   F293      1.0  0.28414  0.04178  0.02834  1.0000
  F   F294      1.0  0.29313  0.04277  0.51413  1.0000
  F   F295      1.0  0.29261  0.53875  0.02329  1.0000
  F   F296      1.0  0.29921  0.52897  0.51200  1.0000
  F   F297      1.0  0.54068  0.05197  0.01784  1.0000
  F   F298      1.0  0.55035  0.01343  0.53923  1.0000
  F   F299      1.0  0.54713  0.51734  0.02567  1.0000
  F   F300      1.0  0.54506  0.53568  0.52890  1.0000
  F   F301      1.0  0.79469  0.04321  0.01814  1.0000
  F   F302      1.0  0.79614  0.03458  0.51522  1.0000
  F   F303      1.0  0.79743  0.53128  0.00609  1.0000
  F   F304      1.0  0.78994  0.53018  0.52599  1.0000
  F   F305      1.0  0.24055  0.40981  0.20652  1.0000
  F   F306      1.0  0.24268  0.40968  0.72122  1.0000
  F   F307      1.0  0.23457  0.90941  0.23014  1.0000
  F   F308      1.0  0.23463  0.90789  0.71952  1.0000
  F   F309      1.0  0.48444  0.41355  0.23386  1.0000
  F   F310      1.0  0.48108  0.41204  0.73229  1.0000
  F   F311      1.0  0.48374  0.93692  0.20526  1.0000
  F   F312      1.0  0.48037  0.88987  0.75231  1.0000
  F   F313      1.0  0.73866  0.41402  0.22073  1.0000
  F   F314      1.0  0.73081  0.42566  0.71385  1.0000
  F   F315      1.0  0.73932  0.91147  0.23955  1.0000
  F   F316      1.0  0.73147  0.91275  0.73339  1.0000
  F   F317      1.0  0.98553  0.40971  0.23817  1.0000
  F   F318      1.0  0.98491  0.40463  0.73282  1.0000
  F   F319      1.0  0.98753  0.91651  0.23025  1.0000
  F   F320      1.0  0.98710  0.90051  0.73000  1.0000
  F   F321      1.0  0.21163  0.46443  0.48274  1.0000
  F   F322      1.0  0.19213  0.47242  0.99203  1.0000
  F   F323      1.0  0.19766  0.97890  0.48742  1.0000
  F   F324      1.0  0.20660  0.96312  0.97934  1.0000
  F   F325      1.0  0.45717  0.48246  0.46601  1.0000
  F   F326      1.0  0.44897  0.45746  0.98808  1.0000
  F   F327      1.0  0.46358  0.96334  0.47683  1.0000
  F   F328      1.0  0.47011  0.94933  0.97020  1.0000
  F   F329      1.0  0.70657  0.46341  0.47382  1.0000
  F   F330      1.0  0.71113  0.47203  0.95898  1.0000
  F   F331      1.0  0.70932  0.97539  0.46185  1.0000
  F   F332      1.0  0.70679  0.97922  0.96841  1.0000
  F   F333      1.0  0.95383  0.46304  0.47329  1.0000
  F   F334      1.0  0.95903  0.48446  0.97584  1.0000
  F   F335      1.0  0.95763  0.98024  0.47776  1.0000
  F   F336      1.0  0.96309  0.96555  0.96437  1.0000
  F   F337      1.0  0.01136  0.08202  0.27041  1.0000
  F   F338      1.0  0.01688  0.08308  0.77646  1.0000
  F   F339      1.0  0.01484  0.57783  0.27898  1.0000
  F   F340      1.0  0.01683  0.58320  0.76575  1.0000
  F   F341      1.0  0.26159  0.07973  0.28545  1.0000
  F   F342      1.0  0.26662  0.07026  0.77113  1.0000
  F   F343      1.0  0.26841  0.60539  0.26328  1.0000
  F   F344      1.0  0.26788  0.57672  0.77299  1.0000
  F   F345      1.0  0.51174  0.09946  0.27990  1.0000
  F   F346      1.0  0.51001  0.10047  0.77002  1.0000
  F   F347      1.0  0.51343  0.58962  0.27193  1.0000
  F   F348      1.0  0.50886  0.59108  0.77491  1.0000
  F   F349      1.0  0.76887  0.08071  0.27532  1.0000
  F   F350      1.0  0.76157  0.08713  0.77625  1.0000
  F   F351      1.0  0.76471  0.58435  0.27560  1.0000
  F   F352      1.0  0.76420  0.61327  0.76711  1.0000
  F   F353      1.0  0.10210  0.41633  0.45443  1.0000
  F   F354      1.0  0.10445  0.37565  0.95940  1.0000
  F   F355      1.0  0.10048  0.88056  0.46315  1.0000
  F   F356      1.0  0.10020  0.92853  0.95653  1.0000
  F   F357      1.0  0.35266  0.40008  0.46723  1.0000
  F   F358      1.0  0.34633  0.40966  0.95761  1.0000
  F   F359      1.0  0.35618  0.91300  0.45963  1.0000
  F   F360      1.0  0.34833  0.91801  0.96008  1.0000
  F   F361      1.0  0.59654  0.41822  0.46069  1.0000
  F   F362      1.0  0.59921  0.41427  0.95067  1.0000
  F   F363      1.0  0.59973  0.88382  0.46275  1.0000
  F   F364      1.0  0.60120  0.91356  0.95244  1.0000
  F   F365      1.0  0.84409  0.42113  0.46088  1.0000
  F   F366      1.0  0.85369  0.39523  0.97531  1.0000
  F   F367      1.0  0.84633  0.90279  0.46626  1.0000
  F   F368      1.0  0.85027  0.91586  0.97075  1.0000
  F   F369      1.0  0.05176  0.29759  0.29347  1.0000
  F   F370      1.0  0.05157  0.29035  0.77374  1.0000
  F   F371      1.0  0.04581  0.79015  0.28283  1.0000
  F   F372      1.0  0.05614  0.79490  0.78430  1.0000
  F   F373      1.0  0.30247  0.30816  0.29045  1.0000
  F   F374      1.0  0.29300  0.30493  0.79678  1.0000
  F   F375      1.0  0.30350  0.80919  0.28581  1.0000
  F   F376      1.0  0.30067  0.79720  0.78720  1.0000
  F   F377      1.0  0.55497  0.30853  0.27552  1.0000
  F   F378      1.0  0.53865  0.29437  0.78355  1.0000
  F   F379      1.0  0.54183  0.79976  0.28512  1.0000
  F   F380      1.0  0.54242  0.78601  0.79716  1.0000
  F   F381      1.0  0.79340  0.31507  0.29942  1.0000
  F   F382      1.0  0.78762  0.30792  0.78297  1.0000
  F   F383      1.0  0.79355  0.79885  0.29201  1.0000
  F   F384      1.0  0.79470  0.80337  0.78446  1.0000
