data_image0
_chemical_formula_structural       Hf96F384
_chemical_formula_sum              "Hf96 F384"
_cell_length_a       31.0536
_cell_length_b       15.5245
_cell_length_c       15.5185
_cell_angle_alpha    63.342
_cell_angle_beta     63.342
_cell_angle_gamma    80.1625

_space_group_name_H-M_alt    "P 1"
_space_group_IT_number       1

loop_
  _space_group_symop_operation_xyz
  'x, y, z'

loop_
  _atom_site_type_symbol
  _atom_site_label
  _atom_site_symmetry_multiplicity
  _atom_site_fract_x
  _atom_site_fract_y
  _atom_site_fract_z
  _atom_site_occupancy
  Hf  Hf1       1.0  0.19701  0.10624  0.38038  1.0000
  Hf  Hf2       1.0  0.19958  0.10906  0.87589  1.0000
  Hf  Hf3       1.0  0.19715  0.60669  0.38008  1.0000
  Hf  Hf4       1.0  0.19671  0.60192  0.88099  1.0000
  Hf  Hf5       1.0  0.44487  0.10196  0.37088  1.0000
  Hf  Hf6       1.0  0.44540  0.10831  0.88031  1.0000
  Hf  Hf7       1.0  0.45427  0.61473  0.35237  1.0000
  Hf  Hf8       1.0  0.44501  0.60773  0.87422  1.0000
  Hf  Hf9       1.0  0.69804  0.11062  0.36487  1.0000
  Hf  Hf10      1.0  0.69890  0.10562  0.87075  1.0000
  Hf  Hf11      1.0  0.69649  0.60428  0.37367  1.0000
  Hf  Hf12      1.0  0.69824  0.60638  0.86451  1.0000
  Hf  Hf13      1.0  0.94241  0.10571  0.37972  1.0000
  Hf  Hf14      1.0  0.94483  0.09853  0.90197  1.0000
  Hf  Hf15      1.0  0.94695  0.60930  0.37861  1.0000
  Hf  Hf16      1.0  0.94714  0.61780  0.86956  1.0000
  Hf  Hf17      1.0  0.05458  0.39645  0.11863  1.0000
  Hf  Hf18      1.0  0.05529  0.38850  0.62346  1.0000
  Hf  Hf19      1.0  0.05410  0.89480  0.12900  1.0000
  Hf  Hf20      1.0  0.04850  0.89049  0.63213  1.0000
  Hf  Hf21      1.0  0.30543  0.39228  0.11877  1.0000
  Hf  Hf22      1.0  0.30344  0.39198  0.62683  1.0000
  Hf  Hf23      1.0  0.30418  0.88927  0.13573  1.0000
  Hf  Hf24      1.0  0.29515  0.88883  0.63968  1.0000
  Hf  Hf25      1.0  0.55483  0.38392  0.12246  1.0000
  Hf  Hf26      1.0  0.55085  0.40498  0.62663  1.0000
  Hf  Hf27      1.0  0.55418  0.89510  0.12036  1.0000
  Hf  Hf28      1.0  0.54895  0.88833  0.63587  1.0000
  Hf  Hf29      1.0  0.80100  0.38913  0.12250  1.0000
  Hf  Hf30      1.0  0.80333  0.39764  0.62970  1.0000
  Hf  Hf31      1.0  0.80013  0.89634  0.12693  1.0000
  Hf  Hf32      1.0  0.80537  0.89561  0.61730  1.0000
  Hf  Hf33      1.0  0.05797  0.18947  0.40835  1.0000
  Hf  Hf34      1.0  0.05337  0.18508  0.91772  1.0000
  Hf  Hf35      1.0  0.05791  0.67672  0.42005  1.0000
  Hf  Hf36      1.0  0.05509  0.68393  0.91981  1.0000
  Hf  Hf37      1.0  0.30532  0.18078  0.41289  1.0000
  Hf  Hf38      1.0  0.30766  0.18519  0.91234  1.0000
  Hf  Hf39      1.0  0.30701  0.67411  0.41924  1.0000
  Hf  Hf40      1.0  0.30496  0.68168  0.92022  1.0000
  Hf  Hf41      1.0  0.55510  0.17495  0.41701  1.0000
  Hf  Hf42      1.0  0.55995  0.17898  0.90651  1.0000
  Hf  Hf43      1.0  0.55899  0.69137  0.40795  1.0000
  Hf  Hf44      1.0  0.55498  0.67593  0.91797  1.0000
  Hf  Hf45      1.0  0.80792  0.18968  0.40942  1.0000
  Hf  Hf46      1.0  0.80377  0.18207  0.92074  1.0000
  Hf  Hf47      1.0  0.80914  0.68882  0.41008  1.0000
  Hf  Hf48      1.0  0.80415  0.68417  0.91517  1.0000
  Hf  Hf49      1.0  0.16178  0.39030  0.32853  1.0000
  Hf  Hf50      1.0  0.15866  0.39128  0.82947  1.0000
  Hf  Hf51      1.0  0.15744  0.88357  0.33606  1.0000
  Hf  Hf52      1.0  0.15525  0.88943  0.84380  1.0000
  Hf  Hf53      1.0  0.40675  0.37782  0.33965  1.0000
  Hf  Hf54      1.0  0.41066  0.38962  0.82887  1.0000
  Hf  Hf55      1.0  0.41057  0.87770  0.33768  1.0000
  Hf  Hf56      1.0  0.40482  0.88720  0.83112  1.0000
  Hf  Hf57      1.0  0.65167  0.39084  0.33945  1.0000
  Hf  Hf58      1.0  0.65867  0.38709  0.83333  1.0000
  Hf  Hf59      1.0  0.66138  0.89001  0.32760  1.0000
  Hf  Hf60      1.0  0.65389  0.88039  0.83981  1.0000
  Hf  Hf61      1.0  0.90732  0.38487  0.33963  1.0000
  Hf  Hf62      1.0  0.90830  0.38547  0.83587  1.0000
  Hf  Hf63      1.0  0.90994  0.88926  0.33655  1.0000
  Hf  Hf64      1.0  0.90461  0.89083  0.84143  1.0000
  Hf  Hf65      1.0  0.19374  0.31724  0.08311  1.0000
  Hf  Hf66      1.0  0.19705  0.31235  0.57800  1.0000
  Hf  Hf67      1.0  0.19482  0.82468  0.08581  1.0000
  Hf  Hf68      1.0  0.19444  0.81804  0.58513  1.0000
  Hf  Hf69      1.0  0.44733  0.31144  0.07937  1.0000
  Hf  Hf70      1.0  0.44752  0.33677  0.56581  1.0000
  Hf  Hf71      1.0  0.44850  0.82437  0.07499  1.0000
  Hf  Hf72      1.0  0.44154  0.81426  0.58776  1.0000
  Hf  Hf73      1.0  0.69225  0.32347  0.07882  1.0000
  Hf  Hf74      1.0  0.69580  0.31634  0.58742  1.0000
  Hf  Hf75      1.0  0.69766  0.81931  0.07423  1.0000
  Hf  Hf76      1.0  0.69679  0.81966  0.58007  1.0000
  Hf  Hf77      1.0  0.94466  0.32092  0.08302  1.0000
  Hf  Hf78      1.0  0.94646  0.32225  0.57938  1.0000
  Hf  Hf79      1.0  0.94089  0.81785  0.08925  1.0000
  Hf  Hf80      1.0  0.94068  0.81687  0.58501  1.0000
  Hf  Hf81      1.0  0.08913  0.11412  0.16842  1.0000
  Hf  Hf82      1.0  0.08314  0.10169  0.68181  1.0000
  Hf  Hf83      1.0  0.09089  0.60340  0.17447  1.0000
  Hf  Hf84      1.0  0.09276  0.61619  0.66832  1.0000
  Hf  Hf85      1.0  0.33929  0.10242  0.17671  1.0000
  Hf  Hf86      1.0  0.34297  0.11189  0.65919  1.0000
  Hf  Hf87      1.0  0.34702  0.61246  0.16387  1.0000
  Hf  Hf88      1.0  0.33977  0.60615  0.67586  1.0000
  Hf  Hf89      1.0  0.59405  0.10320  0.16745  1.0000
  Hf  Hf90      1.0  0.58570  0.12138  0.66315  1.0000
  Hf  Hf91      1.0  0.59453  0.61302  0.16171  1.0000
  Hf  Hf92      1.0  0.59287  0.61939  0.66562  1.0000
  Hf  Hf93      1.0  0.83791  0.11778  0.16488  1.0000
  Hf  Hf94      1.0  0.84403  0.11427  0.66430  1.0000
  Hf  Hf95      1.0  0.83832  0.60832  0.17279  1.0000
  Hf  Hf96      1.0  0.84361  0.61118  0.66400  1.0000
  F   F1        1.0  0.07870  0.13749  0.29789  1.0000
  F   F2        1.0  0.07197  0.10637  0.83121  1.0000
  F   F3        1.0  0.08384  0.63324  0.29959  1.0000
  F   F4        1.0  0.08068  0.62816  0.79832  1.0000
  F   F5        1.0  0.32755  0.11072  0.32303  1.0000
  F   F6        1.0  0.33317  0.13839  0.79464  1.0000
  F   F7        1.0  0.32726  0.62353  0.30942  1.0000
  F   F8        1.0  0.33004  0.63438  0.80786  1.0000
  F   F9        1.0  0.58350  0.12412  0.30044  1.0000
  F   F10       1.0  0.57445  0.12230  0.80321  1.0000
  F   F11       1.0  0.59284  0.66422  0.26789  1.0000
  F   F12       1.0  0.58028  0.62145  0.80070  1.0000
  F   F13       1.0  0.83316  0.14505  0.28720  1.0000
  F   F14       1.0  0.83134  0.13073  0.80803  1.0000
  F   F15       1.0  0.82679  0.63652  0.30353  1.0000
  F   F16       1.0  0.82781  0.62728  0.80636  1.0000
  F   F17       1.0  0.18903  0.34338  0.44249  1.0000
  F   F18       1.0  0.18309  0.32876  0.95647  1.0000
  F   F19       1.0  0.18419  0.84516  0.45419  1.0000
  F   F20       1.0  0.18059  0.84278  0.95310  1.0000
  F   F21       1.0  0.43652  0.35502  0.44228  1.0000
  F   F22       1.0  0.42819  0.32583  0.95072  1.0000
  F   F23       1.0  0.43657  0.83428  0.44856  1.0000
  F   F24       1.0  0.43122  0.83686  0.94723  1.0000
  F   F25       1.0  0.67567  0.32686  0.45605  1.0000
  F   F26       1.0  0.68861  0.34023  0.93665  1.0000
  F   F27       1.0  0.69157  0.84412  0.44230  1.0000
  F   F28       1.0  0.69231  0.83666  0.93624  1.0000
  F   F29       1.0  0.94312  0.33721  0.43541  1.0000
  F   F30       1.0  0.93545  0.35382  0.93761  1.0000
  F   F31       1.0  0.94264  0.84210  0.44143  1.0000
  F   F32       1.0  0.93880  0.83680  0.94926  1.0000
  F   F33       1.0  0.17694  0.36621  0.19646  1.0000
  F   F34       1.0  0.16956  0.37294  0.69004  1.0000
  F   F35       1.0  0.17346  0.87112  0.19724  1.0000
  F   F36       1.0  0.16814  0.86792  0.70122  1.0000
  F   F37       1.0  0.42716  0.36800  0.18969  1.0000
  F   F38       1.0  0.42489  0.38440  0.68955  1.0000
  F   F39       1.0  0.42274  0.87163  0.19490  1.0000
  F   F40       1.0  0.42659  0.88444  0.68150  1.0000
  F   F41       1.0  0.66558  0.38691  0.20005  1.0000
  F   F42       1.0  0.67687  0.38132  0.69338  1.0000
  F   F43       1.0  0.67588  0.88822  0.18430  1.0000
  F   F44       1.0  0.67091  0.88386  0.68500  1.0000
  F   F45       1.0  0.92028  0.36455  0.19448  1.0000
  F   F46       1.0  0.92186  0.37683  0.68798  1.0000
  F   F47       1.0  0.91608  0.87766  0.19883  1.0000
  F   F48       1.0  0.92120  0.86780  0.69951  1.0000
  F   F49       1.0  0.06811  0.15251  0.05154  1.0000
  F   F50       1.0  0.06324  0.14989  0.56628  1.0000
  F   F51       1.0  0.06018  0.64732  0.05441  1.0000
  F   F52       1.0  0.06974  0.65282  0.54405  1.0000
  F   F53       1.0  0.31887  0.16856  0.05001  1.0000
  F   F54       1.0  0.31333  0.16517  0.54363  1.0000
  F   F55       1.0  0.31123  0.66901  0.04769  1.0000
  F   F56       1.0  0.32026  0.64910  0.55653  1.0000
  F   F57       1.0  0.56524  0.16565  0.04143  1.0000
  F   F58       1.0  0.55575  0.15221  0.55037  1.0000
  F   F59       1.0  0.56084  0.66124  0.05100  1.0000
  F   F60       1.0  0.57667  0.68595  0.53260  1.0000
  F   F61       1.0  0.81488  0.18306  0.04864  1.0000
  F   F62       1.0  0.81344  0.15138  0.56179  1.0000
  F   F63       1.0  0.80579  0.64844  0.06909  1.0000
  F   F64       1.0  0.81531  0.64945  0.55359  1.0000
  F   F65       1.0  0.20882  0.20179  0.20119  1.0000
  F   F66       1.0  0.20042  0.18800  0.70135  1.0000
  F   F67       1.0  0.21071  0.70196  0.21131  1.0000
  F   F68       1.0  0.20564  0.70210  0.72384  1.0000
  F   F69       1.0  0.45468  0.19988  0.21667  1.0000
  F   F70       1.0  0.45069  0.22624  0.69214  1.0000
  F   F71       1.0  0.45772  0.71612  0.21558  1.0000
  F   F72       1.0  0.45144  0.70414  0.71545  1.0000
  F   F73       1.0  0.70433  0.20437  0.19459  1.0000
  F   F74       1.0  0.70791  0.19839  0.71027  1.0000
  F   F75       1.0  0.70231  0.71120  0.21515  1.0000
  F   F76       1.0  0.70885  0.70385  0.71575  1.0000
  F   F77       1.0  0.94852  0.19329  0.20481  1.0000
  F   F78       1.0  0.95571  0.21193  0.70134  1.0000
  F   F79       1.0  0.94992  0.70583  0.21590  1.0000
  F   F80       1.0  0.95310  0.69970  0.71801  1.0000
  F   F81       1.0  0.14725  0.09560  0.03326  1.0000
  F   F82       1.0  0.15107  0.09696  0.52963  1.0000
  F   F83       1.0  0.14830  0.58963  0.04094  1.0000
  F   F84       1.0  0.15101  0.59498  0.54287  1.0000
  F   F85       1.0  0.39769  0.08984  0.04044  1.0000
  F   F86       1.0  0.39599  0.08653  0.52342  1.0000
  F   F87       1.0  0.40346  0.59330  0.04084  1.0000
  F   F88       1.0  0.39587  0.57486  0.57442  1.0000
  F   F89       1.0  0.64789  0.08607  0.04097  1.0000
  F   F90       1.0  0.64323  0.09615  0.54925  1.0000
  F   F91       1.0  0.65287  0.57212  0.04286  1.0000
  F   F92       1.0  0.64175  0.57630  0.54843  1.0000
  F   F93       1.0  0.89628  0.07870  0.04545  1.0000
  F   F94       1.0  0.89584  0.10310  0.52651  1.0000
  F   F95       1.0  0.89498  0.59876  0.05135  1.0000
  F   F96       1.0  0.90902  0.59813  0.53584  1.0000
  F   F97       1.0  0.15013  0.19473  0.12919  1.0000
  F   F98       1.0  0.13800  0.18411  0.64213  1.0000
  F   F99       1.0  0.15411  0.70822  0.13256  1.0000
  F   F100      1.0  0.15398  0.69485  0.62536  1.0000
  F   F101      1.0  0.40230  0.18497  0.13622  1.0000
  F   F102      1.0  0.40231  0.17612  0.62428  1.0000
  F   F103      1.0  0.40681  0.69341  0.13771  1.0000
  F   F104      1.0  0.39704  0.69795  0.62396  1.0000
  F   F105      1.0  0.64641  0.19879  0.12570  1.0000
  F   F106      1.0  0.64570  0.20410  0.64651  1.0000
  F   F107      1.0  0.65809  0.69018  0.10848  1.0000
  F   F108      1.0  0.65664  0.68701  0.62771  1.0000
  F   F109      1.0  0.89668  0.20568  0.11241  1.0000
  F   F110      1.0  0.90067  0.19764  0.62134  1.0000
  F   F111      1.0  0.89875  0.71162  0.12782  1.0000
  F   F112      1.0  0.89737  0.70740  0.62991  1.0000
  F   F113      1.0  0.09963  0.30319  0.36726  1.0000
  F   F114      1.0  0.09412  0.31897  0.88481  1.0000
  F   F115      1.0  0.10437  0.80015  0.36843  1.0000
  F   F116      1.0  0.09393  0.80553  0.89444  1.0000
  F   F117      1.0  0.34405  0.30875  0.37796  1.0000
  F   F118      1.0  0.34715  0.30826  0.86519  1.0000
  F   F119      1.0  0.34859  0.78465  0.38168  1.0000
  F   F120      1.0  0.35311  0.79552  0.85763  1.0000
  F   F121      1.0  0.60233  0.30166  0.38332  1.0000
  F   F122      1.0  0.60298  0.30326  0.85473  1.0000
  F   F123      1.0  0.59403  0.81158  0.37423  1.0000
  F   F124      1.0  0.59714  0.81055  0.86537  1.0000
  F   F125      1.0  0.84975  0.30304  0.38643  1.0000
  F   F126      1.0  0.85404  0.29743  0.86163  1.0000
  F   F127      1.0  0.84145  0.80426  0.37636  1.0000
  F   F128      1.0  0.84249  0.81041  0.89764  1.0000
  F   F129      1.0  0.06908  0.25253  0.13559  1.0000
  F   F130      1.0  0.05849  0.25414  0.65365  1.0000
  F   F131      1.0  0.07901  0.75575  0.11867  1.0000
  F   F132      1.0  0.06523  0.75716  0.63652  1.0000
  F   F133      1.0  0.31523  0.24583  0.14783  1.0000
  F   F134      1.0  0.31877  0.25217  0.62518  1.0000
  F   F135      1.0  0.32256  0.75031  0.13430  1.0000
  F   F136      1.0  0.30866  0.74052  0.66201  1.0000
  F   F137      1.0  0.56709  0.24460  0.13750  1.0000
  F   F138      1.0  0.56515  0.25799  0.62928  1.0000
  F   F139      1.0  0.56921  0.76398  0.12118  1.0000
  F   F140      1.0  0.56390  0.75700  0.64116  1.0000
  F   F141      1.0  0.79801  0.25498  0.16148  1.0000
  F   F142      1.0  0.81790  0.26123  0.64242  1.0000
  F   F143      1.0  0.81251  0.75062  0.15424  1.0000
  F   F144      1.0  0.82150  0.76058  0.61001  1.0000
  F   F145      1.0  0.12971  0.37546  0.11156  1.0000
  F   F146      1.0  0.12709  0.35897  0.60558  1.0000
  F   F147      1.0  0.12719  0.87660  0.11199  1.0000
  F   F148      1.0  0.11565  0.86729  0.62472  1.0000
  F   F149      1.0  0.37733  0.36169  0.11281  1.0000
  F   F150      1.0  0.37704  0.36149  0.60812  1.0000
  F   F151      1.0  0.38001  0.87322  0.09333  1.0000
  F   F152      1.0  0.36797  0.87370  0.60334  1.0000
  F   F153      1.0  0.62921  0.39059  0.08568  1.0000
  F   F154      1.0  0.62143  0.37634  0.62587  1.0000
  F   F155      1.0  0.62705  0.86258  0.10781  1.0000
  F   F156      1.0  0.62072  0.86081  0.62507  1.0000
  F   F157      1.0  0.87693  0.39602  0.08539  1.0000
  F   F158      1.0  0.87865  0.37612  0.59815  1.0000
  F   F159      1.0  0.87555  0.88749  0.09751  1.0000
  F   F160      1.0  0.87663  0.87483  0.61362  1.0000
  F   F161      1.0  0.18373  0.24507  0.36184  1.0000
  F   F162      1.0  0.18884  0.25092  0.84775  1.0000
  F   F163      1.0  0.18743  0.74827  0.36159  1.0000
  F   F164      1.0  0.17791  0.75173  0.86864  1.0000
  F   F165      1.0  0.42889  0.24805  0.37164  1.0000
  F   F166      1.0  0.43741  0.25446  0.84338  1.0000
  F   F167      1.0  0.43061  0.73922  0.37180  1.0000
  F   F168      1.0  0.43796  0.74868  0.85611  1.0000
  F   F169      1.0  0.68384  0.25184  0.33784  1.0000
  F   F170      1.0  0.68426  0.24892  0.85463  1.0000
  F   F171      1.0  0.68182  0.75044  0.36328  1.0000
  F   F172      1.0  0.67214  0.73047  0.89251  1.0000
  F   F173      1.0  0.93363  0.25004  0.34580  1.0000
  F   F174      1.0  0.94114  0.24082  0.86300  1.0000
  F   F175      1.0  0.92438  0.75178  0.36481  1.0000
  F   F176      1.0  0.93471  0.75160  0.85495  1.0000
  F   F177      1.0  0.12406  0.12424  0.39801  1.0000
  F   F178      1.0  0.12689  0.15448  0.88284  1.0000
  F   F179      1.0  0.13054  0.62298  0.40209  1.0000
  F   F180      1.0  0.12645  0.62431  0.89437  1.0000
  F   F181      1.0  0.37924  0.11912  0.38426  1.0000
  F   F182      1.0  0.37584  0.14495  0.88485  1.0000
  F   F183      1.0  0.37714  0.61707  0.39514  1.0000
  F   F184      1.0  0.37636  0.61292  0.91600  1.0000
  F   F185      1.0  0.62334  0.12765  0.40512  1.0000
  F   F186      1.0  0.63190  0.13099  0.87763  1.0000
  F   F187      1.0  0.62488  0.62273  0.39770  1.0000
  F   F188      1.0  0.62471  0.63833  0.88041  1.0000
  F   F189      1.0  0.87303  0.13187  0.39016  1.0000
  F   F190      1.0  0.87429  0.13856  0.89269  1.0000
  F   F191      1.0  0.87637  0.62793  0.40225  1.0000
  F   F192      1.0  0.87135  0.64191  0.89475  1.0000
  F   F193      1.0  0.00543  0.35947  0.07971  1.0000
  F   F194      1.0  0.01248  0.34921  0.56253  1.0000
  F   F195      1.0  0.01021  0.85226  0.09006  1.0000
  F   F196      1.0  0.00851  0.85807  0.57654  1.0000
  F   F197      1.0  0.26135  0.35510  0.07634  1.0000
  F   F198      1.0  0.25854  0.36556  0.56663  1.0000
  F   F199      1.0  0.25736  0.85835  0.09262  1.0000
  F   F200      1.0  0.25800  0.85997  0.57583  1.0000
  F   F201      1.0  0.50696  0.35352  0.07278  1.0000
  F   F202      1.0  0.51485  0.37664  0.54812  1.0000
  F   F203      1.0  0.51080  0.87127  0.05755  1.0000
  F   F204      1.0  0.50490  0.86381  0.57459  1.0000
  F   F205      1.0  0.74851  0.37554  0.07549  1.0000
  F   F206      1.0  0.76283  0.35764  0.57096  1.0000
  F   F207      1.0  0.76109  0.85529  0.06362  1.0000
  F   F208      1.0  0.75959  0.87037  0.55194  1.0000
  F   F209      1.0  0.06856  0.47964  0.18594  1.0000
  F   F210      1.0  0.06582  0.48937  0.67931  1.0000
  F   F211      1.0  0.06412  0.99274  0.18812  1.0000
  F   F212      1.0  0.06031  0.97456  0.69547  1.0000
  F   F213      1.0  0.31961  0.48867  0.17001  1.0000
  F   F214      1.0  0.31767  0.47673  0.67799  1.0000
  F   F215      1.0  0.32404  0.97991  0.18096  1.0000
  F   F216      1.0  0.31455  0.98694  0.68622  1.0000
  F   F217      1.0  0.56332  0.48618  0.17265  1.0000
  F   F218      1.0  0.56457  0.49686  0.67468  1.0000
  F   F219      1.0  0.57209  0.98234  0.16739  1.0000
  F   F220      1.0  0.56140  0.99797  0.67414  1.0000
  F   F221      1.0  0.81437  0.48384  0.17936  1.0000
  F   F222      1.0  0.82206  0.47492  0.69110  1.0000
  F   F223      1.0  0.81089  0.99291  0.16851  1.0000
  F   F224      1.0  0.81330  0.97964  0.67955  1.0000
  F   F225      1.0  0.24473  0.13067  0.43426  1.0000
  F   F226      1.0  0.24882  0.13485  0.92456  1.0000
  F   F227      1.0  0.24651  0.62943  0.43458  1.0000
  F   F228      1.0  0.24494  0.63956  0.92430  1.0000
  F   F229      1.0  0.49369  0.13395  0.42694  1.0000
  F   F230      1.0  0.49070  0.13336  0.93449  1.0000
  F   F231      1.0  0.49414  0.63342  0.41411  1.0000
  F   F232      1.0  0.49560  0.62210  0.93106  1.0000
  F   F233      1.0  0.74102  0.14275  0.41593  1.0000
  F   F234      1.0  0.74388  0.13682  0.92419  1.0000
  F   F235      1.0  0.74049  0.63593  0.43185  1.0000
  F   F236      1.0  0.74603  0.62747  0.91866  1.0000
  F   F237      1.0  0.99415  0.14131  0.41101  1.0000
  F   F238      1.0  0.99006  0.12736  0.95399  1.0000
  F   F239      1.0  0.99365  0.65925  0.40683  1.0000
  F   F240      1.0  0.98730  0.63128  0.93026  1.0000
  F   F241      1.0  0.18629  0.00937  0.32321  1.0000
  F   F242      1.0  0.17903  0.01136  0.83779  1.0000
  F   F243      1.0  0.19101  0.50689  0.31957  1.0000
  F   F244      1.0  0.17987  0.50416  0.84095  1.0000
  F   F245      1.0  0.43829  0.00092  0.32311  1.0000
  F   F246      1.0  0.42250  0.01119  0.84686  1.0000
  F   F247      1.0  0.43998  0.52897  0.30452  1.0000
  F   F248      1.0  0.43308  0.51662  0.82486  1.0000
  F   F249      1.0  0.68236  0.01936  0.30472  1.0000
  F   F250      1.0  0.68833  0.99984  0.81268  1.0000
  F   F251      1.0  0.68093  0.50848  0.31299  1.0000
  F   F252      1.0  0.67749  0.52078  0.81204  1.0000
  F   F253      1.0  0.92578  0.01348  0.33109  1.0000
  F   F254      1.0  0.93383  0.02110  0.83938  1.0000
  F   F255      1.0  0.93236  0.51721  0.32734  1.0000
  F   F256      1.0  0.93376  0.52515  0.80595  1.0000
  F   F257      1.0  0.99684  0.24806  0.99907  1.0000
  F   F258      1.0  0.99598  0.21812  0.51233  1.0000
  F   F259      1.0  0.99853  0.73765  0.01021  1.0000
  F   F260      1.0  0.99464  0.73110  0.51482  1.0000
  F   F261      1.0  0.25024  0.24540  0.99623  1.0000
  F   F262      1.0  0.25098  0.26035  0.47742  1.0000
  F   F263      1.0  0.25236  0.77348  0.98432  1.0000
  F   F264      1.0  0.24711  0.74040  0.51022  1.0000
  F   F265      1.0  0.50360  0.26221  0.97575  1.0000
  F   F266      1.0  0.50077  0.26488  0.47834  1.0000
  F   F267      1.0  0.49281  0.75279  0.99621  1.0000
  F   F268      1.0  0.50010  0.74767  0.50819  1.0000
  F   F269      1.0  0.74948  0.24426  0.00904  1.0000
  F   F270      1.0  0.75159  0.25973  0.48571  1.0000
  F   F271      1.0  0.74730  0.73258  0.00399  1.0000
  F   F272      1.0  0.75021  0.73408  0.51055  1.0000
  F   F273      1.0  0.12917  0.00565  0.24088  1.0000
  F   F274      1.0  0.11860  0.99085  0.76281  1.0000
  F   F275      1.0  0.13308  0.50832  0.23704  1.0000
  F   F276      1.0  0.12766  0.50376  0.74910  1.0000
  F   F277      1.0  0.37864  0.98498  0.25897  1.0000
  F   F278      1.0  0.37096  0.99533  0.75324  1.0000
  F   F279      1.0  0.37925  0.50074  0.24639  1.0000
  F   F280      1.0  0.36756  0.49895  0.77597  1.0000
  F   F281      1.0  0.62043  0.98573  0.26213  1.0000
  F   F282      1.0  0.61345  0.98918  0.77284  1.0000
  F   F283      1.0  0.60854  0.49973  0.27545  1.0000
  F   F284      1.0  0.62049  0.49667  0.74805  1.0000
  F   F285      1.0  0.86615  0.99139  0.26619  1.0000
  F   F286      1.0  0.88348  0.00586  0.73632  1.0000
  F   F287      1.0  0.88027  0.51060  0.24957  1.0000
  F   F288      1.0  0.87474  0.49647  0.75391  1.0000
  F   F289      1.0  0.04485  0.02635  0.02830  1.0000
  F   F290      1.0  0.04071  0.03002  0.53401  1.0000
  F   F291      1.0  0.04412  0.52876  0.00729  1.0000
  F   F292      1.0  0.04076  0.52637  0.51975  1.0000
  F   F293      1.0  0.30167  0.03046  0.02485  1.0000
  F   F294      1.0  0.29883  0.02513  0.52370  1.0000
  F   F295      1.0  0.29828  0.53323  0.01167  1.0000
  F   F296      1.0  0.28531  0.53243  0.53634  1.0000
  F   F297      1.0  0.53838  0.03099  0.02230  1.0000
  F   F298      1.0  0.54460  0.01389  0.52629  1.0000
  F   F299      1.0  0.54830  0.52725  0.02092  1.0000
  F   F300      1.0  0.53589  0.55233  0.51983  1.0000
  F   F301      1.0  0.78654  0.03453  0.02140  1.0000
  F   F302      1.0  0.78893  0.03413  0.52507  1.0000
  F   F303      1.0  0.79187  0.52807  0.01988  1.0000
  F   F304      1.0  0.79916  0.52884  0.51890  1.0000
  F   F305      1.0  0.23923  0.41501  0.22405  1.0000
  F   F306      1.0  0.23269  0.41308  0.73549  1.0000
  F   F307      1.0  0.24159  0.89775  0.25119  1.0000
  F   F308      1.0  0.22986  0.92864  0.71288  1.0000
  F   F309      1.0  0.48898  0.40160  0.23077  1.0000
  F   F310      1.0  0.48410  0.42299  0.72529  1.0000
  F   F311      1.0  0.48482  0.91623  0.21092  1.0000
  F   F312      1.0  0.48299  0.91708  0.73134  1.0000
  F   F313      1.0  0.73785  0.40418  0.22667  1.0000
  F   F314      1.0  0.73558  0.41279  0.72949  1.0000
  F   F315      1.0  0.73709  0.90357  0.22657  1.0000
  F   F316      1.0  0.73673  0.88025  0.72175  1.0000
  F   F317      1.0  0.98722  0.41204  0.21975  1.0000
  F   F318      1.0  0.98727  0.40943  0.71662  1.0000
  F   F319      1.0  0.97912  0.93532  0.22267  1.0000
  F   F320      1.0  0.98259  0.92120  0.73081  1.0000
  F   F321      1.0  0.20685  0.46495  0.47917  1.0000
  F   F322      1.0  0.21399  0.47357  0.98393  1.0000
  F   F323      1.0  0.21186  0.96502  0.48738  1.0000
  F   F324      1.0  0.21520  0.97158  0.96694  1.0000
  F   F325      1.0  0.45776  0.47678  0.47778  1.0000
  F   F326      1.0  0.45822  0.45733  0.96378  1.0000
  F   F327      1.0  0.45854  0.96061  0.47336  1.0000
  F   F328      1.0  0.46564  0.97478  0.95846  1.0000
  F   F329      1.0  0.70081  0.46674  0.46889  1.0000
  F   F330      1.0  0.72276  0.46832  0.94254  1.0000
  F   F331      1.0  0.68989  0.97184  0.48048  1.0000
  F   F332      1.0  0.70989  0.97541  0.96049  1.0000
  F   F333      1.0  0.96430  0.47571  0.47096  1.0000
  F   F334      1.0  0.96064  0.46844  0.98172  1.0000
  F   F335      1.0  0.95229  0.96650  0.48080  1.0000
  F   F336      1.0  0.96514  0.96252  0.98145  1.0000
  F   F337      1.0  0.00983  0.09045  0.27178  1.0000
  F   F338      1.0  0.01257  0.10205  0.77736  1.0000
  F   F339      1.0  0.02116  0.60304  0.25498  1.0000
  F   F340      1.0  0.01311  0.58516  0.77992  1.0000
  F   F341      1.0  0.26677  0.08300  0.28444  1.0000
  F   F342      1.0  0.27005  0.09813  0.77118  1.0000
  F   F343      1.0  0.26833  0.59546  0.27550  1.0000
  F   F344      1.0  0.26408  0.57773  0.78020  1.0000
  F   F345      1.0  0.51923  0.07228  0.26494  1.0000
  F   F346      1.0  0.50976  0.10545  0.76610  1.0000
  F   F347      1.0  0.52538  0.58661  0.26601  1.0000
  F   F348      1.0  0.51486  0.60130  0.76969  1.0000
  F   F349      1.0  0.76690  0.09071  0.26009  1.0000
  F   F350      1.0  0.76828  0.08824  0.77482  1.0000
  F   F351      1.0  0.75951  0.58123  0.28016  1.0000
  F   F352      1.0  0.76687  0.58568  0.75712  1.0000
  F   F353      1.0  0.10313  0.40278  0.45956  1.0000
  F   F354      1.0  0.10375  0.41099  0.96996  1.0000
  F   F355      1.0  0.10134  0.91551  0.44772  1.0000
  F   F356      1.0  0.09491  0.91916  0.96173  1.0000
  F   F357      1.0  0.35248  0.41607  0.45911  1.0000
  F   F358      1.0  0.34806  0.41327  0.96306  1.0000
  F   F359      1.0  0.35428  0.89728  0.45504  1.0000
  F   F360      1.0  0.34302  0.89918  0.96355  1.0000
  F   F361      1.0  0.60130  0.43388  0.46326  1.0000
  F   F362      1.0  0.60179  0.39651  0.95904  1.0000
  F   F363      1.0  0.60916  0.89814  0.45943  1.0000
  F   F364      1.0  0.60507  0.89987  0.96085  1.0000
  F   F365      1.0  0.85646  0.40771  0.45827  1.0000
  F   F366      1.0  0.84642  0.39378  0.95883  1.0000
  F   F367      1.0  0.85029  0.91650  0.46613  1.0000
  F   F368      1.0  0.85441  0.93116  0.94824  1.0000
  F   F369      1.0  0.04918  0.30011  0.28427  1.0000
  F   F370      1.0  0.04683  0.29345  0.79353  1.0000
  F   F371      1.0  0.04478  0.79982  0.28888  1.0000
  F   F372      1.0  0.03980  0.79172  0.80092  1.0000
  F   F373      1.0  0.29794  0.29637  0.28912  1.0000
  F   F374      1.0  0.29242  0.29548  0.77601  1.0000
  F   F375      1.0  0.30366  0.78118  0.28511  1.0000
  F   F376      1.0  0.28723  0.80287  0.79191  1.0000
  F   F377      1.0  0.55470  0.29850  0.27453  1.0000
  F   F378      1.0  0.54250  0.29298  0.78811  1.0000
  F   F379      1.0  0.53977  0.79829  0.29515  1.0000
  F   F380      1.0  0.53929  0.78783  0.79896  1.0000
  F   F381      1.0  0.80823  0.30460  0.28191  1.0000
  F   F382      1.0  0.78563  0.29897  0.80176  1.0000
  F   F383      1.0  0.78976  0.80377  0.29367  1.0000
  F   F384      1.0  0.79934  0.78843  0.78099  1.0000
