data_image0
_chemical_formula_structural       Hf96F384
_chemical_formula_sum              "Hf96 F384"
_cell_length_a       31.0155
_cell_length_b       15.5074
_cell_length_c       15.4973
_cell_angle_alpha    63.342
_cell_angle_beta     63.342
_cell_angle_gamma    80.1625

_space_group_name_H-M_alt    "P 1"
_space_group_IT_number       1

loop_
  _space_group_symop_operation_xyz
  'x, y, z'

loop_
  _atom_site_type_symbol
  _atom_site_label
  _atom_site_symmetry_multiplicity
  _atom_site_fract_x
  _atom_site_fract_y
  _atom_site_fract_z
  _atom_site_occupancy
  Hf  Hf1       1.0  0.19809  0.10930  0.37497  1.0000
  Hf  Hf2       1.0  0.19482  0.10766  0.87591  1.0000
  Hf  Hf3       1.0  0.19612  0.60469  0.37786  1.0000
  Hf  Hf4       1.0  0.19837  0.60526  0.87373  1.0000
  Hf  Hf5       1.0  0.44721  0.11242  0.36667  1.0000
  Hf  Hf6       1.0  0.44852  0.10199  0.87231  1.0000
  Hf  Hf7       1.0  0.44985  0.61543  0.36077  1.0000
  Hf  Hf8       1.0  0.44281  0.60985  0.87930  1.0000
  Hf  Hf9       1.0  0.70014  0.11011  0.36567  1.0000
  Hf  Hf10      1.0  0.69521  0.09927  0.88153  1.0000
  Hf  Hf11      1.0  0.69065  0.59531  0.38709  1.0000
  Hf  Hf12      1.0  0.69651  0.60749  0.87363  1.0000
  Hf  Hf13      1.0  0.94491  0.10770  0.38285  1.0000
  Hf  Hf14      1.0  0.94844  0.10584  0.87073  1.0000
  Hf  Hf15      1.0  0.94385  0.60777  0.37763  1.0000
  Hf  Hf16      1.0  0.94943  0.60391  0.87436  1.0000
  Hf  Hf17      1.0  0.05209  0.39626  0.12777  1.0000
  Hf  Hf18      1.0  0.05512  0.39653  0.61810  1.0000
  Hf  Hf19      1.0  0.05351  0.89619  0.11927  1.0000
  Hf  Hf20      1.0  0.05552  0.88998  0.62335  1.0000
  Hf  Hf21      1.0  0.30385  0.38637  0.12207  1.0000
  Hf  Hf22      1.0  0.30284  0.39484  0.62219  1.0000
  Hf  Hf23      1.0  0.30564  0.89128  0.12408  1.0000
  Hf  Hf24      1.0  0.30592  0.89354  0.62464  1.0000
  Hf  Hf25      1.0  0.55235  0.38807  0.12733  1.0000
  Hf  Hf26      1.0  0.55213  0.38936  0.62646  1.0000
  Hf  Hf27      1.0  0.55052  0.88770  0.14072  1.0000
  Hf  Hf28      1.0  0.55519  0.89188  0.62499  1.0000
  Hf  Hf29      1.0  0.80207  0.39157  0.12560  1.0000
  Hf  Hf30      1.0  0.80142  0.38625  0.63608  1.0000
  Hf  Hf31      1.0  0.80465  0.89329  0.12235  1.0000
  Hf  Hf32      1.0  0.79908  0.88513  0.63732  1.0000
  Hf  Hf33      1.0  0.05958  0.18555  0.41063  1.0000
  Hf  Hf34      1.0  0.05687  0.18818  0.90995  1.0000
  Hf  Hf35      1.0  0.05457  0.69091  0.41482  1.0000
  Hf  Hf36      1.0  0.05800  0.68526  0.90938  1.0000
  Hf  Hf37      1.0  0.30731  0.19147  0.41075  1.0000
  Hf  Hf38      1.0  0.30422  0.17490  0.92127  1.0000
  Hf  Hf39      1.0  0.30729  0.68209  0.42119  1.0000
  Hf  Hf40      1.0  0.30555  0.68449  0.91879  1.0000
  Hf  Hf41      1.0  0.55468  0.18114  0.42353  1.0000
  Hf  Hf42      1.0  0.55551  0.17879  0.91455  1.0000
  Hf  Hf43      1.0  0.55202  0.67653  0.43031  1.0000
  Hf  Hf44      1.0  0.55666  0.68590  0.91775  1.0000
  Hf  Hf45      1.0  0.80192  0.17703  0.42087  1.0000
  Hf  Hf46      1.0  0.80725  0.18704  0.91519  1.0000
  Hf  Hf47      1.0  0.80533  0.68090  0.42035  1.0000
  Hf  Hf48      1.0  0.80323  0.67856  0.92405  1.0000
  Hf  Hf49      1.0  0.16387  0.40162  0.31710  1.0000
  Hf  Hf50      1.0  0.15717  0.38569  0.83890  1.0000
  Hf  Hf51      1.0  0.16044  0.89471  0.32771  1.0000
  Hf  Hf52      1.0  0.15700  0.88842  0.82878  1.0000
  Hf  Hf53      1.0  0.40868  0.39163  0.32728  1.0000
  Hf  Hf54      1.0  0.41026  0.38202  0.83035  1.0000
  Hf  Hf55      1.0  0.40400  0.89033  0.34380  1.0000
  Hf  Hf56      1.0  0.41057  0.89839  0.82832  1.0000
  Hf  Hf57      1.0  0.66110  0.38275  0.33308  1.0000
  Hf  Hf58      1.0  0.65559  0.39261  0.83273  1.0000
  Hf  Hf59      1.0  0.66080  0.89157  0.32954  1.0000
  Hf  Hf60      1.0  0.65477  0.88202  0.84250  1.0000
  Hf  Hf61      1.0  0.90451  0.39122  0.33648  1.0000
  Hf  Hf62      1.0  0.91220  0.39039  0.82878  1.0000
  Hf  Hf63      1.0  0.90443  0.88407  0.34571  1.0000
  Hf  Hf64      1.0  0.91169  0.88542  0.83151  1.0000
  Hf  Hf65      1.0  0.19052  0.30800  0.08852  1.0000
  Hf  Hf66      1.0  0.19509  0.32187  0.57549  1.0000
  Hf  Hf67      1.0  0.19382  0.82715  0.07550  1.0000
  Hf  Hf68      1.0  0.19397  0.82293  0.58029  1.0000
  Hf  Hf69      1.0  0.44545  0.32456  0.07442  1.0000
  Hf  Hf70      1.0  0.44911  0.32751  0.57671  1.0000
  Hf  Hf71      1.0  0.44395  0.81534  0.08447  1.0000
  Hf  Hf72      1.0  0.44559  0.81233  0.58804  1.0000
  Hf  Hf73      1.0  0.69694  0.32672  0.07461  1.0000
  Hf  Hf74      1.0  0.69056  0.31288  0.59329  1.0000
  Hf  Hf75      1.0  0.69305  0.81375  0.08523  1.0000
  Hf  Hf76      1.0  0.69413  0.80824  0.58440  1.0000
  Hf  Hf77      1.0  0.94389  0.31184  0.08974  1.0000
  Hf  Hf78      1.0  0.94760  0.31241  0.58084  1.0000
  Hf  Hf79      1.0  0.94060  0.81847  0.08724  1.0000
  Hf  Hf80      1.0  0.94558  0.82105  0.58484  1.0000
  Hf  Hf81      1.0  0.08554  0.10765  0.17405  1.0000
  Hf  Hf82      1.0  0.09048  0.11465  0.66206  1.0000
  Hf  Hf83      1.0  0.09151  0.62276  0.15964  1.0000
  Hf  Hf84      1.0  0.09321  0.61202  0.66138  1.0000
  Hf  Hf85      1.0  0.34368  0.11362  0.16270  1.0000
  Hf  Hf86      1.0  0.34112  0.11704  0.66058  1.0000
  Hf  Hf87      1.0  0.33751  0.61041  0.17368  1.0000
  Hf  Hf88      1.0  0.34264  0.61224  0.66361  1.0000
  Hf  Hf89      1.0  0.59397  0.11000  0.16687  1.0000
  Hf  Hf90      1.0  0.58966  0.10700  0.67045  1.0000
  Hf  Hf91      1.0  0.59114  0.60202  0.17453  1.0000
  Hf  Hf92      1.0  0.58636  0.60847  0.67719  1.0000
  Hf  Hf93      1.0  0.84613  0.11476  0.15992  1.0000
  Hf  Hf94      1.0  0.83893  0.09997  0.67253  1.0000
  Hf  Hf95      1.0  0.84151  0.61849  0.16145  1.0000
  Hf  Hf96      1.0  0.83926  0.60934  0.67219  1.0000
  F   F1        1.0  0.08028  0.14601  0.28945  1.0000
  F   F2        1.0  0.08194  0.11315  0.80286  1.0000
  F   F3        1.0  0.08319  0.64694  0.29073  1.0000
  F   F4        1.0  0.08236  0.62639  0.79187  1.0000
  F   F5        1.0  0.33249  0.14671  0.28890  1.0000
  F   F6        1.0  0.33354  0.12680  0.79385  1.0000
  F   F7        1.0  0.33069  0.64009  0.29371  1.0000
  F   F8        1.0  0.33077  0.62782  0.80865  1.0000
  F   F9        1.0  0.57772  0.12482  0.31243  1.0000
  F   F10       1.0  0.57949  0.12742  0.80280  1.0000
  F   F11       1.0  0.57750  0.63163  0.31386  1.0000
  F   F12       1.0  0.57188  0.61708  0.82324  1.0000
  F   F13       1.0  0.83308  0.14143  0.28992  1.0000
  F   F14       1.0  0.83087  0.14323  0.79455  1.0000
  F   F15       1.0  0.82260  0.62421  0.31960  1.0000
  F   F16       1.0  0.82710  0.62604  0.81722  1.0000
  F   F17       1.0  0.18495  0.35144  0.43943  1.0000
  F   F18       1.0  0.18198  0.33629  0.95837  1.0000
  F   F19       1.0  0.18443  0.84057  0.44871  1.0000
  F   F20       1.0  0.18371  0.85310  0.94035  1.0000
  F   F21       1.0  0.43381  0.34153  0.44430  1.0000
  F   F22       1.0  0.44407  0.34553  0.93001  1.0000
  F   F23       1.0  0.43061  0.83344  0.45472  1.0000
  F   F24       1.0  0.43339  0.84621  0.94721  1.0000
  F   F25       1.0  0.68192  0.33202  0.45914  1.0000
  F   F26       1.0  0.68191  0.34002  0.94660  1.0000
  F   F27       1.0  0.68805  0.83803  0.44528  1.0000
  F   F28       1.0  0.69288  0.85337  0.93344  1.0000
  F   F29       1.0  0.94304  0.34254  0.44046  1.0000
  F   F30       1.0  0.93600  0.33628  0.94630  1.0000
  F   F31       1.0  0.93649  0.83681  0.44460  1.0000
  F   F32       1.0  0.93167  0.82344  0.95504  1.0000
  F   F33       1.0  0.17030  0.37385  0.18456  1.0000
  F   F34       1.0  0.16650  0.35945  0.69928  1.0000
  F   F35       1.0  0.17201  0.88687  0.18708  1.0000
  F   F36       1.0  0.18390  0.88021  0.67867  1.0000
  F   F37       1.0  0.42299  0.38136  0.18567  1.0000
  F   F38       1.0  0.42125  0.37822  0.69543  1.0000
  F   F39       1.0  0.42071  0.86665  0.19688  1.0000
  F   F40       1.0  0.42653  0.88478  0.68667  1.0000
  F   F41       1.0  0.67483  0.36987  0.19394  1.0000
  F   F42       1.0  0.66465  0.36920  0.70236  1.0000
  F   F43       1.0  0.66841  0.86228  0.20405  1.0000
  F   F44       1.0  0.66989  0.86582  0.69346  1.0000
  F   F45       1.0  0.91672  0.36915  0.20266  1.0000
  F   F46       1.0  0.92431  0.36255  0.69232  1.0000
  F   F47       1.0  0.91389  0.87547  0.19854  1.0000
  F   F48       1.0  0.92024  0.87741  0.69058  1.0000
  F   F49       1.0  0.06063  0.15925  0.04885  1.0000
  F   F50       1.0  0.07580  0.16610  0.53642  1.0000
  F   F51       1.0  0.06819  0.67609  0.04665  1.0000
  F   F52       1.0  0.05884  0.65975  0.55412  1.0000
  F   F53       1.0  0.31487  0.14981  0.05313  1.0000
  F   F54       1.0  0.30912  0.16132  0.55404  1.0000
  F   F55       1.0  0.31072  0.66125  0.05285  1.0000
  F   F56       1.0  0.31427  0.66103  0.55392  1.0000
  F   F57       1.0  0.56718  0.15856  0.05729  1.0000
  F   F58       1.0  0.55598  0.15793  0.56487  1.0000
  F   F59       1.0  0.56542  0.65386  0.05910  1.0000
  F   F60       1.0  0.55685  0.64647  0.57109  1.0000
  F   F61       1.0  0.81669  0.15687  0.05249  1.0000
  F   F62       1.0  0.80476  0.15025  0.56066  1.0000
  F   F63       1.0  0.81867  0.66595  0.04488  1.0000
  F   F64       1.0  0.81901  0.65834  0.55649  1.0000
  F   F65       1.0  0.20587  0.19449  0.20944  1.0000
  F   F66       1.0  0.20765  0.20267  0.69325  1.0000
  F   F67       1.0  0.19783  0.70562  0.21078  1.0000
  F   F68       1.0  0.19670  0.71045  0.70985  1.0000
  F   F69       1.0  0.45379  0.21202  0.19670  1.0000
  F   F70       1.0  0.46333  0.20753  0.72405  1.0000
  F   F71       1.0  0.46227  0.69842  0.20735  1.0000
  F   F72       1.0  0.46115  0.71624  0.70409  1.0000
  F   F73       1.0  0.71447  0.20252  0.18922  1.0000
  F   F74       1.0  0.70774  0.19121  0.70833  1.0000
  F   F75       1.0  0.69582  0.69131  0.22794  1.0000
  F   F76       1.0  0.71068  0.69847  0.71765  1.0000
  F   F77       1.0  0.95518  0.19969  0.21182  1.0000
  F   F78       1.0  0.95728  0.19855  0.71224  1.0000
  F   F79       1.0  0.95945  0.70807  0.19667  1.0000
  F   F80       1.0  0.95467  0.70097  0.70235  1.0000
  F   F81       1.0  0.14745  0.10281  0.03388  1.0000
  F   F82       1.0  0.14936  0.08557  0.53202  1.0000
  F   F83       1.0  0.15175  0.60687  0.02232  1.0000
  F   F84       1.0  0.15163  0.58266  0.53631  1.0000
  F   F85       1.0  0.39776  0.08347  0.04041  1.0000
  F   F86       1.0  0.40008  0.11253  0.52757  1.0000
  F   F87       1.0  0.39912  0.60079  0.03557  1.0000
  F   F88       1.0  0.39711  0.59877  0.53808  1.0000
  F   F89       1.0  0.64755  0.08024  0.04399  1.0000
  F   F90       1.0  0.64601  0.10343  0.54098  1.0000
  F   F91       1.0  0.64822  0.58117  0.03586  1.0000
  F   F92       1.0  0.64562  0.59238  0.54958  1.0000
  F   F93       1.0  0.90159  0.09452  0.03923  1.0000
  F   F94       1.0  0.89786  0.07112  0.55180  1.0000
  F   F95       1.0  0.90240  0.62537  0.02877  1.0000
  F   F96       1.0  0.90100  0.58423  0.53087  1.0000
  F   F97       1.0  0.14999  0.18539  0.13878  1.0000
  F   F98       1.0  0.15557  0.20160  0.60218  1.0000
  F   F99       1.0  0.15036  0.70811  0.10934  1.0000
  F   F100      1.0  0.15219  0.69839  0.61401  1.0000
  F   F101      1.0  0.40510  0.20874  0.10100  1.0000
  F   F102      1.0  0.41355  0.20196  0.63246  1.0000
  F   F103      1.0  0.40235  0.69765  0.13737  1.0000
  F   F104      1.0  0.40705  0.68821  0.63512  1.0000
  F   F105      1.0  0.65173  0.19260  0.12749  1.0000
  F   F106      1.0  0.64950  0.19964  0.63460  1.0000
  F   F107      1.0  0.64591  0.69251  0.12799  1.0000
  F   F108      1.0  0.64927  0.68452  0.64776  1.0000
  F   F109      1.0  0.90790  0.18475  0.12674  1.0000
  F   F110      1.0  0.89961  0.18554  0.62741  1.0000
  F   F111      1.0  0.89429  0.69602  0.15034  1.0000
  F   F112      1.0  0.89973  0.68495  0.62832  1.0000
  F   F113      1.0  0.10194  0.30770  0.35439  1.0000
  F   F114      1.0  0.09485  0.31310  0.87752  1.0000
  F   F115      1.0  0.10286  0.79955  0.38312  1.0000
  F   F116      1.0  0.09963  0.81353  0.85675  1.0000
  F   F117      1.0  0.35157  0.30301  0.37819  1.0000
  F   F118      1.0  0.34473  0.30137  0.86991  1.0000
  F   F119      1.0  0.34826  0.80559  0.39038  1.0000
  F   F120      1.0  0.34940  0.81677  0.86540  1.0000
  F   F121      1.0  0.60090  0.29632  0.38795  1.0000
  F   F122      1.0  0.59998  0.30415  0.88144  1.0000
  F   F123      1.0  0.59354  0.80914  0.38309  1.0000
  F   F124      1.0  0.59514  0.80870  0.88892  1.0000
  F   F125      1.0  0.84325  0.29252  0.36664  1.0000
  F   F126      1.0  0.85349  0.30752  0.87025  1.0000
  F   F127      1.0  0.84678  0.79908  0.38389  1.0000
  F   F128      1.0  0.85326  0.79586  0.87662  1.0000
  F   F129      1.0  0.05851  0.24776  0.14539  1.0000
  F   F130      1.0  0.07216  0.25840  0.62745  1.0000
  F   F131      1.0  0.05918  0.75678  0.15232  1.0000
  F   F132      1.0  0.06560  0.75242  0.63654  1.0000
  F   F133      1.0  0.31417  0.24802  0.13647  1.0000
  F   F134      1.0  0.32742  0.26056  0.61105  1.0000
  F   F135      1.0  0.32352  0.75328  0.13051  1.0000
  F   F136      1.0  0.32570  0.74836  0.63563  1.0000
  F   F137      1.0  0.55995  0.25722  0.13312  1.0000
  F   F138      1.0  0.55741  0.24373  0.65291  1.0000
  F   F139      1.0  0.56155  0.74039  0.15988  1.0000
  F   F140      1.0  0.56193  0.74943  0.64554  1.0000
  F   F141      1.0  0.81460  0.25143  0.13248  1.0000
  F   F142      1.0  0.81680  0.24496  0.63840  1.0000
  F   F143      1.0  0.81913  0.75444  0.14627  1.0000
  F   F144      1.0  0.80583  0.74223  0.66818  1.0000
  F   F145      1.0  0.12321  0.37160  0.09992  1.0000
  F   F146      1.0  0.12818  0.39997  0.58169  1.0000
  F   F147      1.0  0.12378  0.86940  0.11242  1.0000
  F   F148      1.0  0.12333  0.87435  0.62272  1.0000
  F   F149      1.0  0.37202  0.37791  0.09893  1.0000
  F   F150      1.0  0.37220  0.36935  0.61011  1.0000
  F   F151      1.0  0.37528  0.87079  0.11013  1.0000
  F   F152      1.0  0.37449  0.86852  0.60740  1.0000
  F   F153      1.0  0.62674  0.36855  0.11249  1.0000
  F   F154      1.0  0.62191  0.36527  0.61272  1.0000
  F   F155      1.0  0.62544  0.86276  0.11071  1.0000
  F   F156      1.0  0.62601  0.85191  0.60615  1.0000
  F   F157      1.0  0.87429  0.33147  0.12943  1.0000
  F   F158      1.0  0.87836  0.37101  0.58984  1.0000
  F   F159      1.0  0.87775  0.87509  0.10575  1.0000
  F   F160      1.0  0.87229  0.86136  0.61762  1.0000
  F   F161      1.0  0.19338  0.26628  0.33429  1.0000
  F   F162      1.0  0.18651  0.25069  0.85599  1.0000
  F   F163      1.0  0.18773  0.74588  0.35706  1.0000
  F   F164      1.0  0.18615  0.74975  0.84817  1.0000
  F   F165      1.0  0.43887  0.25699  0.34332  1.0000
  F   F166      1.0  0.42251  0.24062  0.87870  1.0000
  F   F167      1.0  0.43371  0.74940  0.35541  1.0000
  F   F168      1.0  0.43101  0.75191  0.84843  1.0000
  F   F169      1.0  0.69831  0.24875  0.34195  1.0000
  F   F170      1.0  0.68901  0.24697  0.85469  1.0000
  F   F171      1.0  0.67564  0.74568  0.37028  1.0000
  F   F172      1.0  0.68051  0.74829  0.86737  1.0000
  F   F173      1.0  0.92897  0.25128  0.36486  1.0000
  F   F174      1.0  0.93381  0.23903  0.85522  1.0000
  F   F175      1.0  0.93384  0.75339  0.35266  1.0000
  F   F176      1.0  0.94278  0.75297  0.83413  1.0000
  F   F177      1.0  0.12665  0.12673  0.39183  1.0000
  F   F178      1.0  0.12766  0.15266  0.87366  1.0000
  F   F179      1.0  0.12289  0.62434  0.40035  1.0000
  F   F180      1.0  0.12522  0.63231  0.88090  1.0000
  F   F181      1.0  0.37585  0.13415  0.38534  1.0000
  F   F182      1.0  0.37445  0.11702  0.89606  1.0000
  F   F183      1.0  0.37513  0.62499  0.39129  1.0000
  F   F184      1.0  0.37485  0.63006  0.88911  1.0000
  F   F185      1.0  0.62636  0.11627  0.40630  1.0000
  F   F186      1.0  0.62323  0.12451  0.90438  1.0000
  F   F187      1.0  0.61786  0.60958  0.42042  1.0000
  F   F188      1.0  0.62391  0.63584  0.88240  1.0000
  F   F189      1.0  0.87495  0.11948  0.40351  1.0000
  F   F190      1.0  0.88119  0.10997  0.88820  1.0000
  F   F191      1.0  0.87777  0.64049  0.37902  1.0000
  F   F192      1.0  0.87887  0.62412  0.89227  1.0000
  F   F193      1.0  0.00452  0.37080  0.07679  1.0000
  F   F194      1.0  0.00978  0.36483  0.56576  1.0000
  F   F195      1.0  0.00707  0.87261  0.06337  1.0000
  F   F196      1.0  0.00886  0.85902  0.57661  1.0000
  F   F197      1.0  0.25905  0.35634  0.07057  1.0000
  F   F198      1.0  0.25451  0.36577  0.57167  1.0000
  F   F199      1.0  0.25979  0.86965  0.07700  1.0000
  F   F200      1.0  0.26331  0.86221  0.57023  1.0000
  F   F201      1.0  0.50571  0.37379  0.06410  1.0000
  F   F202      1.0  0.50809  0.36826  0.57319  1.0000
  F   F203      1.0  0.50674  0.85858  0.08926  1.0000
  F   F204      1.0  0.51146  0.87462  0.56506  1.0000
  F   F205      1.0  0.75757  0.36877  0.07417  1.0000
  F   F206      1.0  0.75154  0.36004  0.59665  1.0000
  F   F207      1.0  0.75295  0.84786  0.09134  1.0000
  F   F208      1.0  0.75452  0.86023  0.57157  1.0000
  F   F209      1.0  0.07070  0.49283  0.17574  1.0000
  F   F210      1.0  0.06733  0.48656  0.67479  1.0000
  F   F211      1.0  0.06766  0.99177  0.16661  1.0000
  F   F212      1.0  0.06451  0.99042  0.68134  1.0000
  F   F213      1.0  0.31427  0.49437  0.17608  1.0000
  F   F214      1.0  0.31391  0.47576  0.68807  1.0000
  F   F215      1.0  0.31715  0.98136  0.18908  1.0000
  F   F216      1.0  0.32287  0.98677  0.66845  1.0000
  F   F217      1.0  0.57368  0.47386  0.18006  1.0000
  F   F218      1.0  0.56497  0.47946  0.68182  1.0000
  F   F219      1.0  0.56248  0.98154  0.18074  1.0000
  F   F220      1.0  0.56927  0.98652  0.67184  1.0000
  F   F221      1.0  0.82130  0.49260  0.15703  1.0000
  F   F222      1.0  0.82126  0.47743  0.68067  1.0000
  F   F223      1.0  0.82349  0.98101  0.16850  1.0000
  F   F224      1.0  0.81431  0.97486  0.68936  1.0000
  F   F225      1.0  0.23970  0.14432  0.42696  1.0000
  F   F226      1.0  0.24098  0.13123  0.93002  1.0000
  F   F227      1.0  0.24697  0.63500  0.43427  1.0000
  F   F228      1.0  0.24254  0.62740  0.93939  1.0000
  F   F229      1.0  0.49290  0.14292  0.42493  1.0000
  F   F230      1.0  0.49062  0.13418  0.92421  1.0000
  F   F231      1.0  0.49078  0.63621  0.43132  1.0000
  F   F232      1.0  0.48860  0.64376  0.92547  1.0000
  F   F233      1.0  0.74047  0.12966  0.43258  1.0000
  F   F234      1.0  0.74276  0.14659  0.92990  1.0000
  F   F235      1.0  0.73694  0.63837  0.41716  1.0000
  F   F236      1.0  0.74199  0.63945  0.91967  1.0000
  F   F237      1.0  0.99908  0.13465  0.41151  1.0000
  F   F238      1.0  0.99353  0.14232  0.92616  1.0000
  F   F239      1.0  0.99471  0.64873  0.42103  1.0000
  F   F240      1.0  0.99810  0.62442  0.92233  1.0000
  F   F241      1.0  0.18199  0.02077  0.31280  1.0000
  F   F242      1.0  0.17541  0.02152  0.82624  1.0000
  F   F243      1.0  0.18570  0.51394  0.32420  1.0000
  F   F244      1.0  0.18345  0.52380  0.82541  1.0000
  F   F245      1.0  0.43577  0.02405  0.31398  1.0000
  F   F246      1.0  0.44034  0.02397  0.80032  1.0000
  F   F247      1.0  0.43380  0.51331  0.31945  1.0000
  F   F248      1.0  0.42586  0.51393  0.83270  1.0000
  F   F249      1.0  0.68804  0.01083  0.31382  1.0000
  F   F250      1.0  0.68309  0.02084  0.81894  1.0000
  F   F251      1.0  0.67954  0.50542  0.33444  1.0000
  F   F252      1.0  0.68102  0.51982  0.81957  1.0000
  F   F253      1.0  0.93289  0.01083  0.33193  1.0000
  F   F254      1.0  0.93692  0.00536  0.81286  1.0000
  F   F255      1.0  0.92305  0.50992  0.33398  1.0000
  F   F256      1.0  0.93579  0.51091  0.82059  1.0000
  F   F257      1.0  0.00437  0.26237  0.99051  1.0000
  F   F258      1.0  0.00134  0.24417  0.50287  1.0000
  F   F259      1.0  0.00519  0.75902  0.98914  1.0000
  F   F260      1.0  0.00282  0.77179  0.48911  1.0000
  F   F261      1.0  0.24762  0.25316  0.99031  1.0000
  F   F262      1.0  0.25032  0.26809  0.48693  1.0000
  F   F263      1.0  0.25352  0.77051  0.98513  1.0000
  F   F264      1.0  0.25474  0.75844  0.49787  1.0000
  F   F265      1.0  0.50150  0.24834  0.99851  1.0000
  F   F266      1.0  0.50802  0.27980  0.47017  1.0000
  F   F267      1.0  0.50060  0.74719  0.00650  1.0000
  F   F268      1.0  0.49795  0.74520  0.51027  1.0000
  F   F269      1.0  0.75656  0.26729  0.98395  1.0000
  F   F270      1.0  0.74667  0.24769  0.50017  1.0000
  F   F271      1.0  0.74571  0.72901  0.01807  1.0000
  F   F272      1.0  0.74839  0.72634  0.51508  1.0000
  F   F273      1.0  0.11644  0.99712  0.25966  1.0000
  F   F274      1.0  0.12500  0.99086  0.74162  1.0000
  F   F275      1.0  0.13107  0.51480  0.23396  1.0000
  F   F276      1.0  0.13321  0.50030  0.73577  1.0000
  F   F277      1.0  0.37497  0.01650  0.25348  1.0000
  F   F278      1.0  0.37662  0.00435  0.74761  1.0000
  F   F279      1.0  0.37127  0.49834  0.25204  1.0000
  F   F280      1.0  0.37813  0.49537  0.74595  1.0000
  F   F281      1.0  0.62446  0.99295  0.24533  1.0000
  F   F282      1.0  0.63080  0.99699  0.74612  1.0000
  F   F283      1.0  0.62870  0.50439  0.25677  1.0000
  F   F284      1.0  0.62347  0.50034  0.74815  1.0000
  F   F285      1.0  0.87362  0.00411  0.25522  1.0000
  F   F286      1.0  0.87096  0.99895  0.76193  1.0000
  F   F287      1.0  0.86357  0.49895  0.26044  1.0000
  F   F288      1.0  0.87921  0.50332  0.74698  1.0000
  F   F289      1.0  0.05004  0.02475  0.00580  1.0000
  F   F290      1.0  0.04154  0.03756  0.53037  1.0000
  F   F291      1.0  0.04385  0.54298  0.02618  1.0000
  F   F292      1.0  0.03646  0.53259  0.53013  1.0000
  F   F293      1.0  0.28738  0.02836  0.03485  1.0000
  F   F294      1.0  0.29342  0.03802  0.52117  1.0000
  F   F295      1.0  0.29605  0.52516  0.03206  1.0000
  F   F296      1.0  0.29710  0.53162  0.52894  1.0000
  F   F297      1.0  0.54154  0.03943  0.02034  1.0000
  F   F298      1.0  0.54472  0.03211  0.52212  1.0000
  F   F299      1.0  0.54430  0.52595  0.02838  1.0000
  F   F300      1.0  0.53570  0.52410  0.53376  1.0000
  F   F301      1.0  0.79572  0.03137  0.01694  1.0000
  F   F302      1.0  0.79556  0.01817  0.53087  1.0000
  F   F303      1.0  0.78820  0.52955  0.03110  1.0000
  F   F304      1.0  0.78957  0.52676  0.52631  1.0000
  F   F305      1.0  0.23636  0.43533  0.21191  1.0000
  F   F306      1.0  0.23091  0.42479  0.72398  1.0000
  F   F307      1.0  0.23247  0.90654  0.23031  1.0000
  F   F308      1.0  0.23597  0.92664  0.72640  1.0000
  F   F309      1.0  0.48886  0.40168  0.23742  1.0000
  F   F310      1.0  0.48350  0.41244  0.72913  1.0000
  F   F311      1.0  0.48162  0.90215  0.24346  1.0000
  F   F312      1.0  0.48703  0.90331  0.74262  1.0000
  F   F313      1.0  0.73381  0.41673  0.22892  1.0000
  F   F314      1.0  0.73457  0.41648  0.73413  1.0000
  F   F315      1.0  0.73570  0.91688  0.21743  1.0000
  F   F316      1.0  0.73124  0.89555  0.72676  1.0000
  F   F317      1.0  0.98283  0.42174  0.22976  1.0000
  F   F318      1.0  0.98489  0.40257  0.73580  1.0000
  F   F319      1.0  0.98552  0.91148  0.22526  1.0000
  F   F320      1.0  0.98596  0.90663  0.72711  1.0000
  F   F321      1.0  0.21164  0.47725  0.47193  1.0000
  F   F322      1.0  0.20880  0.45907  0.98217  1.0000
  F   F323      1.0  0.20887  0.97453  0.47537  1.0000
  F   F324      1.0  0.20974  0.97369  0.97014  1.0000
  F   F325      1.0  0.46033  0.47703  0.47396  1.0000
  F   F326      1.0  0.45473  0.47668  0.97465  1.0000
  F   F327      1.0  0.45783  0.97267  0.47011  1.0000
  F   F328      1.0  0.45974  0.96254  0.97300  1.0000
  F   F329      1.0  0.70550  0.46078  0.48049  1.0000
  F   F330      1.0  0.71244  0.46796  0.96733  1.0000
  F   F331      1.0  0.70165  0.97514  0.48185  1.0000
  F   F332      1.0  0.70529  0.96527  0.99311  1.0000
  F   F333      1.0  0.95950  0.46979  0.47787  1.0000
  F   F334      1.0  0.95618  0.46027  0.98654  1.0000
  F   F335      1.0  0.95504  0.97132  0.47485  1.0000
  F   F336      1.0  0.95833  0.96858  0.97515  1.0000
  F   F337      1.0  0.01114  0.06561  0.28891  1.0000
  F   F338      1.0  0.01619  0.10923  0.75609  1.0000
  F   F339      1.0  0.01535  0.59123  0.28249  1.0000
  F   F340      1.0  0.01685  0.58686  0.77062  1.0000
  F   F341      1.0  0.26158  0.08917  0.26833  1.0000
  F   F342      1.0  0.26229  0.09692  0.77105  1.0000
  F   F343      1.0  0.26766  0.59646  0.27171  1.0000
  F   F344      1.0  0.26796  0.57808  0.77516  1.0000
  F   F345      1.0  0.51524  0.08652  0.27335  1.0000
  F   F346      1.0  0.51687  0.06713  0.77663  1.0000
  F   F347      1.0  0.52143  0.58088  0.27539  1.0000
  F   F348      1.0  0.51089  0.57630  0.77493  1.0000
  F   F349      1.0  0.76868  0.07043  0.28179  1.0000
  F   F350      1.0  0.76693  0.06656  0.79106  1.0000
  F   F351      1.0  0.76617  0.59413  0.26152  1.0000
  F   F352      1.0  0.76741  0.56155  0.78952  1.0000
  F   F353      1.0  0.10261  0.41336  0.44758  1.0000
  F   F354      1.0  0.10149  0.42634  0.95008  1.0000
  F   F355      1.0  0.10473  0.91499  0.46333  1.0000
  F   F356      1.0  0.10209  0.90023  0.96150  1.0000
  F   F357      1.0  0.34803  0.42930  0.44725  1.0000
  F   F358      1.0  0.34940  0.39483  0.96134  1.0000
  F   F359      1.0  0.34972  0.91899  0.46015  1.0000
  F   F360      1.0  0.35738  0.91744  0.95790  1.0000
  F   F361      1.0  0.60225  0.40684  0.46439  1.0000
  F   F362      1.0  0.60358  0.40733  0.96420  1.0000
  F   F363      1.0  0.60365  0.91154  0.45183  1.0000
  F   F364      1.0  0.60188  0.90117  0.96890  1.0000
  F   F365      1.0  0.84598  0.39533  0.45823  1.0000
  F   F366      1.0  0.85084  0.41101  0.96869  1.0000
  F   F367      1.0  0.85004  0.90048  0.47306  1.0000
  F   F368      1.0  0.84871  0.90777  0.97365  1.0000
  F   F369      1.0  0.04844  0.31372  0.27643  1.0000
  F   F370      1.0  0.05070  0.29748  0.77422  1.0000
  F   F371      1.0  0.04987  0.80890  0.28904  1.0000
  F   F372      1.0  0.04593  0.78603  0.78472  1.0000
  F   F373      1.0  0.29482  0.29843  0.28434  1.0000
  F   F374      1.0  0.28898  0.29018  0.78936  1.0000
  F   F375      1.0  0.29912  0.79339  0.29372  1.0000
  F   F376      1.0  0.29713  0.79670  0.77783  1.0000
  F   F377      1.0  0.54861  0.28827  0.28400  1.0000
  F   F378      1.0  0.54345  0.30016  0.78988  1.0000
  F   F379      1.0  0.54941  0.80469  0.29207  1.0000
  F   F380      1.0  0.55264  0.79656  0.78767  1.0000
  F   F381      1.0  0.78934  0.29549  0.28806  1.0000
  F   F382      1.0  0.80069  0.31365  0.78256  1.0000
  F   F383      1.0  0.80029  0.79844  0.29246  1.0000
  F   F384      1.0  0.79187  0.80329  0.79946  1.0000
