data_image0
_chemical_formula_structural       Hf96F384
_chemical_formula_sum              "Hf96 F384"
_cell_length_a       31.0293
_cell_length_b       15.5129
_cell_length_c       15.51
_cell_angle_alpha    63.342
_cell_angle_beta     63.342
_cell_angle_gamma    80.1625

_space_group_name_H-M_alt    "P 1"
_space_group_IT_number       1

loop_
  _space_group_symop_operation_xyz
  'x, y, z'

loop_
  _atom_site_type_symbol
  _atom_site_label
  _atom_site_symmetry_multiplicity
  _atom_site_fract_x
  _atom_site_fract_y
  _atom_site_fract_z
  _atom_site_occupancy
  Hf  Hf1       1.0  0.19517  0.10478  0.38059  1.0000
  Hf  Hf2       1.0  0.19821  0.10737  0.87571  1.0000
  Hf  Hf3       1.0  0.19738  0.60586  0.38173  1.0000
  Hf  Hf4       1.0  0.19965  0.60197  0.87588  1.0000
  Hf  Hf5       1.0  0.44623  0.11545  0.36076  1.0000
  Hf  Hf6       1.0  0.44825  0.11232  0.86744  1.0000
  Hf  Hf7       1.0  0.44971  0.60639  0.37685  1.0000
  Hf  Hf8       1.0  0.44457  0.61658  0.86844  1.0000
  Hf  Hf9       1.0  0.69671  0.10187  0.37370  1.0000
  Hf  Hf10      1.0  0.69993  0.11268  0.86168  1.0000
  Hf  Hf11      1.0  0.69144  0.60891  0.38123  1.0000
  Hf  Hf12      1.0  0.69577  0.60723  0.87644  1.0000
  Hf  Hf13      1.0  0.94606  0.10709  0.37233  1.0000
  Hf  Hf14      1.0  0.94807  0.11210  0.86662  1.0000
  Hf  Hf15      1.0  0.94525  0.60292  0.37666  1.0000
  Hf  Hf16      1.0  0.94750  0.59842  0.88775  1.0000
  Hf  Hf17      1.0  0.05141  0.38995  0.12618  1.0000
  Hf  Hf18      1.0  0.05471  0.38800  0.62973  1.0000
  Hf  Hf19      1.0  0.05171  0.88088  0.13655  1.0000
  Hf  Hf20      1.0  0.05296  0.88271  0.63547  1.0000
  Hf  Hf21      1.0  0.30397  0.39576  0.12841  1.0000
  Hf  Hf22      1.0  0.30594  0.39287  0.62305  1.0000
  Hf  Hf23      1.0  0.30050  0.89194  0.12996  1.0000
  Hf  Hf24      1.0  0.30310  0.88553  0.62422  1.0000
  Hf  Hf25      1.0  0.55270  0.40051  0.12129  1.0000
  Hf  Hf26      1.0  0.55278  0.39596  0.62020  1.0000
  Hf  Hf27      1.0  0.55473  0.89903  0.12328  1.0000
  Hf  Hf28      1.0  0.55314  0.89625  0.62884  1.0000
  Hf  Hf29      1.0  0.80558  0.39544  0.11835  1.0000
  Hf  Hf30      1.0  0.80031  0.39555  0.62970  1.0000
  Hf  Hf31      1.0  0.79963  0.88559  0.13387  1.0000
  Hf  Hf32      1.0  0.80362  0.88879  0.62898  1.0000
  Hf  Hf33      1.0  0.05270  0.17509  0.43004  1.0000
  Hf  Hf34      1.0  0.05385  0.17425  0.92567  1.0000
  Hf  Hf35      1.0  0.05527  0.67633  0.42064  1.0000
  Hf  Hf36      1.0  0.05912  0.68398  0.91843  1.0000
  Hf  Hf37      1.0  0.30558  0.18381  0.41639  1.0000
  Hf  Hf38      1.0  0.30700  0.18265  0.92103  1.0000
  Hf  Hf39      1.0  0.30688  0.67919  0.42368  1.0000
  Hf  Hf40      1.0  0.30319  0.68943  0.91639  1.0000
  Hf  Hf41      1.0  0.55468  0.18864  0.40999  1.0000
  Hf  Hf42      1.0  0.55614  0.18505  0.91366  1.0000
  Hf  Hf43      1.0  0.55557  0.69781  0.41283  1.0000
  Hf  Hf44      1.0  0.55636  0.69332  0.91462  1.0000
  Hf  Hf45      1.0  0.80292  0.18185  0.41637  1.0000
  Hf  Hf46      1.0  0.80915  0.18447  0.90606  1.0000
  Hf  Hf47      1.0  0.80745  0.68323  0.40697  1.0000
  Hf  Hf48      1.0  0.80913  0.67946  0.91631  1.0000
  Hf  Hf49      1.0  0.16101  0.37880  0.33640  1.0000
  Hf  Hf50      1.0  0.15690  0.38731  0.84485  1.0000
  Hf  Hf51      1.0  0.15719  0.88195  0.34136  1.0000
  Hf  Hf52      1.0  0.16241  0.88339  0.83384  1.0000
  Hf  Hf53      1.0  0.40841  0.39237  0.33321  1.0000
  Hf  Hf54      1.0  0.40857  0.39026  0.83286  1.0000
  Hf  Hf55      1.0  0.40955  0.89061  0.33127  1.0000
  Hf  Hf56      1.0  0.40868  0.89481  0.82890  1.0000
  Hf  Hf57      1.0  0.65889  0.38580  0.33358  1.0000
  Hf  Hf58      1.0  0.66258  0.39301  0.82891  1.0000
  Hf  Hf59      1.0  0.65634  0.89340  0.32822  1.0000
  Hf  Hf60      1.0  0.65839  0.88607  0.83043  1.0000
  Hf  Hf61      1.0  0.90833  0.37910  0.33726  1.0000
  Hf  Hf62      1.0  0.90434  0.38549  0.83859  1.0000
  Hf  Hf63      1.0  0.90985  0.87973  0.33458  1.0000
  Hf  Hf64      1.0  0.90723  0.88802  0.83079  1.0000
  Hf  Hf65      1.0  0.19241  0.30470  0.09178  1.0000
  Hf  Hf66      1.0  0.19218  0.31890  0.58759  1.0000
  Hf  Hf67      1.0  0.19199  0.82110  0.08725  1.0000
  Hf  Hf68      1.0  0.19163  0.80066  0.59522  1.0000
  Hf  Hf69      1.0  0.44337  0.32302  0.07555  1.0000
  Hf  Hf70      1.0  0.44424  0.31598  0.58436  1.0000
  Hf  Hf71      1.0  0.44103  0.82203  0.08574  1.0000
  Hf  Hf72      1.0  0.44734  0.82815  0.57283  1.0000
  Hf  Hf73      1.0  0.69417  0.31355  0.08131  1.0000
  Hf  Hf74      1.0  0.69256  0.32197  0.58299  1.0000
  Hf  Hf75      1.0  0.69613  0.82456  0.07488  1.0000
  Hf  Hf76      1.0  0.69680  0.82146  0.57255  1.0000
  Hf  Hf77      1.0  0.94406  0.31402  0.08523  1.0000
  Hf  Hf78      1.0  0.94419  0.32678  0.57909  1.0000
  Hf  Hf79      1.0  0.94349  0.82216  0.07303  1.0000
  Hf  Hf80      1.0  0.94450  0.80940  0.58868  1.0000
  Hf  Hf81      1.0  0.08744  0.10743  0.17312  1.0000
  Hf  Hf82      1.0  0.09234  0.10670  0.67473  1.0000
  Hf  Hf83      1.0  0.09251  0.60297  0.17034  1.0000
  Hf  Hf84      1.0  0.09099  0.59472  0.67970  1.0000
  Hf  Hf85      1.0  0.33823  0.10837  0.17616  1.0000
  Hf  Hf86      1.0  0.34052  0.11264  0.65533  1.0000
  Hf  Hf87      1.0  0.34003  0.61082  0.16550  1.0000
  Hf  Hf88      1.0  0.34607  0.61592  0.66218  1.0000
  Hf  Hf89      1.0  0.59644  0.12079  0.15520  1.0000
  Hf  Hf90      1.0  0.59518  0.11993  0.65224  1.0000
  Hf  Hf91      1.0  0.59437  0.62245  0.15814  1.0000
  Hf  Hf92      1.0  0.58963  0.61811  0.67135  1.0000
  Hf  Hf93      1.0  0.83825  0.10472  0.16585  1.0000
  Hf  Hf94      1.0  0.84301  0.12004  0.65850  1.0000
  Hf  Hf95      1.0  0.84181  0.60823  0.16811  1.0000
  Hf  Hf96      1.0  0.84206  0.61436  0.66595  1.0000
  F   F1        1.0  0.07450  0.12180  0.32288  1.0000
  F   F2        1.0  0.08174  0.10646  0.81579  1.0000
  F   F3        1.0  0.07203  0.62648  0.30711  1.0000
  F   F4        1.0  0.07559  0.61444  0.82514  1.0000
  F   F5        1.0  0.33307  0.13614  0.29362  1.0000
  F   F6        1.0  0.33602  0.14002  0.78956  1.0000
  F   F7        1.0  0.33515  0.62797  0.30560  1.0000
  F   F8        1.0  0.33257  0.63041  0.79726  1.0000
  F   F9        1.0  0.57620  0.13222  0.29572  1.0000
  F   F10       1.0  0.58290  0.14541  0.79227  1.0000
  F   F11       1.0  0.58286  0.63726  0.30520  1.0000
  F   F12       1.0  0.57597  0.64447  0.80341  1.0000
  F   F13       1.0  0.82451  0.12596  0.29737  1.0000
  F   F14       1.0  0.83642  0.14029  0.79148  1.0000
  F   F15       1.0  0.83137  0.63564  0.29788  1.0000
  F   F16       1.0  0.82544  0.62228  0.80729  1.0000
  F   F17       1.0  0.18327  0.33077  0.45731  1.0000
  F   F18       1.0  0.16638  0.31131  0.98423  1.0000
  F   F19       1.0  0.18411  0.82460  0.45380  1.0000
  F   F20       1.0  0.18722  0.84733  0.94591  1.0000
  F   F21       1.0  0.42670  0.32803  0.45031  1.0000
  F   F22       1.0  0.43960  0.34053  0.93850  1.0000
  F   F23       1.0  0.43575  0.84371  0.44049  1.0000
  F   F24       1.0  0.43556  0.84294  0.94680  1.0000
  F   F25       1.0  0.68074  0.33076  0.45490  1.0000
  F   F26       1.0  0.68696  0.33011  0.94797  1.0000
  F   F27       1.0  0.68626  0.84269  0.44001  1.0000
  F   F28       1.0  0.69601  0.85540  0.92775  1.0000
  F   F29       1.0  0.94065  0.33761  0.43785  1.0000
  F   F30       1.0  0.93604  0.32981  0.94773  1.0000
  F   F31       1.0  0.93743  0.82412  0.45095  1.0000
  F   F32       1.0  0.94363  0.83720  0.93796  1.0000
  F   F33       1.0  0.16996  0.35985  0.20786  1.0000
  F   F34       1.0  0.16293  0.36158  0.71339  1.0000
  F   F35       1.0  0.17045  0.88326  0.19799  1.0000
  F   F36       1.0  0.17187  0.85519  0.70284  1.0000
  F   F37       1.0  0.41805  0.37580  0.19543  1.0000
  F   F38       1.0  0.42335  0.37062  0.69620  1.0000
  F   F39       1.0  0.42249  0.90074  0.18264  1.0000
  F   F40       1.0  0.42097  0.87234  0.69704  1.0000
  F   F41       1.0  0.67462  0.37677  0.18579  1.0000
  F   F42       1.0  0.67376  0.38420  0.69054  1.0000
  F   F43       1.0  0.66847  0.87961  0.18866  1.0000
  F   F44       1.0  0.66736  0.87454  0.69719  1.0000
  F   F45       1.0  0.91606  0.36509  0.19810  1.0000
  F   F46       1.0  0.92649  0.38547  0.68840  1.0000
  F   F47       1.0  0.92083  0.87977  0.18810  1.0000
  F   F48       1.0  0.92270  0.88074  0.68739  1.0000
  F   F49       1.0  0.05794  0.15569  0.06161  1.0000
  F   F50       1.0  0.06808  0.15314  0.55912  1.0000
  F   F51       1.0  0.07563  0.65608  0.04406  1.0000
  F   F52       1.0  0.06773  0.64990  0.54859  1.0000
  F   F53       1.0  0.31155  0.15329  0.06432  1.0000
  F   F54       1.0  0.30343  0.14752  0.56699  1.0000
  F   F55       1.0  0.31075  0.66650  0.05876  1.0000
  F   F56       1.0  0.32155  0.67352  0.54068  1.0000
  F   F57       1.0  0.56374  0.15065  0.05054  1.0000
  F   F58       1.0  0.56339  0.16890  0.54081  1.0000
  F   F59       1.0  0.56837  0.66903  0.04317  1.0000
  F   F60       1.0  0.56134  0.67263  0.55283  1.0000
  F   F61       1.0  0.80986  0.14155  0.05649  1.0000
  F   F62       1.0  0.81338  0.16255  0.54928  1.0000
  F   F63       1.0  0.82467  0.65993  0.04656  1.0000
  F   F64       1.0  0.82279  0.67347  0.54634  1.0000
  F   F65       1.0  0.20789  0.19820  0.20576  1.0000
  F   F66       1.0  0.20667  0.19881  0.71553  1.0000
  F   F67       1.0  0.20892  0.69830  0.19629  1.0000
  F   F68       1.0  0.21375  0.69854  0.70977  1.0000
  F   F69       1.0  0.45798  0.20562  0.20176  1.0000
  F   F70       1.0  0.46139  0.19271  0.70403  1.0000
  F   F71       1.0  0.44679  0.71680  0.20953  1.0000
  F   F72       1.0  0.45371  0.71620  0.71101  1.0000
  F   F73       1.0  0.70176  0.20207  0.20701  1.0000
  F   F74       1.0  0.70227  0.20507  0.70327  1.0000
  F   F75       1.0  0.69694  0.71186  0.21013  1.0000
  F   F76       1.0  0.69684  0.71387  0.71083  1.0000
  F   F77       1.0  0.95511  0.19586  0.21399  1.0000
  F   F78       1.0  0.95404  0.20543  0.70307  1.0000
  F   F79       1.0  0.93468  0.70468  0.22108  1.0000
  F   F80       1.0  0.94538  0.69585  0.72404  1.0000
  F   F81       1.0  0.14278  0.08203  0.04084  1.0000
  F   F82       1.0  0.15326  0.10637  0.53095  1.0000
  F   F83       1.0  0.15264  0.57511  0.06038  1.0000
  F   F84       1.0  0.14711  0.58118  0.55347  1.0000
  F   F85       1.0  0.40076  0.09789  0.04867  1.0000
  F   F86       1.0  0.39714  0.11345  0.51905  1.0000
  F   F87       1.0  0.39369  0.58892  0.03811  1.0000
  F   F88       1.0  0.40649  0.58889  0.54589  1.0000
  F   F89       1.0  0.65199  0.08916  0.03660  1.0000
  F   F90       1.0  0.65166  0.10306  0.53040  1.0000
  F   F91       1.0  0.64630  0.58029  0.03674  1.0000
  F   F92       1.0  0.64859  0.59842  0.55245  1.0000
  F   F93       1.0  0.89774  0.10727  0.04268  1.0000
  F   F94       1.0  0.89621  0.09286  0.53538  1.0000
  F   F95       1.0  0.90236  0.57548  0.04595  1.0000
  F   F96       1.0  0.90858  0.58040  0.53605  1.0000
  F   F97       1.0  0.14745  0.17313  0.15600  1.0000
  F   F98       1.0  0.15010  0.19531  0.64343  1.0000
  F   F99       1.0  0.14991  0.69343  0.12640  1.0000
  F   F100      1.0  0.14868  0.68824  0.64315  1.0000
  F   F101      1.0  0.40129  0.19830  0.13644  1.0000
  F   F102      1.0  0.41012  0.20552  0.61462  1.0000
  F   F103      1.0  0.40080  0.70111  0.12331  1.0000
  F   F104      1.0  0.40011  0.70324  0.62802  1.0000
  F   F105      1.0  0.65434  0.19378  0.11995  1.0000
  F   F106      1.0  0.65281  0.20256  0.61780  1.0000
  F   F107      1.0  0.65091  0.71217  0.09933  1.0000
  F   F108      1.0  0.64521  0.71053  0.62570  1.0000
  F   F109      1.0  0.89838  0.20248  0.13055  1.0000
  F   F110      1.0  0.90141  0.19599  0.61816  1.0000
  F   F111      1.0  0.89873  0.70224  0.11094  1.0000
  F   F112      1.0  0.89910  0.69024  0.62350  1.0000
  F   F113      1.0  0.09949  0.29615  0.38524  1.0000
  F   F114      1.0  0.09956  0.29806  0.91491  1.0000
  F   F115      1.0  0.09746  0.80673  0.37198  1.0000
  F   F116      1.0  0.10096  0.80808  0.87857  1.0000
  F   F117      1.0  0.35034  0.30029  0.38129  1.0000
  F   F118      1.0  0.34794  0.29789  0.87898  1.0000
  F   F119      1.0  0.35597  0.79142  0.34537  1.0000
  F   F120      1.0  0.34317  0.81959  0.87347  1.0000
  F   F121      1.0  0.59694  0.31463  0.35382  1.0000
  F   F122      1.0  0.60122  0.30755  0.87913  1.0000
  F   F123      1.0  0.59374  0.81772  0.35535  1.0000
  F   F124      1.0  0.59610  0.81585  0.86557  1.0000
  F   F125      1.0  0.85235  0.30191  0.37462  1.0000
  F   F126      1.0  0.84597  0.29539  0.88480  1.0000
  F   F127      1.0  0.85133  0.80313  0.36063  1.0000
  F   F128      1.0  0.85086  0.80298  0.86284  1.0000
  F   F129      1.0  0.06417  0.24848  0.14482  1.0000
  F   F130      1.0  0.05858  0.24298  0.65635  1.0000
  F   F131      1.0  0.06173  0.74361  0.15561  1.0000
  F   F132      1.0  0.06872  0.73796  0.64819  1.0000
  F   F133      1.0  0.31857  0.24952  0.12894  1.0000
  F   F134      1.0  0.31707  0.26234  0.61649  1.0000
  F   F135      1.0  0.31185  0.74270  0.15168  1.0000
  F   F136      1.0  0.31090  0.74424  0.65207  1.0000
  F   F137      1.0  0.57064  0.26059  0.11574  1.0000
  F   F138      1.0  0.56488  0.25433  0.63211  1.0000
  F   F139      1.0  0.56457  0.75328  0.14492  1.0000
  F   F140      1.0  0.55671  0.75507  0.65048  1.0000
  F   F141      1.0  0.82391  0.26475  0.11357  1.0000
  F   F142      1.0  0.80954  0.25087  0.65440  1.0000
  F   F143      1.0  0.81268  0.74123  0.14629  1.0000
  F   F144      1.0  0.80952  0.75541  0.65260  1.0000
  F   F145      1.0  0.12029  0.35886  0.12712  1.0000
  F   F146      1.0  0.12773  0.37794  0.59473  1.0000
  F   F147      1.0  0.12037  0.85832  0.12538  1.0000
  F   F148      1.0  0.12452  0.85654  0.62174  1.0000
  F   F149      1.0  0.37468  0.37654  0.09874  1.0000
  F   F150      1.0  0.37801  0.37154  0.60022  1.0000
  F   F151      1.0  0.37538  0.87061  0.10546  1.0000
  F   F152      1.0  0.37898  0.88235  0.59833  1.0000
  F   F153      1.0  0.63040  0.37308  0.10408  1.0000
  F   F154      1.0  0.62525  0.36414  0.60990  1.0000
  F   F155      1.0  0.62431  0.87880  0.09523  1.0000
  F   F156      1.0  0.62868  0.88946  0.59072  1.0000
  F   F157      1.0  0.87899  0.39350  0.08410  1.0000
  F   F158      1.0  0.87424  0.37058  0.61037  1.0000
  F   F159      1.0  0.87228  0.86694  0.10690  1.0000
  F   F160      1.0  0.87525  0.85786  0.62074  1.0000
  F   F161      1.0  0.20394  0.24564  0.34288  1.0000
  F   F162      1.0  0.19186  0.24878  0.86051  1.0000
  F   F163      1.0  0.18597  0.74632  0.35623  1.0000
  F   F164      1.0  0.18732  0.74947  0.85336  1.0000
  F   F165      1.0  0.44379  0.25751  0.33814  1.0000
  F   F166      1.0  0.43155  0.24874  0.86022  1.0000
  F   F167      1.0  0.43385  0.75562  0.34867  1.0000
  F   F168      1.0  0.42500  0.74823  0.87390  1.0000
  F   F169      1.0  0.68666  0.24144  0.35642  1.0000
  F   F170      1.0  0.68892  0.25536  0.84947  1.0000
  F   F171      1.0  0.67811  0.75693  0.35911  1.0000
  F   F172      1.0  0.67521  0.74669  0.87035  1.0000
  F   F173      1.0  0.93316  0.24240  0.36453  1.0000
  F   F174      1.0  0.93774  0.25058  0.84501  1.0000
  F   F175      1.0  0.94228  0.74256  0.34320  1.0000
  F   F176      1.0  0.93186  0.74184  0.85470  1.0000
  F   F177      1.0  0.12717  0.12482  0.39246  1.0000
  F   F178      1.0  0.12269  0.15011  0.89681  1.0000
  F   F179      1.0  0.12981  0.63654  0.37223  1.0000
  F   F180      1.0  0.13088  0.64392  0.87457  1.0000
  F   F181      1.0  0.37059  0.13576  0.38990  1.0000
  F   F182      1.0  0.37667  0.12001  0.90801  1.0000
  F   F183      1.0  0.37968  0.61420  0.41154  1.0000
  F   F184      1.0  0.37365  0.64970  0.87666  1.0000
  F   F185      1.0  0.62620  0.11511  0.39138  1.0000
  F   F186      1.0  0.62925  0.13844  0.88135  1.0000
  F   F187      1.0  0.62271  0.63974  0.40072  1.0000
  F   F188      1.0  0.62553  0.62889  0.88809  1.0000
  F   F189      1.0  0.87865  0.13285  0.37570  1.0000
  F   F190      1.0  0.87964  0.12598  0.89460  1.0000
  F   F191      1.0  0.87066  0.62270  0.40984  1.0000
  F   F192      1.0  0.87424  0.60623  0.90307  1.0000
  F   F193      1.0  0.00425  0.35212  0.08767  1.0000
  F   F194      1.0  0.00673  0.36670  0.56722  1.0000
  F   F195      1.0  0.00639  0.86253  0.08481  1.0000
  F   F196      1.0  0.00898  0.85136  0.57754  1.0000
  F   F197      1.0  0.25935  0.36226  0.08597  1.0000
  F   F198      1.0  0.24973  0.37152  0.59481  1.0000
  F   F199      1.0  0.24981  0.86037  0.09415  1.0000
  F   F200      1.0  0.25384  0.85194  0.58396  1.0000
  F   F201      1.0  0.50637  0.36506  0.07777  1.0000
  F   F202      1.0  0.50828  0.35343  0.57372  1.0000
  F   F203      1.0  0.51094  0.86237  0.06810  1.0000
  F   F204      1.0  0.51164  0.87344  0.56251  1.0000
  F   F205      1.0  0.75384  0.35835  0.07528  1.0000
  F   F206      1.0  0.75518  0.36485  0.57734  1.0000
  F   F207      1.0  0.75766  0.86450  0.07506  1.0000
  F   F208      1.0  0.75775  0.86998  0.56663  1.0000
  F   F209      1.0  0.06680  0.47327  0.18748  1.0000
  F   F210      1.0  0.07328  0.47022  0.68595  1.0000
  F   F211      1.0  0.06794  0.98293  0.17516  1.0000
  F   F212      1.0  0.07689  0.98111  0.67156  1.0000
  F   F213      1.0  0.31013  0.48331  0.19483  1.0000
  F   F214      1.0  0.32542  0.48552  0.66994  1.0000
  F   F215      1.0  0.31852  0.98540  0.17000  1.0000
  F   F216      1.0  0.32102  0.98819  0.67206  1.0000
  F   F217      1.0  0.56826  0.49151  0.17840  1.0000
  F   F218      1.0  0.57574  0.49083  0.65591  1.0000
  F   F219      1.0  0.57368  0.98153  0.17394  1.0000
  F   F220      1.0  0.56875  0.98522  0.67999  1.0000
  F   F221      1.0  0.81589  0.48106  0.17752  1.0000
  F   F222      1.0  0.82081  0.49181  0.65762  1.0000
  F   F223      1.0  0.80942  0.97793  0.19803  1.0000
  F   F224      1.0  0.82001  0.98665  0.67413  1.0000
  F   F225      1.0  0.24350  0.12473  0.44291  1.0000
  F   F226      1.0  0.24295  0.13045  0.94360  1.0000
  F   F227      1.0  0.24551  0.62467  0.42741  1.0000
  F   F228      1.0  0.24137  0.62012  0.94006  1.0000
  F   F229      1.0  0.49223  0.14462  0.42205  1.0000
  F   F230      1.0  0.48976  0.13822  0.93224  1.0000
  F   F231      1.0  0.49561  0.63214  0.42384  1.0000
  F   F232      1.0  0.49304  0.66222  0.90452  1.0000
  F   F233      1.0  0.74456  0.13556  0.42358  1.0000
  F   F234      1.0  0.74786  0.14592  0.90544  1.0000
  F   F235      1.0  0.73852  0.64823  0.41105  1.0000
  F   F236      1.0  0.73844  0.64697  0.92211  1.0000
  F   F237      1.0  0.98915  0.13012  0.43212  1.0000
  F   F238      1.0  0.99360  0.15263  0.90172  1.0000
  F   F239      1.0  0.99492  0.62461  0.43076  1.0000
  F   F240      1.0  0.98868  0.63320  0.94198  1.0000
  F   F241      1.0  0.17582  0.00725  0.35030  1.0000
  F   F242      1.0  0.17596  0.01512  0.83440  1.0000
  F   F243      1.0  0.18841  0.50941  0.33282  1.0000
  F   F244      1.0  0.17668  0.50866  0.84678  1.0000
  F   F245      1.0  0.42025  0.01452  0.34465  1.0000
  F   F246      1.0  0.42772  0.02374  0.81878  1.0000
  F   F247      1.0  0.42932  0.51967  0.31834  1.0000
  F   F248      1.0  0.43077  0.51652  0.81661  1.0000
  F   F249      1.0  0.68616  0.01961  0.30414  1.0000
  F   F250      1.0  0.68036  0.02339  0.81830  1.0000
  F   F251      1.0  0.67918  0.52297  0.31980  1.0000
  F   F252      1.0  0.68760  0.51928  0.80892  1.0000
  F   F253      1.0  0.93186  0.99710  0.33955  1.0000
  F   F254      1.0  0.92810  0.02381  0.81833  1.0000
  F   F255      1.0  0.92745  0.51799  0.32196  1.0000
  F   F256      1.0  0.92780  0.50430  0.82353  1.0000
  F   F257      1.0  0.00395  0.25607  0.99140  1.0000
  F   F258      1.0  0.99643  0.25187  0.51424  1.0000
  F   F259      1.0  0.00255  0.74651  0.00896  1.0000
  F   F260      1.0  0.99818  0.72469  0.52510  1.0000
  F   F261      1.0  0.24942  0.24520  0.99740  1.0000
  F   F262      1.0  0.25435  0.26604  0.48832  1.0000
  F   F263      1.0  0.24700  0.75429  0.99405  1.0000
  F   F264      1.0  0.24380  0.73695  0.50769  1.0000
  F   F265      1.0  0.50458  0.26413  0.99819  1.0000
  F   F266      1.0  0.50291  0.26653  0.48681  1.0000
  F   F267      1.0  0.50056  0.74995  0.00169  1.0000
  F   F268      1.0  0.49404  0.75167  0.49916  1.0000
  F   F269      1.0  0.75035  0.24848  0.99073  1.0000
  F   F270      1.0  0.75206  0.26283  0.48888  1.0000
  F   F271      1.0  0.75040  0.72947  0.02263  1.0000
  F   F272      1.0  0.75345  0.75349  0.49197  1.0000
  F   F273      1.0  0.11699  0.99063  0.26929  1.0000
  F   F274      1.0  0.13195  0.99489  0.73741  1.0000
  F   F275      1.0  0.12710  0.49997  0.26365  1.0000
  F   F276      1.0  0.11919  0.48389  0.77255  1.0000
  F   F277      1.0  0.35867  0.98621  0.28952  1.0000
  F   F278      1.0  0.38169  0.02201  0.72869  1.0000
  F   F279      1.0  0.36495  0.49296  0.26376  1.0000
  F   F280      1.0  0.37034  0.49828  0.75820  1.0000
  F   F281      1.0  0.61966  0.00200  0.25542  1.0000
  F   F282      1.0  0.62852  0.01002  0.74199  1.0000
  F   F283      1.0  0.62818  0.50524  0.25036  1.0000
  F   F284      1.0  0.61243  0.49601  0.77870  1.0000
  F   F285      1.0  0.87609  0.00618  0.25192  1.0000
  F   F286      1.0  0.87365  0.99880  0.74476  1.0000
  F   F287      1.0  0.87566  0.49599  0.25542  1.0000
  F   F288      1.0  0.86854  0.49022  0.75019  1.0000
  F   F289      1.0  0.03464  0.03568  0.02959  1.0000
  F   F290      1.0  0.04190  0.02782  0.53643  1.0000
  F   F291      1.0  0.03715  0.54341  0.03980  1.0000
  F   F292      1.0  0.05230  0.52659  0.51443  1.0000
  F   F293      1.0  0.29576  0.02812  0.01382  1.0000
  F   F294      1.0  0.30009  0.02081  0.51105  1.0000
  F   F295      1.0  0.29609  0.53711  0.02248  1.0000
  F   F296      1.0  0.29876  0.53211  0.52654  1.0000
  F   F297      1.0  0.54724  0.03088  0.00689  1.0000
  F   F298      1.0  0.54207  0.04161  0.52167  1.0000
  F   F299      1.0  0.54106  0.53616  0.01634  1.0000
  F   F300      1.0  0.53838  0.53270  0.53274  1.0000
  F   F301      1.0  0.80260  0.02153  0.00607  1.0000
  F   F302      1.0  0.80215  0.02340  0.52592  1.0000
  F   F303      1.0  0.78705  0.53721  0.02736  1.0000
  F   F304      1.0  0.79152  0.53863  0.51359  1.0000
  F   F305      1.0  0.23083  0.42403  0.22110  1.0000
  F   F306      1.0  0.22996  0.42930  0.72509  1.0000
  F   F307      1.0  0.23375  0.91601  0.23357  1.0000
  F   F308      1.0  0.23797  0.92546  0.71137  1.0000
  F   F309      1.0  0.48371  0.42935  0.22817  1.0000
  F   F310      1.0  0.48681  0.40430  0.72727  1.0000
  F   F311      1.0  0.48630  0.91245  0.22864  1.0000
  F   F312      1.0  0.48316  0.90430  0.72734  1.0000
  F   F313      1.0  0.73671  0.40122  0.24157  1.0000
  F   F314      1.0  0.73972  0.41718  0.73322  1.0000
  F   F315      1.0  0.73360  0.89941  0.23654  1.0000
  F   F316      1.0  0.73627  0.91039  0.72098  1.0000
  F   F317      1.0  0.98018  0.40964  0.22754  1.0000
  F   F318      1.0  0.99228  0.39624  0.73786  1.0000
  F   F319      1.0  0.98116  0.91297  0.23362  1.0000
  F   F320      1.0  0.98447  0.91643  0.72787  1.0000
  F   F321      1.0  0.20826  0.46013  0.47905  1.0000
  F   F322      1.0  0.20532  0.45001  0.98715  1.0000
  F   F323      1.0  0.20247  0.95894  0.49171  1.0000
  F   F324      1.0  0.21056  0.96534  0.97999  1.0000
  F   F325      1.0  0.46166  0.46360  0.45651  1.0000
  F   F326      1.0  0.45664  0.47572  0.97258  1.0000
  F   F327      1.0  0.46170  0.98154  0.46363  1.0000
  F   F328      1.0  0.45301  0.97664  0.96827  1.0000
  F   F329      1.0  0.71136  0.46096  0.46833  1.0000
  F   F330      1.0  0.71016  0.48010  0.96408  1.0000
  F   F331      1.0  0.71172  0.97432  0.45991  1.0000
  F   F332      1.0  0.71281  0.97041  0.97016  1.0000
  F   F333      1.0  0.96297  0.46151  0.46296  1.0000
  F   F334      1.0  0.96692  0.46802  0.97457  1.0000
  F   F335      1.0  0.96038  0.96584  0.47525  1.0000
  F   F336      1.0  0.95335  0.98109  0.97313  1.0000
  F   F337      1.0  0.01972  0.08775  0.27342  1.0000
  F   F338      1.0  0.01339  0.08879  0.76136  1.0000
  F   F339      1.0  0.01114  0.58729  0.26088  1.0000
  F   F340      1.0  0.01124  0.57849  0.77128  1.0000
  F   F341      1.0  0.26359  0.08074  0.27794  1.0000
  F   F342      1.0  0.26737  0.08053  0.77995  1.0000
  F   F343      1.0  0.26778  0.59096  0.28009  1.0000
  F   F344      1.0  0.26378  0.58022  0.78091  1.0000
  F   F345      1.0  0.51514  0.08954  0.26589  1.0000
  F   F346      1.0  0.52177  0.09127  0.76046  1.0000
  F   F347      1.0  0.51599  0.60189  0.25234  1.0000
  F   F348      1.0  0.51625  0.58131  0.77250  1.0000
  F   F349      1.0  0.76187  0.10032  0.25466  1.0000
  F   F350      1.0  0.76327  0.10017  0.76058  1.0000
  F   F351      1.0  0.76149  0.58817  0.27454  1.0000
  F   F352      1.0  0.76641  0.58626  0.77221  1.0000
  F   F353      1.0  0.10393  0.38988  0.46387  1.0000
  F   F354      1.0  0.09748  0.42710  0.96933  1.0000
  F   F355      1.0  0.09842  0.89699  0.48894  1.0000
  F   F356      1.0  0.10178  0.90927  0.96768  1.0000
  F   F357      1.0  0.34892  0.41971  0.45817  1.0000
  F   F358      1.0  0.35446  0.40226  0.95217  1.0000
  F   F359      1.0  0.34575  0.87726  0.46942  1.0000
  F   F360      1.0  0.35047  0.89737  0.97018  1.0000
  F   F361      1.0  0.59939  0.41634  0.45554  1.0000
  F   F362      1.0  0.60983  0.42161  0.94982  1.0000
  F   F363      1.0  0.59776  0.91732  0.45191  1.0000
  F   F364      1.0  0.60372  0.90369  0.95436  1.0000
  F   F365      1.0  0.84474  0.41331  0.46552  1.0000
  F   F366      1.0  0.84765  0.41788  0.95946  1.0000
  F   F367      1.0  0.85206  0.89688  0.46736  1.0000
  F   F368      1.0  0.85492  0.88516  0.96697  1.0000
  F   F369      1.0  0.04162  0.29474  0.30492  1.0000
  F   F370      1.0  0.05615  0.28992  0.79475  1.0000
  F   F371      1.0  0.03841  0.79880  0.30088  1.0000
  F   F372      1.0  0.04911  0.80024  0.79516  1.0000
  F   F373      1.0  0.29317  0.29729  0.28777  1.0000
  F   F374      1.0  0.29353  0.30595  0.77894  1.0000
  F   F375      1.0  0.28927  0.79982  0.29006  1.0000
  F   F376      1.0  0.29010  0.80150  0.78415  1.0000
  F   F377      1.0  0.54229  0.30799  0.27699  1.0000
  F   F378      1.0  0.55021  0.31016  0.78761  1.0000
  F   F379      1.0  0.54065  0.79866  0.28895  1.0000
  F   F380      1.0  0.55037  0.80790  0.78400  1.0000
  F   F381      1.0  0.80534  0.30009  0.27549  1.0000
  F   F382      1.0  0.80188  0.30852  0.78561  1.0000
  F   F383      1.0  0.79854  0.80389  0.28229  1.0000
  F   F384      1.0  0.79530  0.79266  0.79741  1.0000
