data_image0
_chemical_formula_structural       Hf96F384
_chemical_formula_sum              "Hf96 F384"
_cell_length_a       31.0413
_cell_length_b       15.5178
_cell_length_c       15.5116
_cell_angle_alpha    63.342
_cell_angle_beta     63.342
_cell_angle_gamma    80.1625

_space_group_name_H-M_alt    "P 1"
_space_group_IT_number       1

loop_
  _space_group_symop_operation_xyz
  'x, y, z'

loop_
  _atom_site_type_symbol
  _atom_site_label
  _atom_site_symmetry_multiplicity
  _atom_site_fract_x
  _atom_site_fract_y
  _atom_site_fract_z
  _atom_site_occupancy
  Hf  Hf1       1.0  0.19777  0.09881  0.38406  1.0000
  Hf  Hf2       1.0  0.19510  0.10529  0.88037  1.0000
  Hf  Hf3       1.0  0.19491  0.61188  0.37128  1.0000
  Hf  Hf4       1.0  0.19289  0.60826  0.87945  1.0000
  Hf  Hf5       1.0  0.44551  0.10111  0.38552  1.0000
  Hf  Hf6       1.0  0.44784  0.11057  0.88314  1.0000
  Hf  Hf7       1.0  0.44269  0.60422  0.37325  1.0000
  Hf  Hf8       1.0  0.44497  0.61005  0.88952  1.0000
  Hf  Hf9       1.0  0.69925  0.10920  0.37236  1.0000
  Hf  Hf10      1.0  0.69498  0.10248  0.88580  1.0000
  Hf  Hf11      1.0  0.69316  0.60643  0.37698  1.0000
  Hf  Hf12      1.0  0.69007  0.59910  0.88508  1.0000
  Hf  Hf13      1.0  0.94726  0.10641  0.38242  1.0000
  Hf  Hf14      1.0  0.94809  0.11505  0.86460  1.0000
  Hf  Hf15      1.0  0.94487  0.61998  0.36947  1.0000
  Hf  Hf16      1.0  0.94540  0.60851  0.86933  1.0000
  Hf  Hf17      1.0  0.05668  0.39323  0.12201  1.0000
  Hf  Hf18      1.0  0.05350  0.38800  0.62710  1.0000
  Hf  Hf19      1.0  0.05774  0.89126  0.11562  1.0000
  Hf  Hf20      1.0  0.05203  0.88306  0.62526  1.0000
  Hf  Hf21      1.0  0.30790  0.39236  0.12140  1.0000
  Hf  Hf22      1.0  0.30683  0.37887  0.63539  1.0000
  Hf  Hf23      1.0  0.29922  0.89043  0.13872  1.0000
  Hf  Hf24      1.0  0.30476  0.89390  0.62700  1.0000
  Hf  Hf25      1.0  0.55270  0.39153  0.12877  1.0000
  Hf  Hf26      1.0  0.55436  0.39013  0.61986  1.0000
  Hf  Hf27      1.0  0.55404  0.89458  0.12326  1.0000
  Hf  Hf28      1.0  0.55318  0.89404  0.62787  1.0000
  Hf  Hf29      1.0  0.80110  0.39658  0.12971  1.0000
  Hf  Hf30      1.0  0.80196  0.39403  0.61233  1.0000
  Hf  Hf31      1.0  0.80237  0.90000  0.12129  1.0000
  Hf  Hf32      1.0  0.80561  0.88820  0.62456  1.0000
  Hf  Hf33      1.0  0.05812  0.17975  0.42308  1.0000
  Hf  Hf34      1.0  0.06029  0.18328  0.91229  1.0000
  Hf  Hf35      1.0  0.05267  0.68611  0.41630  1.0000
  Hf  Hf36      1.0  0.05498  0.67958  0.91797  1.0000
  Hf  Hf37      1.0  0.30879  0.18731  0.41324  1.0000
  Hf  Hf38      1.0  0.30472  0.17806  0.92288  1.0000
  Hf  Hf39      1.0  0.30238  0.67517  0.43267  1.0000
  Hf  Hf40      1.0  0.30256  0.67287  0.93054  1.0000
  Hf  Hf41      1.0  0.55746  0.18432  0.40973  1.0000
  Hf  Hf42      1.0  0.55803  0.17893  0.91893  1.0000
  Hf  Hf43      1.0  0.55264  0.67704  0.42070  1.0000
  Hf  Hf44      1.0  0.55738  0.69261  0.91503  1.0000
  Hf  Hf45      1.0  0.80736  0.17726  0.41375  1.0000
  Hf  Hf46      1.0  0.80996  0.20072  0.90192  1.0000
  Hf  Hf47      1.0  0.80278  0.68980  0.41182  1.0000
  Hf  Hf48      1.0  0.80189  0.68025  0.91628  1.0000
  Hf  Hf49      1.0  0.16274  0.38699  0.32916  1.0000
  Hf  Hf50      1.0  0.16116  0.39601  0.83110  1.0000
  Hf  Hf51      1.0  0.15653  0.88435  0.32975  1.0000
  Hf  Hf52      1.0  0.15791  0.88263  0.83883  1.0000
  Hf  Hf53      1.0  0.40862  0.38703  0.32906  1.0000
  Hf  Hf54      1.0  0.41316  0.39173  0.82958  1.0000
  Hf  Hf55      1.0  0.40337  0.88904  0.34294  1.0000
  Hf  Hf56      1.0  0.41098  0.88762  0.82931  1.0000
  Hf  Hf57      1.0  0.65660  0.38795  0.33596  1.0000
  Hf  Hf58      1.0  0.66205  0.38151  0.83392  1.0000
  Hf  Hf59      1.0  0.65913  0.88745  0.33524  1.0000
  Hf  Hf60      1.0  0.66239  0.88707  0.83398  1.0000
  Hf  Hf61      1.0  0.90852  0.39741  0.32060  1.0000
  Hf  Hf62      1.0  0.90900  0.39835  0.82194  1.0000
  Hf  Hf63      1.0  0.90753  0.89431  0.33083  1.0000
  Hf  Hf64      1.0  0.90787  0.89225  0.82797  1.0000
  Hf  Hf65      1.0  0.19557  0.32226  0.08271  1.0000
  Hf  Hf66      1.0  0.19517  0.31820  0.57993  1.0000
  Hf  Hf67      1.0  0.19596  0.80841  0.08282  1.0000
  Hf  Hf68      1.0  0.19386  0.81482  0.58439  1.0000
  Hf  Hf69      1.0  0.44565  0.31437  0.08210  1.0000
  Hf  Hf70      1.0  0.44810  0.31703  0.57571  1.0000
  Hf  Hf71      1.0  0.44385  0.82230  0.08680  1.0000
  Hf  Hf72      1.0  0.44706  0.82289  0.57393  1.0000
  Hf  Hf73      1.0  0.69321  0.32046  0.08509  1.0000
  Hf  Hf74      1.0  0.69311  0.31386  0.57820  1.0000
  Hf  Hf75      1.0  0.69157  0.81032  0.09034  1.0000
  Hf  Hf76      1.0  0.69166  0.81493  0.59404  1.0000
  Hf  Hf77      1.0  0.94543  0.32492  0.07288  1.0000
  Hf  Hf78      1.0  0.94490  0.32266  0.57274  1.0000
  Hf  Hf79      1.0  0.94462  0.82034  0.08061  1.0000
  Hf  Hf80      1.0  0.94064  0.80896  0.58891  1.0000
  Hf  Hf81      1.0  0.08880  0.10767  0.16862  1.0000
  Hf  Hf82      1.0  0.09199  0.10531  0.66766  1.0000
  Hf  Hf83      1.0  0.09028  0.61329  0.16918  1.0000
  Hf  Hf84      1.0  0.09018  0.60981  0.66838  1.0000
  Hf  Hf85      1.0  0.34102  0.11225  0.16181  1.0000
  Hf  Hf86      1.0  0.33948  0.10935  0.67132  1.0000
  Hf  Hf87      1.0  0.34047  0.61454  0.16410  1.0000
  Hf  Hf88      1.0  0.34032  0.61355  0.67296  1.0000
  Hf  Hf89      1.0  0.59102  0.11698  0.17139  1.0000
  Hf  Hf90      1.0  0.59080  0.11303  0.66804  1.0000
  Hf  Hf91      1.0  0.59082  0.60597  0.17044  1.0000
  Hf  Hf92      1.0  0.59218  0.61281  0.66643  1.0000
  Hf  Hf93      1.0  0.84520  0.12255  0.16031  1.0000
  Hf  Hf94      1.0  0.83943  0.10896  0.66813  1.0000
  Hf  Hf95      1.0  0.84135  0.62073  0.15919  1.0000
  Hf  Hf96      1.0  0.83950  0.61317  0.65461  1.0000
  F   F1        1.0  0.08215  0.11958  0.30900  1.0000
  F   F2        1.0  0.08113  0.13031  0.79456  1.0000
  F   F3        1.0  0.07430  0.63044  0.30483  1.0000
  F   F4        1.0  0.08663  0.63448  0.79771  1.0000
  F   F5        1.0  0.33652  0.14638  0.29207  1.0000
  F   F6        1.0  0.33644  0.11540  0.80769  1.0000
  F   F7        1.0  0.33354  0.64504  0.29548  1.0000
  F   F8        1.0  0.32709  0.63085  0.80448  1.0000
  F   F9        1.0  0.57972  0.10957  0.32400  1.0000
  F   F10       1.0  0.58128  0.11502  0.81154  1.0000
  F   F11       1.0  0.57086  0.61147  0.30919  1.0000
  F   F12       1.0  0.57527  0.63259  0.80861  1.0000
  F   F13       1.0  0.83125  0.13253  0.29680  1.0000
  F   F14       1.0  0.82940  0.12741  0.79855  1.0000
  F   F15       1.0  0.82685  0.62965  0.30065  1.0000
  F   F16       1.0  0.83203  0.63384  0.78067  1.0000
  F   F17       1.0  0.18166  0.33973  0.45568  1.0000
  F   F18       1.0  0.18856  0.34017  0.94057  1.0000
  F   F19       1.0  0.17391  0.82489  0.45880  1.0000
  F   F20       1.0  0.18738  0.82506  0.95008  1.0000
  F   F21       1.0  0.43796  0.34049  0.45008  1.0000
  F   F22       1.0  0.44747  0.34953  0.93331  1.0000
  F   F23       1.0  0.43778  0.83407  0.44213  1.0000
  F   F24       1.0  0.44745  0.84057  0.93592  1.0000
  F   F25       1.0  0.68080  0.33109  0.45206  1.0000
  F   F26       1.0  0.69294  0.35347  0.93865  1.0000
  F   F27       1.0  0.68047  0.84397  0.44964  1.0000
  F   F28       1.0  0.68903  0.83553  0.94902  1.0000
  F   F29       1.0  0.93634  0.35548  0.43787  1.0000
  F   F30       1.0  0.93238  0.34453  0.94666  1.0000
  F   F31       1.0  0.93175  0.83969  0.45325  1.0000
  F   F32       1.0  0.93052  0.83935  0.94476  1.0000
  F   F33       1.0  0.16571  0.37074  0.20466  1.0000
  F   F34       1.0  0.17601  0.36987  0.69476  1.0000
  F   F35       1.0  0.17650  0.87504  0.18341  1.0000
  F   F36       1.0  0.17014  0.86325  0.69913  1.0000
  F   F37       1.0  0.42311  0.36340  0.19854  1.0000
  F   F38       1.0  0.42622  0.36536  0.70082  1.0000
  F   F39       1.0  0.42014  0.86851  0.20914  1.0000
  F   F40       1.0  0.42232  0.87559  0.68764  1.0000
  F   F41       1.0  0.66785  0.37117  0.20129  1.0000
  F   F42       1.0  0.67294  0.36325  0.69836  1.0000
  F   F43       1.0  0.67442  0.86903  0.19700  1.0000
  F   F44       1.0  0.68162  0.88008  0.69399  1.0000
  F   F45       1.0  0.92385  0.39298  0.17668  1.0000
  F   F46       1.0  0.91583  0.36277  0.69389  1.0000
  F   F47       1.0  0.92503  0.86992  0.18457  1.0000
  F   F48       1.0  0.91981  0.86897  0.69626  1.0000
  F   F49       1.0  0.06733  0.16117  0.05095  1.0000
  F   F50       1.0  0.07133  0.15501  0.54867  1.0000
  F   F51       1.0  0.07176  0.65373  0.04385  1.0000
  F   F52       1.0  0.06722  0.67244  0.54211  1.0000
  F   F53       1.0  0.30549  0.14203  0.07236  1.0000
  F   F54       1.0  0.31778  0.17300  0.55150  1.0000
  F   F55       1.0  0.31327  0.66429  0.05667  1.0000
  F   F56       1.0  0.30842  0.64461  0.56819  1.0000
  F   F57       1.0  0.57176  0.15441  0.05575  1.0000
  F   F58       1.0  0.55917  0.14861  0.56925  1.0000
  F   F59       1.0  0.56631  0.65743  0.05569  1.0000
  F   F60       1.0  0.56081  0.65490  0.56113  1.0000
  F   F61       1.0  0.82168  0.16593  0.03774  1.0000
  F   F62       1.0  0.81100  0.14596  0.56028  1.0000
  F   F63       1.0  0.80850  0.66352  0.05221  1.0000
  F   F64       1.0  0.80350  0.65276  0.55555  1.0000
  F   F65       1.0  0.20378  0.20864  0.19912  1.0000
  F   F66       1.0  0.20026  0.19597  0.69075  1.0000
  F   F67       1.0  0.20598  0.68763  0.21223  1.0000
  F   F68       1.0  0.19841  0.69507  0.72159  1.0000
  F   F69       1.0  0.45303  0.19610  0.21943  1.0000
  F   F70       1.0  0.44724  0.21082  0.71105  1.0000
  F   F71       1.0  0.43924  0.70390  0.21697  1.0000
  F   F72       1.0  0.45516  0.68851  0.73849  1.0000
  F   F73       1.0  0.70216  0.20442  0.20505  1.0000
  F   F74       1.0  0.70465  0.19782  0.71768  1.0000
  F   F75       1.0  0.70496  0.69958  0.21088  1.0000
  F   F76       1.0  0.69908  0.70972  0.72410  1.0000
  F   F77       1.0  0.95219  0.21031  0.21034  1.0000
  F   F78       1.0  0.95440  0.20838  0.69690  1.0000
  F   F79       1.0  0.96301  0.70744  0.21131  1.0000
  F   F80       1.0  0.95810  0.70039  0.70025  1.0000
  F   F81       1.0  0.15140  0.08057  0.03628  1.0000
  F   F82       1.0  0.15568  0.06671  0.53989  1.0000
  F   F83       1.0  0.14697  0.58373  0.04809  1.0000
  F   F84       1.0  0.14670  0.60844  0.52854  1.0000
  F   F85       1.0  0.39669  0.07784  0.04794  1.0000
  F   F86       1.0  0.40153  0.08975  0.53600  1.0000
  F   F87       1.0  0.39747  0.58059  0.05827  1.0000
  F   F88       1.0  0.40060  0.60487  0.55060  1.0000
  F   F89       1.0  0.65395  0.08652  0.04989  1.0000
  F   F90       1.0  0.64981  0.07819  0.53631  1.0000
  F   F91       1.0  0.64728  0.57717  0.04930  1.0000
  F   F92       1.0  0.64620  0.60922  0.52838  1.0000
  F   F93       1.0  0.90209  0.08386  0.02531  1.0000
  F   F94       1.0  0.90119  0.07725  0.55219  1.0000
  F   F95       1.0  0.89684  0.59757  0.03207  1.0000
  F   F96       1.0  0.89307  0.61012  0.52114  1.0000
  F   F97       1.0  0.14962  0.18191  0.11930  1.0000
  F   F98       1.0  0.14964  0.18660  0.61022  1.0000
  F   F99       1.0  0.15076  0.68179  0.14058  1.0000
  F   F100      1.0  0.15349  0.69188  0.62445  1.0000
  F   F101      1.0  0.40936  0.18927  0.11094  1.0000
  F   F102      1.0  0.39589  0.19595  0.62241  1.0000
  F   F103      1.0  0.40080  0.69104  0.11385  1.0000
  F   F104      1.0  0.40397  0.71180  0.63009  1.0000
  F   F105      1.0  0.64356  0.21469  0.12694  1.0000
  F   F106      1.0  0.65531  0.18257  0.63533  1.0000
  F   F107      1.0  0.65012  0.69443  0.12694  1.0000
  F   F108      1.0  0.65816  0.69029  0.62363  1.0000
  F   F109      1.0  0.90575  0.19323  0.12206  1.0000
  F   F110      1.0  0.89930  0.21033  0.61526  1.0000
  F   F111      1.0  0.90468  0.69703  0.12847  1.0000
  F   F112      1.0  0.90747  0.68757  0.62066  1.0000
  F   F113      1.0  0.10604  0.29960  0.39616  1.0000
  F   F114      1.0  0.09923  0.30816  0.87024  1.0000
  F   F115      1.0  0.10299  0.80652  0.35575  1.0000
  F   F116      1.0  0.10045  0.78450  0.87922  1.0000
  F   F117      1.0  0.35129  0.30379  0.36268  1.0000
  F   F118      1.0  0.34915  0.31697  0.89221  1.0000
  F   F119      1.0  0.34530  0.78365  0.38077  1.0000
  F   F120      1.0  0.34015  0.79559  0.86259  1.0000
  F   F121      1.0  0.59451  0.30851  0.39120  1.0000
  F   F122      1.0  0.59551  0.29821  0.87180  1.0000
  F   F123      1.0  0.59721  0.80775  0.38714  1.0000
  F   F124      1.0  0.60090  0.81197  0.85856  1.0000
  F   F125      1.0  0.84502  0.30169  0.35472  1.0000
  F   F126      1.0  0.84203  0.31551  0.87760  1.0000
  F   F127      1.0  0.84597  0.81132  0.37502  1.0000
  F   F128      1.0  0.84989  0.80183  0.87697  1.0000
  F   F129      1.0  0.06490  0.24553  0.14813  1.0000
  F   F130      1.0  0.05506  0.24869  0.64449  1.0000
  F   F131      1.0  0.06139  0.74635  0.14417  1.0000
  F   F132      1.0  0.06378  0.74227  0.64922  1.0000
  F   F133      1.0  0.32048  0.24708  0.12911  1.0000
  F   F134      1.0  0.30239  0.23744  0.66848  1.0000
  F   F135      1.0  0.31405  0.75032  0.14761  1.0000
  F   F136      1.0  0.31371  0.75154  0.63520  1.0000
  F   F137      1.0  0.55706  0.24882  0.15484  1.0000
  F   F138      1.0  0.57723  0.25228  0.62828  1.0000
  F   F139      1.0  0.56435  0.74456  0.16004  1.0000
  F   F140      1.0  0.56886  0.75293  0.62761  1.0000
  F   F141      1.0  0.82659  0.27145  0.10269  1.0000
  F   F142      1.0  0.81113  0.24921  0.63638  1.0000
  F   F143      1.0  0.81798  0.75597  0.13881  1.0000
  F   F144      1.0  0.82866  0.75893  0.59885  1.0000
  F   F145      1.0  0.12429  0.34690  0.12201  1.0000
  F   F146      1.0  0.12379  0.34037  0.64251  1.0000
  F   F147      1.0  0.12646  0.86405  0.10003  1.0000
  F   F148      1.0  0.12476  0.85768  0.61326  1.0000
  F   F149      1.0  0.37625  0.35084  0.12591  1.0000
  F   F150      1.0  0.37427  0.36222  0.61989  1.0000
  F   F151      1.0  0.37368  0.87498  0.11197  1.0000
  F   F152      1.0  0.37805  0.88221  0.58286  1.0000
  F   F153      1.0  0.62274  0.38695  0.10325  1.0000
  F   F154      1.0  0.62631  0.37062  0.60664  1.0000
  F   F155      1.0  0.62487  0.86270  0.11855  1.0000
  F   F156      1.0  0.62283  0.85948  0.63049  1.0000
  F   F157      1.0  0.87712  0.38838  0.09519  1.0000
  F   F158      1.0  0.87422  0.38269  0.57899  1.0000
  F   F159      1.0  0.87231  0.88194  0.09594  1.0000
  F   F160      1.0  0.87583  0.85327  0.61195  1.0000
  F   F161      1.0  0.19434  0.25305  0.33678  1.0000
  F   F162      1.0  0.18782  0.24601  0.85412  1.0000
  F   F163      1.0  0.19161  0.75284  0.33880  1.0000
  F   F164      1.0  0.18224  0.74379  0.86307  1.0000
  F   F165      1.0  0.43769  0.25349  0.36344  1.0000
  F   F166      1.0  0.43666  0.24814  0.86522  1.0000
  F   F167      1.0  0.42888  0.75389  0.35964  1.0000
  F   F168      1.0  0.41980  0.74574  0.87865  1.0000
  F   F169      1.0  0.69492  0.25376  0.33526  1.0000
  F   F170      1.0  0.68573  0.25295  0.86184  1.0000
  F   F171      1.0  0.68609  0.74706  0.35678  1.0000
  F   F172      1.0  0.67467  0.73632  0.89143  1.0000
  F   F173      1.0  0.93297  0.26065  0.35767  1.0000
  F   F174      1.0  0.93782  0.25991  0.84218  1.0000
  F   F175      1.0  0.93056  0.76575  0.35357  1.0000
  F   F176      1.0  0.93606  0.74665  0.85263  1.0000
  F   F177      1.0  0.12754  0.12709  0.38931  1.0000
  F   F178      1.0  0.12872  0.14392  0.87265  1.0000
  F   F179      1.0  0.12228  0.63678  0.38986  1.0000
  F   F180      1.0  0.12404  0.60380  0.90974  1.0000
  F   F181      1.0  0.37827  0.13982  0.38916  1.0000
  F   F182      1.0  0.37318  0.13243  0.90367  1.0000
  F   F183      1.0  0.37345  0.59243  0.41985  1.0000
  F   F184      1.0  0.37120  0.61412  0.92093  1.0000
  F   F185      1.0  0.62756  0.15303  0.38115  1.0000
  F   F186      1.0  0.62604  0.12662  0.91034  1.0000
  F   F187      1.0  0.62382  0.64084  0.37166  1.0000
  F   F188      1.0  0.62159  0.61856  0.89945  1.0000
  F   F189      1.0  0.87868  0.12949  0.39328  1.0000
  F   F190      1.0  0.87704  0.14840  0.87224  1.0000
  F   F191      1.0  0.87333  0.64066  0.37533  1.0000
  F   F192      1.0  0.87465  0.62172  0.88615  1.0000
  F   F193      1.0  0.01272  0.36131  0.05881  1.0000
  F   F194      1.0  0.99987  0.38615  0.57907  1.0000
  F   F195      1.0  0.00686  0.86097  0.08768  1.0000
  F   F196      1.0  0.00579  0.84982  0.58379  1.0000
  F   F197      1.0  0.25495  0.36009  0.08178  1.0000
  F   F198      1.0  0.25675  0.35979  0.59039  1.0000
  F   F199      1.0  0.25727  0.84881  0.07572  1.0000
  F   F200      1.0  0.25563  0.86379  0.58038  1.0000
  F   F201      1.0  0.50785  0.36370  0.07152  1.0000
  F   F202      1.0  0.50568  0.36325  0.57258  1.0000
  F   F203      1.0  0.50385  0.85938  0.08023  1.0000
  F   F204      1.0  0.50728  0.86091  0.57083  1.0000
  F   F205      1.0  0.75302  0.36694  0.09094  1.0000
  F   F206      1.0  0.75414  0.37048  0.56666  1.0000
  F   F207      1.0  0.76093  0.84937  0.06907  1.0000
  F   F208      1.0  0.75878  0.84747  0.58938  1.0000
  F   F209      1.0  0.06669  0.47884  0.17708  1.0000
  F   F210      1.0  0.07232  0.48844  0.66854  1.0000
  F   F211      1.0  0.06956  0.98167  0.16962  1.0000
  F   F212      1.0  0.06800  0.97911  0.67735  1.0000
  F   F213      1.0  0.32328  0.47794  0.17574  1.0000
  F   F214      1.0  0.32810  0.48407  0.66816  1.0000
  F   F215      1.0  0.31827  0.97964  0.18724  1.0000
  F   F216      1.0  0.31226  0.99392  0.67897  1.0000
  F   F217      1.0  0.56329  0.48266  0.18907  1.0000
  F   F218      1.0  0.57543  0.48619  0.66589  1.0000
  F   F219      1.0  0.57263  0.98873  0.16356  1.0000
  F   F220      1.0  0.56662  0.97744  0.69022  1.0000
  F   F221      1.0  0.81950  0.48966  0.17156  1.0000
  F   F222      1.0  0.82056  0.49080  0.66775  1.0000
  F   F223      1.0  0.81521  0.99647  0.17118  1.0000
  F   F224      1.0  0.81983  0.98161  0.67380  1.0000
  F   F225      1.0  0.24172  0.13192  0.44139  1.0000
  F   F226      1.0  0.24721  0.14000  0.91301  1.0000
  F   F227      1.0  0.24511  0.63954  0.42584  1.0000
  F   F228      1.0  0.24040  0.65009  0.91725  1.0000
  F   F229      1.0  0.49313  0.13867  0.41934  1.0000
  F   F230      1.0  0.49761  0.14515  0.91599  1.0000
  F   F231      1.0  0.49262  0.64173  0.41964  1.0000
  F   F232      1.0  0.49170  0.65313  0.92642  1.0000
  F   F233      1.0  0.74570  0.13891  0.43237  1.0000
  F   F234      1.0  0.74442  0.13976  0.91663  1.0000
  F   F235      1.0  0.73927  0.64561  0.43760  1.0000
  F   F236      1.0  0.74484  0.64113  0.90934  1.0000
  F   F237      1.0  0.98852  0.13626  0.44244  1.0000
  F   F238      1.0  0.99715  0.13849  0.90622  1.0000
  F   F239      1.0  0.98458  0.65335  0.42355  1.0000
  F   F240      1.0  0.99361  0.62652  0.92976  1.0000
  F   F241      1.0  0.18363  0.00957  0.32676  1.0000
  F   F242      1.0  0.17073  0.01360  0.83810  1.0000
  F   F243      1.0  0.18186  0.50551  0.33587  1.0000
  F   F244      1.0  0.18219  0.51733  0.81334  1.0000
  F   F245      1.0  0.43521  0.00751  0.33204  1.0000
  F   F246      1.0  0.43327  0.01283  0.83723  1.0000
  F   F247      1.0  0.43247  0.51432  0.32034  1.0000
  F   F248      1.0  0.43152  0.51835  0.83373  1.0000
  F   F249      1.0  0.68833  0.03098  0.30898  1.0000
  F   F250      1.0  0.67862  0.02160  0.82029  1.0000
  F   F251      1.0  0.68217  0.52336  0.31557  1.0000
  F   F252      1.0  0.68081  0.51095  0.83010  1.0000
  F   F253      1.0  0.93021  0.02194  0.33163  1.0000
  F   F254      1.0  0.92948  0.02191  0.82019  1.0000
  F   F255      1.0  0.93348  0.52353  0.30584  1.0000
  F   F256      1.0  0.93143  0.52350  0.81251  1.0000
  F   F257      1.0  0.00095  0.24228  0.99957  1.0000
  F   F258      1.0  0.00842  0.27261  0.49564  1.0000
  F   F259      1.0  0.00598  0.76894  0.98039  1.0000
  F   F260      1.0  0.00005  0.76331  0.48780  1.0000
  F   F261      1.0  0.24928  0.24349  0.00215  1.0000
  F   F262      1.0  0.25733  0.27096  0.47865  1.0000
  F   F263      1.0  0.24661  0.73096  0.01481  1.0000
  F   F264      1.0  0.24809  0.73660  0.51723  1.0000
  F   F265      1.0  0.50468  0.24024  0.00319  1.0000
  F   F266      1.0  0.49580  0.23442  0.51192  1.0000
  F   F267      1.0  0.50289  0.74533  0.01914  1.0000
  F   F268      1.0  0.49508  0.73918  0.51675  1.0000
  F   F269      1.0  0.74964  0.25468  0.00642  1.0000
  F   F270      1.0  0.74794  0.25120  0.49444  1.0000
  F   F271      1.0  0.74941  0.75001  0.99414  1.0000
  F   F272      1.0  0.75161  0.78402  0.47131  1.0000
  F   F273      1.0  0.11855  0.98832  0.26208  1.0000
  F   F274      1.0  0.12504  0.99448  0.75384  1.0000
  F   F275      1.0  0.12596  0.50005  0.25886  1.0000
  F   F276      1.0  0.12522  0.50537  0.75536  1.0000
  F   F277      1.0  0.37001  0.00171  0.26445  1.0000
  F   F278      1.0  0.37747  0.99405  0.73841  1.0000
  F   F279      1.0  0.37458  0.49737  0.25801  1.0000
  F   F280      1.0  0.38120  0.49981  0.74521  1.0000
  F   F281      1.0  0.62790  0.01214  0.25666  1.0000
  F   F282      1.0  0.62656  0.99101  0.75378  1.0000
  F   F283      1.0  0.61469  0.49323  0.27807  1.0000
  F   F284      1.0  0.63207  0.50567  0.74545  1.0000
  F   F285      1.0  0.86782  0.99569  0.25810  1.0000
  F   F286      1.0  0.86945  0.00073  0.75599  1.0000
  F   F287      1.0  0.87656  0.50364  0.23835  1.0000
  F   F288      1.0  0.87678  0.50088  0.72928  1.0000
  F   F289      1.0  0.04635  0.02503  0.01124  1.0000
  F   F290      1.0  0.04485  0.02389  0.52550  1.0000
  F   F291      1.0  0.03386  0.52717  0.04206  1.0000
  F   F292      1.0  0.04051  0.55062  0.51460  1.0000
  F   F293      1.0  0.29718  0.02515  0.01730  1.0000
  F   F294      1.0  0.29663  0.03863  0.51818  1.0000
  F   F295      1.0  0.29009  0.52624  0.03820  1.0000
  F   F296      1.0  0.29547  0.51877  0.53787  1.0000
  F   F297      1.0  0.53933  0.03004  0.03213  1.0000
  F   F298      1.0  0.54182  0.04020  0.52002  1.0000
  F   F299      1.0  0.54979  0.52507  0.02343  1.0000
  F   F300      1.0  0.54749  0.52756  0.51612  1.0000
  F   F301      1.0  0.78854  0.03436  0.02128  1.0000
  F   F302      1.0  0.78965  0.02095  0.53046  1.0000
  F   F303      1.0  0.79053  0.53815  0.01639  1.0000
  F   F304      1.0  0.80163  0.52176  0.49607  1.0000
  F   F305      1.0  0.23401  0.41937  0.22568  1.0000
  F   F306      1.0  0.23962  0.41685  0.73765  1.0000
  F   F307      1.0  0.23389  0.92858  0.21385  1.0000
  F   F308      1.0  0.22645  0.92383  0.73642  1.0000
  F   F309      1.0  0.48385  0.41901  0.22544  1.0000
  F   F310      1.0  0.49042  0.42280  0.72542  1.0000
  F   F311      1.0  0.48838  0.90946  0.22526  1.0000
  F   F312      1.0  0.48947  0.91769  0.72789  1.0000
  F   F313      1.0  0.73397  0.41610  0.23028  1.0000
  F   F314      1.0  0.73095  0.42869  0.71722  1.0000
  F   F315      1.0  0.73233  0.93016  0.21487  1.0000
  F   F316      1.0  0.74091  0.91394  0.72697  1.0000
  F   F317      1.0  0.98906  0.39562  0.22762  1.0000
  F   F318      1.0  0.99213  0.42208  0.72085  1.0000
  F   F319      1.0  0.97719  0.92406  0.23642  1.0000
  F   F320      1.0  0.98461  0.89816  0.73929  1.0000
  F   F321      1.0  0.19401  0.47322  0.49622  1.0000
  F   F322      1.0  0.20583  0.47085  0.97660  1.0000
  F   F323      1.0  0.21331  0.95411  0.45801  1.0000
  F   F324      1.0  0.20336  0.96272  0.98245  1.0000
  F   F325      1.0  0.45633  0.48350  0.47090  1.0000
  F   F326      1.0  0.45516  0.47006  0.99029  1.0000
  F   F327      1.0  0.46018  0.96855  0.47274  1.0000
  F   F328      1.0  0.46257  0.97859  0.98538  1.0000
  F   F329      1.0  0.70231  0.46633  0.47860  1.0000
  F   F330      1.0  0.70746  0.46578  0.99166  1.0000
  F   F331      1.0  0.70535  0.96417  0.48036  1.0000
  F   F332      1.0  0.70585  0.96537  0.96723  1.0000
  F   F333      1.0  0.95141  0.48222  0.47132  1.0000
  F   F334      1.0  0.95690  0.47250  0.97666  1.0000
  F   F335      1.0  0.95803  0.95924  0.48638  1.0000
  F   F336      1.0  0.96146  0.96471  0.97184  1.0000
  F   F337      1.0  0.01786  0.08140  0.28133  1.0000
  F   F338      1.0  0.01560  0.08541  0.76144  1.0000
  F   F339      1.0  0.01658  0.58422  0.26446  1.0000
  F   F340      1.0  0.01944  0.57719  0.77669  1.0000
  F   F341      1.0  0.26662  0.09460  0.27569  1.0000
  F   F342      1.0  0.26474  0.07898  0.78366  1.0000
  F   F343      1.0  0.26674  0.57596  0.27957  1.0000
  F   F344      1.0  0.26198  0.57709  0.78612  1.0000
  F   F345      1.0  0.51613  0.09227  0.26796  1.0000
  F   F346      1.0  0.51498  0.11331  0.76857  1.0000
  F   F347      1.0  0.50770  0.59514  0.26542  1.0000
  F   F348      1.0  0.51918  0.57391  0.79421  1.0000
  F   F349      1.0  0.77071  0.12138  0.24651  1.0000
  F   F350      1.0  0.76115  0.08328  0.76600  1.0000
  F   F351      1.0  0.76622  0.58857  0.28588  1.0000
  F   F352      1.0  0.75841  0.58414  0.77383  1.0000
  F   F353      1.0  0.09727  0.41919  0.47437  1.0000
  F   F354      1.0  0.10230  0.38936  0.97472  1.0000
  F   F355      1.0  0.09801  0.89555  0.46533  1.0000
  F   F356      1.0  0.10465  0.90162  0.96383  1.0000
  F   F357      1.0  0.34968  0.38478  0.46426  1.0000
  F   F358      1.0  0.35706  0.41764  0.96707  1.0000
  F   F359      1.0  0.34561  0.91076  0.45885  1.0000
  F   F360      1.0  0.35779  0.88991  0.95976  1.0000
  F   F361      1.0  0.60551  0.40597  0.45999  1.0000
  F   F362      1.0  0.60256  0.39579  0.96035  1.0000
  F   F363      1.0  0.60299  0.93233  0.46060  1.0000
  F   F364      1.0  0.59817  0.90150  0.96938  1.0000
  F   F365      1.0  0.85040  0.40637  0.44850  1.0000
  F   F366      1.0  0.85343  0.42373  0.94113  1.0000
  F   F367      1.0  0.85652  0.93239  0.45350  1.0000
  F   F368      1.0  0.85292  0.92121  0.95065  1.0000
  F   F369      1.0  0.05686  0.29780  0.30406  1.0000
  F   F370      1.0  0.04490  0.28784  0.78782  1.0000
  F   F371      1.0  0.04854  0.80177  0.27777  1.0000
  F   F372      1.0  0.04873  0.79677  0.79109  1.0000
  F   F373      1.0  0.29038  0.30841  0.28582  1.0000
  F   F374      1.0  0.30733  0.29044  0.78835  1.0000
  F   F375      1.0  0.28922  0.80331  0.28663  1.0000
  F   F376      1.0  0.29265  0.80087  0.76872  1.0000
  F   F377      1.0  0.54088  0.30062  0.29494  1.0000
  F   F378      1.0  0.55062  0.28471  0.78151  1.0000
  F   F379      1.0  0.55140  0.79826  0.29053  1.0000
  F   F380      1.0  0.53670  0.79456  0.80528  1.0000
  F   F381      1.0  0.79286  0.29366  0.27476  1.0000
  F   F382      1.0  0.79641  0.29696  0.78117  1.0000
  F   F383      1.0  0.80209  0.81720  0.27631  1.0000
  F   F384      1.0  0.79620  0.79338  0.78604  1.0000
