data_image0
_chemical_formula_structural       Hf96F384
_chemical_formula_sum              "Hf96 F384"
_cell_length_a       31.0112
_cell_length_b       15.5045
_cell_length_c       15.4989
_cell_angle_alpha    63.342
_cell_angle_beta     63.342
_cell_angle_gamma    80.1625

_space_group_name_H-M_alt    "P 1"
_space_group_IT_number       1

loop_
  _space_group_symop_operation_xyz
  'x, y, z'

loop_
  _atom_site_type_symbol
  _atom_site_label
  _atom_site_symmetry_multiplicity
  _atom_site_fract_x
  _atom_site_fract_y
  _atom_site_fract_z
  _atom_site_occupancy
  Hf  Hf1       1.0  0.19562  0.11063  0.37537  1.0000
  Hf  Hf2       1.0  0.19763  0.10343  0.88232  1.0000
  Hf  Hf3       1.0  0.19283  0.60586  0.38115  1.0000
  Hf  Hf4       1.0  0.19619  0.61180  0.87000  1.0000
  Hf  Hf5       1.0  0.44754  0.10700  0.36284  1.0000
  Hf  Hf6       1.0  0.44806  0.11178  0.86838  1.0000
  Hf  Hf7       1.0  0.44874  0.60499  0.37368  1.0000
  Hf  Hf8       1.0  0.44342  0.60975  0.88137  1.0000
  Hf  Hf9       1.0  0.70042  0.11195  0.36773  1.0000
  Hf  Hf10      1.0  0.69599  0.10775  0.88006  1.0000
  Hf  Hf11      1.0  0.69703  0.60760  0.37268  1.0000
  Hf  Hf12      1.0  0.69581  0.61089  0.87287  1.0000
  Hf  Hf13      1.0  0.94365  0.09971  0.38863  1.0000
  Hf  Hf14      1.0  0.94825  0.10900  0.86795  1.0000
  Hf  Hf15      1.0  0.94583  0.60593  0.37773  1.0000
  Hf  Hf16      1.0  0.94389  0.59568  0.88895  1.0000
  Hf  Hf17      1.0  0.05580  0.39121  0.11393  1.0000
  Hf  Hf18      1.0  0.05647  0.38582  0.63382  1.0000
  Hf  Hf19      1.0  0.05076  0.88847  0.12441  1.0000
  Hf  Hf20      1.0  0.05310  0.88523  0.63054  1.0000
  Hf  Hf21      1.0  0.30455  0.39278  0.12104  1.0000
  Hf  Hf22      1.0  0.30440  0.38738  0.62506  1.0000
  Hf  Hf23      1.0  0.30280  0.89554  0.12317  1.0000
  Hf  Hf24      1.0  0.30220  0.89476  0.62640  1.0000
  Hf  Hf25      1.0  0.55411  0.39925  0.12249  1.0000
  Hf  Hf26      1.0  0.55460  0.39202  0.62235  1.0000
  Hf  Hf27      1.0  0.55417  0.89858  0.12254  1.0000
  Hf  Hf28      1.0  0.55304  0.89258  0.62505  1.0000
  Hf  Hf29      1.0  0.80686  0.40207  0.11669  1.0000
  Hf  Hf30      1.0  0.80501  0.39401  0.62726  1.0000
  Hf  Hf31      1.0  0.80126  0.88904  0.12966  1.0000
  Hf  Hf32      1.0  0.80429  0.89675  0.61810  1.0000
  Hf  Hf33      1.0  0.05399  0.17932  0.41808  1.0000
  Hf  Hf34      1.0  0.05546  0.18296  0.91647  1.0000
  Hf  Hf35      1.0  0.05329  0.67923  0.41627  1.0000
  Hf  Hf36      1.0  0.05469  0.68450  0.91324  1.0000
  Hf  Hf37      1.0  0.30677  0.18686  0.41402  1.0000
  Hf  Hf38      1.0  0.30844  0.17688  0.91233  1.0000
  Hf  Hf39      1.0  0.30641  0.68070  0.41756  1.0000
  Hf  Hf40      1.0  0.30096  0.67468  0.92772  1.0000
  Hf  Hf41      1.0  0.55615  0.18727  0.41656  1.0000
  Hf  Hf42      1.0  0.55538  0.18269  0.91150  1.0000
  Hf  Hf43      1.0  0.55476  0.68007  0.42073  1.0000
  Hf  Hf44      1.0  0.55764  0.68966  0.91631  1.0000
  Hf  Hf45      1.0  0.80705  0.18236  0.41734  1.0000
  Hf  Hf46      1.0  0.80437  0.18257  0.92258  1.0000
  Hf  Hf47      1.0  0.80638  0.68399  0.41515  1.0000
  Hf  Hf48      1.0  0.80605  0.68053  0.91503  1.0000
  Hf  Hf49      1.0  0.15917  0.38602  0.33156  1.0000
  Hf  Hf50      1.0  0.16215  0.38528  0.82594  1.0000
  Hf  Hf51      1.0  0.15705  0.88687  0.33427  1.0000
  Hf  Hf52      1.0  0.15611  0.89122  0.83363  1.0000
  Hf  Hf53      1.0  0.40871  0.38401  0.33182  1.0000
  Hf  Hf54      1.0  0.41160  0.39180  0.82227  1.0000
  Hf  Hf55      1.0  0.40651  0.88396  0.33867  1.0000
  Hf  Hf56      1.0  0.40772  0.89095  0.82888  1.0000
  Hf  Hf57      1.0  0.66065  0.39693  0.32891  1.0000
  Hf  Hf58      1.0  0.65672  0.38534  0.83354  1.0000
  Hf  Hf59      1.0  0.65873  0.88995  0.34133  1.0000
  Hf  Hf60      1.0  0.66242  0.89222  0.83026  1.0000
  Hf  Hf61      1.0  0.91308  0.38799  0.33411  1.0000
  Hf  Hf62      1.0  0.90921  0.38980  0.83630  1.0000
  Hf  Hf63      1.0  0.90802  0.88814  0.32919  1.0000
  Hf  Hf64      1.0  0.90753  0.88267  0.83645  1.0000
  Hf  Hf65      1.0  0.19767  0.31922  0.07879  1.0000
  Hf  Hf66      1.0  0.19736  0.32278  0.57272  1.0000
  Hf  Hf67      1.0  0.18780  0.81805  0.08979  1.0000
  Hf  Hf68      1.0  0.19540  0.81758  0.58059  1.0000
  Hf  Hf69      1.0  0.44448  0.31702  0.07787  1.0000
  Hf  Hf70      1.0  0.44401  0.31655  0.58406  1.0000
  Hf  Hf71      1.0  0.44383  0.81906  0.08234  1.0000
  Hf  Hf72      1.0  0.44356  0.81267  0.58657  1.0000
  Hf  Hf73      1.0  0.69553  0.32950  0.07284  1.0000
  Hf  Hf74      1.0  0.69603  0.31884  0.58373  1.0000
  Hf  Hf75      1.0  0.69111  0.82226  0.08471  1.0000
  Hf  Hf76      1.0  0.69171  0.81450  0.58929  1.0000
  Hf  Hf77      1.0  0.94640  0.31575  0.08598  1.0000
  Hf  Hf78      1.0  0.94638  0.31554  0.58608  1.0000
  Hf  Hf79      1.0  0.94417  0.80952  0.08482  1.0000
  Hf  Hf80      1.0  0.94508  0.81779  0.58142  1.0000
  Hf  Hf81      1.0  0.09440  0.11227  0.16642  1.0000
  Hf  Hf82      1.0  0.08962  0.11166  0.66386  1.0000
  Hf  Hf83      1.0  0.08838  0.61123  0.16533  1.0000
  Hf  Hf84      1.0  0.08949  0.60750  0.67216  1.0000
  Hf  Hf85      1.0  0.34247  0.10953  0.16587  1.0000
  Hf  Hf86      1.0  0.34077  0.10571  0.66958  1.0000
  Hf  Hf87      1.0  0.33905  0.60948  0.16878  1.0000
  Hf  Hf88      1.0  0.34326  0.61253  0.66406  1.0000
  Hf  Hf89      1.0  0.59131  0.12136  0.16746  1.0000
  Hf  Hf90      1.0  0.59571  0.11461  0.65690  1.0000
  Hf  Hf91      1.0  0.59134  0.61668  0.16527  1.0000
  Hf  Hf92      1.0  0.58907  0.61215  0.67090  1.0000
  Hf  Hf93      1.0  0.84404  0.11848  0.15949  1.0000
  Hf  Hf94      1.0  0.83907  0.11181  0.67209  1.0000
  Hf  Hf95      1.0  0.84237  0.60108  0.17556  1.0000
  Hf  Hf96      1.0  0.84005  0.61655  0.66117  1.0000
  F   F1        1.0  0.08032  0.13577  0.29661  1.0000
  F   F2        1.0  0.08383  0.12528  0.80693  1.0000
  F   F3        1.0  0.07313  0.63038  0.30692  1.0000
  F   F4        1.0  0.07416  0.62675  0.80404  1.0000
  F   F5        1.0  0.32921  0.13220  0.29952  1.0000
  F   F6        1.0  0.32445  0.09722  0.81375  1.0000
  F   F7        1.0  0.33189  0.64290  0.29918  1.0000
  F   F8        1.0  0.32930  0.63481  0.80137  1.0000
  F   F9        1.0  0.57589  0.12779  0.31086  1.0000
  F   F10       1.0  0.58136  0.13362  0.79939  1.0000
  F   F11       1.0  0.57786  0.63317  0.30096  1.0000
  F   F12       1.0  0.57717  0.65268  0.79640  1.0000
  F   F13       1.0  0.83418  0.14040  0.28906  1.0000
  F   F14       1.0  0.82214  0.10255  0.82048  1.0000
  F   F15       1.0  0.83694  0.63487  0.30224  1.0000
  F   F16       1.0  0.82823  0.62334  0.80425  1.0000
  F   F17       1.0  0.19291  0.34136  0.44459  1.0000
  F   F18       1.0  0.18706  0.33592  0.93633  1.0000
  F   F19       1.0  0.18401  0.84463  0.44643  1.0000
  F   F20       1.0  0.18621  0.84588  0.95318  1.0000
  F   F21       1.0  0.43151  0.34034  0.45073  1.0000
  F   F22       1.0  0.43233  0.33493  0.95008  1.0000
  F   F23       1.0  0.43874  0.84094  0.44137  1.0000
  F   F24       1.0  0.43493  0.84170  0.95138  1.0000
  F   F25       1.0  0.68819  0.34104  0.44661  1.0000
  F   F26       1.0  0.68980  0.34240  0.94476  1.0000
  F   F27       1.0  0.68532  0.84022  0.45426  1.0000
  F   F28       1.0  0.69480  0.84932  0.93920  1.0000
  F   F29       1.0  0.94021  0.34562  0.44943  1.0000
  F   F30       1.0  0.93842  0.33976  0.94824  1.0000
  F   F31       1.0  0.93190  0.83657  0.45187  1.0000
  F   F32       1.0  0.93270  0.82789  0.94738  1.0000
  F   F33       1.0  0.17064  0.38488  0.18920  1.0000
  F   F34       1.0  0.17622  0.38570  0.68307  1.0000
  F   F35       1.0  0.16146  0.88509  0.19501  1.0000
  F   F36       1.0  0.16160  0.85179  0.71529  1.0000
  F   F37       1.0  0.42638  0.37090  0.18804  1.0000
  F   F38       1.0  0.41719  0.36899  0.69632  1.0000
  F   F39       1.0  0.41700  0.87249  0.19714  1.0000
  F   F40       1.0  0.41942  0.86285  0.69964  1.0000
  F   F41       1.0  0.67172  0.37819  0.18665  1.0000
  F   F42       1.0  0.68159  0.39183  0.68478  1.0000
  F   F43       1.0  0.66228  0.85955  0.21308  1.0000
  F   F44       1.0  0.67197  0.87528  0.69711  1.0000
  F   F45       1.0  0.92412  0.37671  0.19449  1.0000
  F   F46       1.0  0.91919  0.36226  0.70703  1.0000
  F   F47       1.0  0.91959  0.86888  0.19426  1.0000
  F   F48       1.0  0.91809  0.86063  0.70458  1.0000
  F   F49       1.0  0.06771  0.16483  0.04484  1.0000
  F   F50       1.0  0.05948  0.15401  0.55619  1.0000
  F   F51       1.0  0.05752  0.64122  0.06057  1.0000
  F   F52       1.0  0.05831  0.65208  0.55604  1.0000
  F   F53       1.0  0.31714  0.16346  0.04410  1.0000
  F   F54       1.0  0.31570  0.16501  0.54977  1.0000
  F   F55       1.0  0.31159  0.65563  0.06111  1.0000
  F   F56       1.0  0.30952  0.65875  0.56224  1.0000
  F   F57       1.0  0.57502  0.17956  0.03811  1.0000
  F   F58       1.0  0.56432  0.16646  0.54503  1.0000
  F   F59       1.0  0.56236  0.65662  0.05346  1.0000
  F   F60       1.0  0.55584  0.64571  0.57066  1.0000
  F   F61       1.0  0.81577  0.15783  0.05663  1.0000
  F   F62       1.0  0.81939  0.16923  0.54482  1.0000
  F   F63       1.0  0.81928  0.65385  0.05621  1.0000
  F   F64       1.0  0.81422  0.66141  0.55116  1.0000
  F   F65       1.0  0.20850  0.21077  0.20596  1.0000
  F   F66       1.0  0.20018  0.21561  0.69960  1.0000
  F   F67       1.0  0.20099  0.69823  0.21142  1.0000
  F   F68       1.0  0.21082  0.70360  0.72055  1.0000
  F   F69       1.0  0.45369  0.20709  0.20956  1.0000
  F   F70       1.0  0.45785  0.20145  0.70596  1.0000
  F   F71       1.0  0.45715  0.70473  0.21945  1.0000
  F   F72       1.0  0.45557  0.70297  0.71582  1.0000
  F   F73       1.0  0.70490  0.21230  0.20240  1.0000
  F   F74       1.0  0.70942  0.21260  0.70941  1.0000
  F   F75       1.0  0.70537  0.69670  0.21741  1.0000
  F   F76       1.0  0.69999  0.69861  0.71905  1.0000
  F   F77       1.0  0.94422  0.20161  0.21662  1.0000
  F   F78       1.0  0.94989  0.19460  0.71715  1.0000
  F   F79       1.0  0.95514  0.69995  0.20770  1.0000
  F   F80       1.0  0.94800  0.69950  0.70851  1.0000
  F   F81       1.0  0.14913  0.09127  0.04933  1.0000
  F   F82       1.0  0.14871  0.09373  0.52735  1.0000
  F   F83       1.0  0.14719  0.58377  0.04708  1.0000
  F   F84       1.0  0.14568  0.60247  0.54054  1.0000
  F   F85       1.0  0.39789  0.08680  0.03856  1.0000
  F   F86       1.0  0.39662  0.09006  0.54297  1.0000
  F   F87       1.0  0.39603  0.59469  0.04367  1.0000
  F   F88       1.0  0.40315  0.60139  0.53845  1.0000
  F   F89       1.0  0.65095  0.09842  0.04548  1.0000
  F   F90       1.0  0.65553  0.09301  0.53239  1.0000
  F   F91       1.0  0.64635  0.59989  0.03732  1.0000
  F   F92       1.0  0.64997  0.59338  0.54005  1.0000
  F   F93       1.0  0.90324  0.08111  0.02605  1.0000
  F   F94       1.0  0.89682  0.08373  0.54882  1.0000
  F   F95       1.0  0.90240  0.57647  0.04245  1.0000
  F   F96       1.0  0.89844  0.58972  0.54249  1.0000
  F   F97       1.0  0.15819  0.19449  0.13083  1.0000
  F   F98       1.0  0.14743  0.19696  0.61058  1.0000
  F   F99       1.0  0.14488  0.70028  0.12384  1.0000
  F   F100      1.0  0.15006  0.70268  0.63560  1.0000
  F   F101      1.0  0.40064  0.19548  0.12392  1.0000
  F   F102      1.0  0.39817  0.19203  0.64036  1.0000
  F   F103      1.0  0.40078  0.70679  0.13080  1.0000
  F   F104      1.0  0.40903  0.69214  0.62886  1.0000
  F   F105      1.0  0.64752  0.19694  0.14513  1.0000
  F   F106      1.0  0.65435  0.19232  0.62120  1.0000
  F   F107      1.0  0.64890  0.70721  0.11295  1.0000
  F   F108      1.0  0.65157  0.68073  0.63874  1.0000
  F   F109      1.0  0.90625  0.19270  0.10595  1.0000
  F   F110      1.0  0.89294  0.20001  0.62818  1.0000
  F   F111      1.0  0.90029  0.67709  0.12842  1.0000
  F   F112      1.0  0.89613  0.70055  0.61579  1.0000
  F   F113      1.0  0.09869  0.30677  0.37258  1.0000
  F   F114      1.0  0.10090  0.30810  0.87260  1.0000
  F   F115      1.0  0.09349  0.79483  0.37413  1.0000
  F   F116      1.0  0.09582  0.79922  0.87352  1.0000
  F   F117      1.0  0.35358  0.30070  0.36080  1.0000
  F   F118      1.0  0.35392  0.31139  0.88472  1.0000
  F   F119      1.0  0.34817  0.80311  0.36605  1.0000
  F   F120      1.0  0.34402  0.81119  0.86746  1.0000
  F   F121      1.0  0.59895  0.31919  0.37724  1.0000
  F   F122      1.0  0.60423  0.30170  0.84876  1.0000
  F   F123      1.0  0.59624  0.80426  0.39427  1.0000
  F   F124      1.0  0.59523  0.80892  0.87920  1.0000
  F   F125      1.0  0.84857  0.30354  0.37457  1.0000
  F   F126      1.0  0.84830  0.30931  0.89272  1.0000
  F   F127      1.0  0.84862  0.80323  0.38144  1.0000
  F   F128      1.0  0.84670  0.79878  0.87893  1.0000
  F   F129      1.0  0.07342  0.25018  0.12589  1.0000
  F   F130      1.0  0.06054  0.23692  0.66472  1.0000
  F   F131      1.0  0.06255  0.74859  0.13311  1.0000
  F   F132      1.0  0.06654  0.74358  0.64737  1.0000
  F   F133      1.0  0.31466  0.25360  0.13970  1.0000
  F   F134      1.0  0.30103  0.24576  0.66446  1.0000
  F   F135      1.0  0.31030  0.74376  0.14306  1.0000
  F   F136      1.0  0.33129  0.75557  0.61364  1.0000
  F   F137      1.0  0.56232  0.25897  0.14846  1.0000
  F   F138      1.0  0.56784  0.25326  0.64012  1.0000
  F   F139      1.0  0.56659  0.75750  0.12968  1.0000
  F   F140      1.0  0.57412  0.75040  0.62125  1.0000
  F   F141      1.0  0.81373  0.26009  0.14243  1.0000
  F   F142      1.0  0.80580  0.25463  0.65613  1.0000
  F   F143      1.0  0.81391  0.74486  0.15428  1.0000
  F   F144      1.0  0.81230  0.75514  0.63854  1.0000
  F   F145      1.0  0.13018  0.36094  0.10178  1.0000
  F   F146      1.0  0.12261  0.34468  0.63018  1.0000
  F   F147      1.0  0.11935  0.87019  0.10347  1.0000
  F   F148      1.0  0.12286  0.87974  0.60539  1.0000
  F   F149      1.0  0.37247  0.36152  0.11825  1.0000
  F   F150      1.0  0.37379  0.35712  0.60584  1.0000
  F   F151      1.0  0.37019  0.88203  0.10312  1.0000
  F   F152      1.0  0.37500  0.86747  0.60535  1.0000
  F   F153      1.0  0.62469  0.38647  0.08657  1.0000
  F   F154      1.0  0.62522  0.35051  0.62513  1.0000
  F   F155      1.0  0.61839  0.87113  0.11516  1.0000
  F   F156      1.0  0.61933  0.85612  0.63074  1.0000
  F   F157      1.0  0.87740  0.37456  0.09962  1.0000
  F   F158      1.0  0.87166  0.35814  0.62590  1.0000
  F   F159      1.0  0.87504  0.85180  0.10932  1.0000
  F   F160      1.0  0.87705  0.89031  0.59423  1.0000
  F   F161      1.0  0.18713  0.25037  0.35880  1.0000
  F   F162      1.0  0.18601  0.24027  0.84734  1.0000
  F   F163      1.0  0.18606  0.75325  0.35493  1.0000
  F   F164      1.0  0.17312  0.73665  0.88593  1.0000
  F   F165      1.0  0.43401  0.24978  0.35996  1.0000
  F   F166      1.0  0.44106  0.25741  0.83921  1.0000
  F   F167      1.0  0.43259  0.74912  0.36381  1.0000
  F   F168      1.0  0.43239  0.75508  0.85523  1.0000
  F   F169      1.0  0.68402  0.25097  0.36160  1.0000
  F   F170      1.0  0.67813  0.24739  0.86852  1.0000
  F   F171      1.0  0.69190  0.74661  0.35574  1.0000
  F   F172      1.0  0.68309  0.75268  0.86209  1.0000
  F   F173      1.0  0.93518  0.24305  0.36737  1.0000
  F   F174      1.0  0.93775  0.24159  0.86034  1.0000
  F   F175      1.0  0.94148  0.74772  0.34453  1.0000
  F   F176      1.0  0.93865  0.74220  0.84916  1.0000
  F   F177      1.0  0.12711  0.14732  0.37293  1.0000
  F   F178      1.0  0.12856  0.12981  0.89522  1.0000
  F   F179      1.0  0.12160  0.61620  0.40055  1.0000
  F   F180      1.0  0.12500  0.61825  0.89201  1.0000
  F   F181      1.0  0.37276  0.12112  0.39934  1.0000
  F   F182      1.0  0.38097  0.13765  0.87739  1.0000
  F   F183      1.0  0.37694  0.62077  0.39511  1.0000
  F   F184      1.0  0.37730  0.64121  0.87873  1.0000
  F   F185      1.0  0.62718  0.14152  0.38164  1.0000
  F   F186      1.0  0.62497  0.12078  0.90505  1.0000
  F   F187      1.0  0.62667  0.64700  0.38039  1.0000
  F   F188      1.0  0.62557  0.63793  0.88741  1.0000
  F   F189      1.0  0.87193  0.11920  0.40174  1.0000
  F   F190      1.0  0.87294  0.13563  0.89227  1.0000
  F   F191      1.0  0.87920  0.61468  0.39847  1.0000
  F   F192      1.0  0.87327  0.62439  0.89965  1.0000
  F   F193      1.0  0.00845  0.34320  0.08641  1.0000
  F   F194      1.0  0.00453  0.35012  0.59900  1.0000
  F   F195      1.0  0.00548  0.84968  0.07768  1.0000
  F   F196      1.0  0.00810  0.85727  0.58472  1.0000
  F   F197      1.0  0.25684  0.36335  0.08276  1.0000
  F   F198      1.0  0.26389  0.36572  0.55694  1.0000
  F   F199      1.0  0.25000  0.85859  0.08547  1.0000
  F   F200      1.0  0.25316  0.85126  0.59355  1.0000
  F   F201      1.0  0.50572  0.37581  0.06790  1.0000
  F   F202      1.0  0.51372  0.35499  0.56850  1.0000
  F   F203      1.0  0.51026  0.86576  0.06723  1.0000
  F   F204      1.0  0.50928  0.86277  0.57860  1.0000
  F   F205      1.0  0.75638  0.37453  0.07462  1.0000
  F   F206      1.0  0.76359  0.37206  0.55438  1.0000
  F   F207      1.0  0.75329  0.86617  0.06883  1.0000
  F   F208      1.0  0.75387  0.85433  0.58336  1.0000
  F   F209      1.0  0.06971  0.48039  0.16889  1.0000
  F   F210      1.0  0.07232  0.48007  0.67693  1.0000
  F   F211      1.0  0.07215  0.98624  0.17864  1.0000
  F   F212      1.0  0.06697  0.98258  0.68414  1.0000
  F   F213      1.0  0.32100  0.48621  0.17470  1.0000
  F   F214      1.0  0.32402  0.49015  0.66126  1.0000
  F   F215      1.0  0.31124  0.99885  0.16573  1.0000
  F   F216      1.0  0.31825  0.98585  0.67966  1.0000
  F   F217      1.0  0.56774  0.49040  0.17453  1.0000
  F   F218      1.0  0.57066  0.47464  0.67452  1.0000
  F   F219      1.0  0.56147  0.98925  0.18198  1.0000
  F   F220      1.0  0.57223  0.99197  0.66354  1.0000
  F   F221      1.0  0.82315  0.47738  0.18326  1.0000
  F   F222      1.0  0.81679  0.47626  0.68599  1.0000
  F   F223      1.0  0.81618  0.98943  0.16810  1.0000
  F   F224      1.0  0.81634  0.98839  0.67433  1.0000
  F   F225      1.0  0.24178  0.13887  0.43050  1.0000
  F   F226      1.0  0.24664  0.14740  0.91744  1.0000
  F   F227      1.0  0.23885  0.64121  0.42576  1.0000
  F   F228      1.0  0.23951  0.64491  0.92167  1.0000
  F   F229      1.0  0.49294  0.13713  0.41801  1.0000
  F   F230      1.0  0.49035  0.13698  0.92384  1.0000
  F   F231      1.0  0.49516  0.63238  0.42300  1.0000
  F   F232      1.0  0.48535  0.63684  0.93621  1.0000
  F   F233      1.0  0.74616  0.14099  0.41992  1.0000
  F   F234      1.0  0.74033  0.14423  0.92702  1.0000
  F   F235      1.0  0.74538  0.62975  0.43079  1.0000
  F   F236      1.0  0.74411  0.65039  0.92047  1.0000
  F   F237      1.0  0.99242  0.13150  0.44644  1.0000
  F   F238      1.0  0.99558  0.13158  0.92555  1.0000
  F   F239      1.0  0.98454  0.63347  0.45782  1.0000
  F   F240      1.0  0.98865  0.63235  0.93706  1.0000
  F   F241      1.0  0.17393  0.02159  0.33437  1.0000
  F   F242      1.0  0.17887  0.01297  0.83078  1.0000
  F   F243      1.0  0.17807  0.51446  0.33042  1.0000
  F   F244      1.0  0.18620  0.51444  0.81537  1.0000
  F   F245      1.0  0.42870  0.01495  0.31722  1.0000
  F   F246      1.0  0.43312  0.02032  0.82506  1.0000
  F   F247      1.0  0.43042  0.50697  0.34152  1.0000
  F   F248      1.0  0.42593  0.51530  0.83241  1.0000
  F   F249      1.0  0.67541  0.01562  0.33796  1.0000
  F   F250      1.0  0.67946  0.01817  0.83331  1.0000
  F   F251      1.0  0.68440  0.51279  0.33055  1.0000
  F   F252      1.0  0.68106  0.51119  0.82631  1.0000
  F   F253      1.0  0.92849  0.00825  0.34361  1.0000
  F   F254      1.0  0.92882  0.01914  0.82844  1.0000
  F   F255      1.0  0.94051  0.50768  0.32376  1.0000
  F   F256      1.0  0.92885  0.50950  0.84190  1.0000
  F   F257      1.0  0.99965  0.24995  0.00090  1.0000
  F   F258      1.0  0.00406  0.26239  0.50117  1.0000
  F   F259      1.0  0.00015  0.75500  0.99445  1.0000
  F   F260      1.0  0.00091  0.76185  0.49022  1.0000
  F   F261      1.0  0.25985  0.26758  0.97873  1.0000
  F   F262      1.0  0.25436  0.25412  0.49826  1.0000
  F   F263      1.0  0.24777  0.74903  0.99748  1.0000
  F   F264      1.0  0.24462  0.73658  0.51260  1.0000
  F   F265      1.0  0.49638  0.23706  0.00906  1.0000
  F   F266      1.0  0.50072  0.25791  0.48918  1.0000
  F   F267      1.0  0.49894  0.74146  0.01565  1.0000
  F   F268      1.0  0.50013  0.74722  0.50167  1.0000
  F   F269      1.0  0.75344  0.25335  0.00288  1.0000
  F   F270      1.0  0.74700  0.23712  0.51707  1.0000
  F   F271      1.0  0.74914  0.73478  0.02200  1.0000
  F   F272      1.0  0.75040  0.75454  0.50001  1.0000
  F   F273      1.0  0.11945  0.99736  0.26400  1.0000
  F   F274      1.0  0.13583  0.00318  0.72750  1.0000
  F   F275      1.0  0.11856  0.50094  0.25886  1.0000
  F   F276      1.0  0.12172  0.49836  0.76120  1.0000
  F   F277      1.0  0.36568  0.98518  0.25912  1.0000
  F   F278      1.0  0.38572  0.00584  0.73245  1.0000
  F   F279      1.0  0.37878  0.50772  0.24337  1.0000
  F   F280      1.0  0.37182  0.49898  0.75682  1.0000
  F   F281      1.0  0.63023  0.00834  0.23697  1.0000
  F   F282      1.0  0.62584  0.00351  0.74596  1.0000
  F   F283      1.0  0.62554  0.50670  0.24571  1.0000
  F   F284      1.0  0.61454  0.48993  0.76514  1.0000
  F   F285      1.0  0.88112  0.00094  0.24768  1.0000
  F   F286      1.0  0.87671  0.98593  0.75757  1.0000
  F   F287      1.0  0.87422  0.50163  0.26156  1.0000
  F   F288      1.0  0.88001  0.50363  0.74059  1.0000
  F   F289      1.0  0.04111  0.03523  0.01991  1.0000
  F   F290      1.0  0.04979  0.02833  0.50953  1.0000
  F   F291      1.0  0.04244  0.52244  0.00978  1.0000
  F   F292      1.0  0.04749  0.51365  0.52332  1.0000
  F   F293      1.0  0.29108  0.02991  0.01957  1.0000
  F   F294      1.0  0.28934  0.03506  0.53319  1.0000
  F   F295      1.0  0.28589  0.53634  0.03144  1.0000
  F   F296      1.0  0.29239  0.52794  0.51654  1.0000
  F   F297      1.0  0.54276  0.04352  0.00834  1.0000
  F   F298      1.0  0.54267  0.03109  0.52385  1.0000
  F   F299      1.0  0.55192  0.53652  0.00478  1.0000
  F   F300      1.0  0.55029  0.52393  0.51309  1.0000
  F   F301      1.0  0.78551  0.03078  0.03928  1.0000
  F   F302      1.0  0.79516  0.03640  0.50861  1.0000
  F   F303      1.0  0.79001  0.53537  0.02703  1.0000
  F   F304      1.0  0.79137  0.53137  0.53471  1.0000
  F   F305      1.0  0.23446  0.41717  0.23536  1.0000
  F   F306      1.0  0.23840  0.39300  0.72989  1.0000
  F   F307      1.0  0.22793  0.93181  0.21367  1.0000
  F   F308      1.0  0.22892  0.91094  0.72679  1.0000
  F   F309      1.0  0.48573  0.41925  0.22407  1.0000
  F   F310      1.0  0.48275  0.42115  0.70856  1.0000
  F   F311      1.0  0.48163  0.90514  0.22765  1.0000
  F   F312      1.0  0.47855  0.92554  0.73600  1.0000
  F   F313      1.0  0.73632  0.41993  0.22816  1.0000
  F   F314      1.0  0.73762  0.39870  0.73514  1.0000
  F   F315      1.0  0.73015  0.91752  0.22963  1.0000
  F   F316      1.0  0.73512  0.92190  0.72288  1.0000
  F   F317      1.0  0.98978  0.40145  0.22618  1.0000
  F   F318      1.0  0.98505  0.42187  0.73364  1.0000
  F   F319      1.0  0.98282  0.92764  0.21100  1.0000
  F   F320      1.0  0.98605  0.91714  0.73328  1.0000
  F   F321      1.0  0.20670  0.47424  0.47313  1.0000
  F   F322      1.0  0.21038  0.46558  0.96483  1.0000
  F   F323      1.0  0.20991  0.96105  0.48082  1.0000
  F   F324      1.0  0.19735  0.97117  0.99345  1.0000
  F   F325      1.0  0.45433  0.47260  0.48287  1.0000
  F   F326      1.0  0.44953  0.46655  0.98217  1.0000
  F   F327      1.0  0.45536  0.97335  0.46893  1.0000
  F   F328      1.0  0.45860  0.96357  0.96560  1.0000
  F   F329      1.0  0.70264  0.47106  0.48569  1.0000
  F   F330      1.0  0.70921  0.47451  0.96750  1.0000
  F   F331      1.0  0.71154  0.96538  0.47804  1.0000
  F   F332      1.0  0.69681  0.97214  0.99152  1.0000
  F   F333      1.0  0.95257  0.47817  0.49057  1.0000
  F   F334      1.0  0.96942  0.46163  0.97264  1.0000
  F   F335      1.0  0.96446  0.97072  0.47020  1.0000
  F   F336      1.0  0.95990  0.95618  0.97402  1.0000
  F   F337      1.0  0.01370  0.09527  0.28562  1.0000
  F   F338      1.0  0.01452  0.08113  0.77642  1.0000
  F   F339      1.0  0.01737  0.57046  0.28401  1.0000
  F   F340      1.0  0.01340  0.58537  0.76316  1.0000
  F   F341      1.0  0.26606  0.08684  0.28208  1.0000
  F   F342      1.0  0.26045  0.07700  0.77774  1.0000
  F   F343      1.0  0.26486  0.57083  0.29073  1.0000
  F   F344      1.0  0.27338  0.58245  0.76266  1.0000
  F   F345      1.0  0.51281  0.08864  0.26297  1.0000
  F   F346      1.0  0.51792  0.09330  0.76215  1.0000
  F   F347      1.0  0.51616  0.57298  0.27792  1.0000
  F   F348      1.0  0.51480  0.58619  0.77841  1.0000
  F   F349      1.0  0.77049  0.08977  0.26651  1.0000
  F   F350      1.0  0.75964  0.07748  0.78133  1.0000
  F   F351      1.0  0.76601  0.57670  0.27950  1.0000
  F   F352      1.0  0.76201  0.59086  0.77354  1.0000
  F   F353      1.0  0.10308  0.39442  0.47201  1.0000
  F   F354      1.0  0.10715  0.41449  0.95690  1.0000
  F   F355      1.0  0.09546  0.89476  0.46346  1.0000
  F   F356      1.0  0.09936  0.91094  0.95943  1.0000
  F   F357      1.0  0.34782  0.39283  0.46695  1.0000
  F   F358      1.0  0.35101  0.41745  0.96827  1.0000
  F   F359      1.0  0.34654  0.91645  0.45433  1.0000
  F   F360      1.0  0.34779  0.90870  0.95934  1.0000
  F   F361      1.0  0.60807  0.41359  0.46035  1.0000
  F   F362      1.0  0.59982  0.39518  0.96229  1.0000
  F   F363      1.0  0.59918  0.91646  0.47362  1.0000
  F   F364      1.0  0.60484  0.91670  0.95685  1.0000
  F   F365      1.0  0.85661  0.40312  0.46580  1.0000
  F   F366      1.0  0.84785  0.42776  0.95854  1.0000
  F   F367      1.0  0.85050  0.90597  0.46023  1.0000
  F   F368      1.0  0.84780  0.90430  0.97693  1.0000
  F   F369      1.0  0.04319  0.29001  0.29284  1.0000
  F   F370      1.0  0.04307  0.30146  0.79649  1.0000
  F   F371      1.0  0.03430  0.78965  0.28379  1.0000
  F   F372      1.0  0.04408  0.79730  0.78629  1.0000
  F   F373      1.0  0.29606  0.29947  0.29301  1.0000
  F   F374      1.0  0.30843  0.29841  0.79096  1.0000
  F   F375      1.0  0.29190  0.81123  0.28198  1.0000
  F   F376      1.0  0.29255  0.80359  0.76994  1.0000
  F   F377      1.0  0.55231  0.31187  0.27844  1.0000
  F   F378      1.0  0.53498  0.29723  0.79673  1.0000
  F   F379      1.0  0.54837  0.79018  0.29196  1.0000
  F   F380      1.0  0.54185  0.80977  0.78185  1.0000
  F   F381      1.0  0.79402  0.30016  0.30005  1.0000
  F   F382      1.0  0.80572  0.29380  0.79486  1.0000
  F   F383      1.0  0.79813  0.80770  0.28542  1.0000
  F   F384      1.0  0.80668  0.80310  0.77670  1.0000
