data_image0
_chemical_formula_structural       Hf96F384
_chemical_formula_sum              "Hf96 F384"
_cell_length_a       31.0125
_cell_length_b       15.5068
_cell_length_c       15.5008
_cell_angle_alpha    63.342
_cell_angle_beta     63.342
_cell_angle_gamma    80.1625

_space_group_name_H-M_alt    "P 1"
_space_group_IT_number       1

loop_
  _space_group_symop_operation_xyz
  'x, y, z'

loop_
  _atom_site_type_symbol
  _atom_site_label
  _atom_site_symmetry_multiplicity
  _atom_site_fract_x
  _atom_site_fract_y
  _atom_site_fract_z
  _atom_site_occupancy
  Hf  Hf1       1.0  0.19550  0.09738  0.38204  1.0000
  Hf  Hf2       1.0  0.19306  0.10069  0.89443  1.0000
  Hf  Hf3       1.0  0.19609  0.60578  0.37019  1.0000
  Hf  Hf4       1.0  0.19824  0.59796  0.87634  1.0000
  Hf  Hf5       1.0  0.45402  0.11349  0.35177  1.0000
  Hf  Hf6       1.0  0.44713  0.11107  0.87758  1.0000
  Hf  Hf7       1.0  0.44622  0.60781  0.37399  1.0000
  Hf  Hf8       1.0  0.44581  0.61191  0.87531  1.0000
  Hf  Hf9       1.0  0.69621  0.10676  0.37586  1.0000
  Hf  Hf10      1.0  0.69614  0.10953  0.87974  1.0000
  Hf  Hf11      1.0  0.69692  0.61194  0.36850  1.0000
  Hf  Hf12      1.0  0.69633  0.61355  0.86718  1.0000
  Hf  Hf13      1.0  0.94383  0.10956  0.37745  1.0000
  Hf  Hf14      1.0  0.94580  0.10433  0.87327  1.0000
  Hf  Hf15      1.0  0.94480  0.61006  0.36806  1.0000
  Hf  Hf16      1.0  0.94983  0.60364  0.87379  1.0000
  Hf  Hf17      1.0  0.05586  0.39440  0.12378  1.0000
  Hf  Hf18      1.0  0.05367  0.39247  0.62128  1.0000
  Hf  Hf19      1.0  0.05629  0.90060  0.11086  1.0000
  Hf  Hf20      1.0  0.05234  0.88737  0.62233  1.0000
  Hf  Hf21      1.0  0.30093  0.39017  0.13438  1.0000
  Hf  Hf22      1.0  0.30345  0.39119  0.63159  1.0000
  Hf  Hf23      1.0  0.30095  0.88332  0.13293  1.0000
  Hf  Hf24      1.0  0.30098  0.88482  0.63213  1.0000
  Hf  Hf25      1.0  0.55658  0.39831  0.11442  1.0000
  Hf  Hf26      1.0  0.55164  0.40095  0.62347  1.0000
  Hf  Hf27      1.0  0.55575  0.89213  0.12044  1.0000
  Hf  Hf28      1.0  0.55244  0.89562  0.62313  1.0000
  Hf  Hf29      1.0  0.80500  0.39097  0.12893  1.0000
  Hf  Hf30      1.0  0.80640  0.39882  0.61911  1.0000
  Hf  Hf31      1.0  0.80308  0.88734  0.12869  1.0000
  Hf  Hf32      1.0  0.80650  0.89272  0.62007  1.0000
  Hf  Hf33      1.0  0.05294  0.17470  0.42195  1.0000
  Hf  Hf34      1.0  0.05331  0.18423  0.92399  1.0000
  Hf  Hf35      1.0  0.05622  0.68261  0.41258  1.0000
  Hf  Hf36      1.0  0.05866  0.68349  0.91242  1.0000
  Hf  Hf37      1.0  0.30496  0.17771  0.42471  1.0000
  Hf  Hf38      1.0  0.30719  0.17623  0.92239  1.0000
  Hf  Hf39      1.0  0.30601  0.67705  0.41774  1.0000
  Hf  Hf40      1.0  0.30375  0.68009  0.92347  1.0000
  Hf  Hf41      1.0  0.55488  0.18859  0.41449  1.0000
  Hf  Hf42      1.0  0.56161  0.18514  0.90731  1.0000
  Hf  Hf43      1.0  0.55369  0.68545  0.41899  1.0000
  Hf  Hf44      1.0  0.55500  0.69120  0.91111  1.0000
  Hf  Hf45      1.0  0.80412  0.18172  0.41999  1.0000
  Hf  Hf46      1.0  0.80512  0.18351  0.91483  1.0000
  Hf  Hf47      1.0  0.80221  0.68521  0.41799  1.0000
  Hf  Hf48      1.0  0.80670  0.67963  0.90960  1.0000
  Hf  Hf49      1.0  0.15637  0.38303  0.34197  1.0000
  Hf  Hf50      1.0  0.15715  0.39527  0.82651  1.0000
  Hf  Hf51      1.0  0.15589  0.88411  0.33841  1.0000
  Hf  Hf52      1.0  0.16241  0.88381  0.82891  1.0000
  Hf  Hf53      1.0  0.41036  0.38785  0.32358  1.0000
  Hf  Hf54      1.0  0.40578  0.38888  0.84132  1.0000
  Hf  Hf55      1.0  0.41059  0.88015  0.32882  1.0000
  Hf  Hf56      1.0  0.40983  0.88902  0.83790  1.0000
  Hf  Hf57      1.0  0.65268  0.38454  0.33768  1.0000
  Hf  Hf58      1.0  0.66065  0.39234  0.82855  1.0000
  Hf  Hf59      1.0  0.65936  0.89361  0.32810  1.0000
  Hf  Hf60      1.0  0.66264  0.89959  0.82074  1.0000
  Hf  Hf61      1.0  0.90824  0.39337  0.33602  1.0000
  Hf  Hf62      1.0  0.90429  0.38692  0.84257  1.0000
  Hf  Hf63      1.0  0.91104  0.88441  0.33370  1.0000
  Hf  Hf64      1.0  0.90708  0.88671  0.83495  1.0000
  Hf  Hf65      1.0  0.19367  0.31324  0.08550  1.0000
  Hf  Hf66      1.0  0.19624  0.32462  0.57760  1.0000
  Hf  Hf67      1.0  0.19410  0.81471  0.08655  1.0000
  Hf  Hf68      1.0  0.19533  0.80959  0.58743  1.0000
  Hf  Hf69      1.0  0.44406  0.31569  0.07812  1.0000
  Hf  Hf70      1.0  0.44557  0.31849  0.58987  1.0000
  Hf  Hf71      1.0  0.44573  0.82193  0.08203  1.0000
  Hf  Hf72      1.0  0.44437  0.82626  0.58025  1.0000
  Hf  Hf73      1.0  0.69740  0.32093  0.07781  1.0000
  Hf  Hf74      1.0  0.69532  0.32144  0.58263  1.0000
  Hf  Hf75      1.0  0.69435  0.81543  0.08202  1.0000
  Hf  Hf76      1.0  0.69551  0.82007  0.58162  1.0000
  Hf  Hf77      1.0  0.94490  0.32434  0.08931  1.0000
  Hf  Hf78      1.0  0.94475  0.32114  0.58152  1.0000
  Hf  Hf79      1.0  0.94492  0.82174  0.08063  1.0000
  Hf  Hf80      1.0  0.94235  0.81409  0.58724  1.0000
  Hf  Hf81      1.0  0.08723  0.11003  0.17907  1.0000
  Hf  Hf82      1.0  0.08994  0.10339  0.66975  1.0000
  Hf  Hf83      1.0  0.08789  0.61217  0.16988  1.0000
  Hf  Hf84      1.0  0.09282  0.61147  0.66079  1.0000
  Hf  Hf85      1.0  0.34042  0.09944  0.17850  1.0000
  Hf  Hf86      1.0  0.33581  0.10192  0.68417  1.0000
  Hf  Hf87      1.0  0.34360  0.60959  0.16982  1.0000
  Hf  Hf88      1.0  0.34590  0.61419  0.66397  1.0000
  Hf  Hf89      1.0  0.59388  0.11379  0.16465  1.0000
  Hf  Hf90      1.0  0.58996  0.11475  0.66579  1.0000
  Hf  Hf91      1.0  0.58943  0.61574  0.16462  1.0000
  Hf  Hf92      1.0  0.59186  0.61497  0.66164  1.0000
  Hf  Hf93      1.0  0.84300  0.11013  0.16369  1.0000
  Hf  Hf94      1.0  0.84081  0.10969  0.67105  1.0000
  Hf  Hf95      1.0  0.84470  0.61525  0.16146  1.0000
  Hf  Hf96      1.0  0.84246  0.61309  0.66328  1.0000
  F   F1        1.0  0.07177  0.10806  0.31710  1.0000
  F   F2        1.0  0.07855  0.13065  0.79617  1.0000
  F   F3        1.0  0.07505  0.61440  0.31457  1.0000
  F   F4        1.0  0.08712  0.64392  0.78167  1.0000
  F   F5        1.0  0.33541  0.13182  0.30262  1.0000
  F   F6        1.0  0.32368  0.11839  0.81400  1.0000
  F   F7        1.0  0.33423  0.62851  0.29936  1.0000
  F   F8        1.0  0.33669  0.63818  0.79885  1.0000
  F   F9        1.0  0.58342  0.13932  0.29267  1.0000
  F   F10       1.0  0.58464  0.13299  0.80031  1.0000
  F   F11       1.0  0.57822  0.62296  0.30819  1.0000
  F   F12       1.0  0.57680  0.64448  0.79508  1.0000
  F   F13       1.0  0.83261  0.13912  0.29883  1.0000
  F   F14       1.0  0.82634  0.13331  0.80419  1.0000
  F   F15       1.0  0.82891  0.64342  0.29753  1.0000
  F   F16       1.0  0.82633  0.60512  0.81378  1.0000
  F   F17       1.0  0.18285  0.32448  0.45621  1.0000
  F   F18       1.0  0.18414  0.34349  0.94547  1.0000
  F   F19       1.0  0.18402  0.84229  0.45173  1.0000
  F   F20       1.0  0.18854  0.83657  0.95135  1.0000
  F   F21       1.0  0.43131  0.32891  0.46163  1.0000
  F   F22       1.0  0.43843  0.34309  0.94506  1.0000
  F   F23       1.0  0.43957  0.84649  0.44186  1.0000
  F   F24       1.0  0.43924  0.86048  0.94039  1.0000
  F   F25       1.0  0.68273  0.33822  0.45044  1.0000
  F   F26       1.0  0.69604  0.35607  0.92661  1.0000
  F   F27       1.0  0.68112  0.84186  0.44966  1.0000
  F   F28       1.0  0.69078  0.85097  0.93231  1.0000
  F   F29       1.0  0.93858  0.34842  0.43649  1.0000
  F   F30       1.0  0.93264  0.34234  0.95703  1.0000
  F   F31       1.0  0.93718  0.83722  0.44364  1.0000
  F   F32       1.0  0.93711  0.84893  0.94793  1.0000
  F   F33       1.0  0.17273  0.36134  0.19943  1.0000
  F   F34       1.0  0.16789  0.38510  0.69277  1.0000
  F   F35       1.0  0.15971  0.84754  0.21920  1.0000
  F   F36       1.0  0.17556  0.86922  0.69301  1.0000
  F   F37       1.0  0.41874  0.36709  0.19615  1.0000
  F   F38       1.0  0.41774  0.36842  0.70920  1.0000
  F   F39       1.0  0.41858  0.87295  0.19880  1.0000
  F   F40       1.0  0.42035  0.88006  0.69394  1.0000
  F   F41       1.0  0.66924  0.35658  0.19903  1.0000
  F   F42       1.0  0.67661  0.39096  0.68753  1.0000
  F   F43       1.0  0.67163  0.88301  0.18234  1.0000
  F   F44       1.0  0.67633  0.88855  0.69092  1.0000
  F   F45       1.0  0.92537  0.38320  0.19467  1.0000
  F   F46       1.0  0.92176  0.37969  0.68955  1.0000
  F   F47       1.0  0.92419  0.87754  0.19086  1.0000
  F   F48       1.0  0.92271  0.85974  0.70026  1.0000
  F   F49       1.0  0.05633  0.15377  0.07363  1.0000
  F   F50       1.0  0.06356  0.15724  0.56024  1.0000
  F   F51       1.0  0.06944  0.65952  0.04540  1.0000
  F   F52       1.0  0.06043  0.65526  0.55314  1.0000
  F   F53       1.0  0.31615  0.16294  0.04917  1.0000
  F   F54       1.0  0.30413  0.14299  0.56805  1.0000
  F   F55       1.0  0.31670  0.65722  0.05654  1.0000
  F   F56       1.0  0.31847  0.65840  0.55040  1.0000
  F   F57       1.0  0.56550  0.15295  0.05249  1.0000
  F   F58       1.0  0.55238  0.15718  0.57225  1.0000
  F   F59       1.0  0.55903  0.66318  0.05298  1.0000
  F   F60       1.0  0.56740  0.66363  0.54862  1.0000
  F   F61       1.0  0.81315  0.15451  0.06209  1.0000
  F   F62       1.0  0.80663  0.14726  0.56379  1.0000
  F   F63       1.0  0.82578  0.66908  0.03679  1.0000
  F   F64       1.0  0.80637  0.66242  0.55129  1.0000
  F   F65       1.0  0.20675  0.19819  0.20149  1.0000
  F   F66       1.0  0.18608  0.20598  0.70302  1.0000
  F   F67       1.0  0.20987  0.70489  0.20437  1.0000
  F   F68       1.0  0.20532  0.68438  0.71491  1.0000
  F   F69       1.0  0.45770  0.18838  0.20085  1.0000
  F   F70       1.0  0.46619  0.21853  0.70988  1.0000
  F   F71       1.0  0.44313  0.70564  0.22198  1.0000
  F   F72       1.0  0.45703  0.71899  0.71482  1.0000
  F   F73       1.0  0.70526  0.19399  0.21634  1.0000
  F   F74       1.0  0.70466  0.21123  0.70952  1.0000
  F   F75       1.0  0.69855  0.69827  0.20208  1.0000
  F   F76       1.0  0.70863  0.72077  0.70521  1.0000
  F   F77       1.0  0.94309  0.20293  0.21763  1.0000
  F   F78       1.0  0.94993  0.20896  0.71834  1.0000
  F   F79       1.0  0.95204  0.70514  0.20720  1.0000
  F   F80       1.0  0.95903  0.70639  0.70817  1.0000
  F   F81       1.0  0.14888  0.09296  0.04017  1.0000
  F   F82       1.0  0.14461  0.06877  0.53689  1.0000
  F   F83       1.0  0.14520  0.59633  0.05247  1.0000
  F   F84       1.0  0.14761  0.57092  0.53233  1.0000
  F   F85       1.0  0.39206  0.07509  0.04686  1.0000
  F   F86       1.0  0.39536  0.08807  0.57496  1.0000
  F   F87       1.0  0.40097  0.58207  0.05012  1.0000
  F   F88       1.0  0.40274  0.58740  0.54623  1.0000
  F   F89       1.0  0.65175  0.09411  0.03505  1.0000
  F   F90       1.0  0.65081  0.08323  0.54772  1.0000
  F   F91       1.0  0.64384  0.59733  0.02728  1.0000
  F   F92       1.0  0.65195  0.61243  0.53139  1.0000
  F   F93       1.0  0.89775  0.08304  0.03471  1.0000
  F   F94       1.0  0.89399  0.09000  0.53489  1.0000
  F   F95       1.0  0.90144  0.57792  0.03845  1.0000
  F   F96       1.0  0.89790  0.61794  0.52930  1.0000
  F   F97       1.0  0.14508  0.19814  0.14920  1.0000
  F   F98       1.0  0.14827  0.17164  0.61469  1.0000
  F   F99       1.0  0.14509  0.70933  0.14032  1.0000
  F   F100      1.0  0.15678  0.68158  0.61365  1.0000
  F   F101      1.0  0.40224  0.19768  0.11244  1.0000
  F   F102      1.0  0.40735  0.19886  0.64911  1.0000
  F   F103      1.0  0.40427  0.70912  0.11031  1.0000
  F   F104      1.0  0.40356  0.69600  0.62438  1.0000
  F   F105      1.0  0.65685  0.19072  0.13456  1.0000
  F   F106      1.0  0.64966  0.20733  0.62867  1.0000
  F   F107      1.0  0.65472  0.67903  0.11535  1.0000
  F   F108      1.0  0.65293  0.69695  0.63846  1.0000
  F   F109      1.0  0.89897  0.19077  0.11498  1.0000
  F   F110      1.0  0.90405  0.20189  0.61297  1.0000
  F   F111      1.0  0.90509  0.68609  0.12448  1.0000
  F   F112      1.0  0.90301  0.69242  0.63837  1.0000
  F   F113      1.0  0.10071  0.28962  0.39372  1.0000
  F   F114      1.0  0.09612  0.29324  0.87850  1.0000
  F   F115      1.0  0.09359  0.80647  0.38052  1.0000
  F   F116      1.0  0.09893  0.80773  0.86414  1.0000
  F   F117      1.0  0.35047  0.30092  0.37898  1.0000
  F   F118      1.0  0.34684  0.30390  0.86532  1.0000
  F   F119      1.0  0.34436  0.80774  0.36538  1.0000
  F   F120      1.0  0.35109  0.79844  0.86702  1.0000
  F   F121      1.0  0.59280  0.30175  0.38501  1.0000
  F   F122      1.0  0.60201  0.30389  0.87151  1.0000
  F   F123      1.0  0.59871  0.80721  0.37828  1.0000
  F   F124      1.0  0.59794  0.80618  0.85582  1.0000
  F   F125      1.0  0.85141  0.29747  0.35929  1.0000
  F   F126      1.0  0.84695  0.30839  0.88216  1.0000
  F   F127      1.0  0.85308  0.80950  0.37324  1.0000
  F   F128      1.0  0.84928  0.81294  0.86761  1.0000
  F   F129      1.0  0.06615  0.25894  0.14576  1.0000
  F   F130      1.0  0.06672  0.25750  0.63431  1.0000
  F   F131      1.0  0.05966  0.74653  0.15092  1.0000
  F   F132      1.0  0.07410  0.75183  0.62011  1.0000
  F   F133      1.0  0.31041  0.23872  0.14939  1.0000
  F   F134      1.0  0.31998  0.24933  0.63694  1.0000
  F   F135      1.0  0.31532  0.74908  0.14934  1.0000
  F   F136      1.0  0.31987  0.75419  0.62480  1.0000
  F   F137      1.0  0.56943  0.25706  0.12983  1.0000
  F   F138      1.0  0.56298  0.25693  0.64765  1.0000
  F   F139      1.0  0.55549  0.74028  0.15890  1.0000
  F   F140      1.0  0.56863  0.76114  0.63350  1.0000
  F   F141      1.0  0.80836  0.24786  0.14959  1.0000
  F   F142      1.0  0.81592  0.25878  0.63553  1.0000
  F   F143      1.0  0.81255  0.74966  0.14888  1.0000
  F   F144      1.0  0.82258  0.75587  0.62640  1.0000
  F   F145      1.0  0.12808  0.39008  0.08762  1.0000
  F   F146      1.0  0.12466  0.34961  0.61782  1.0000
  F   F147      1.0  0.12418  0.89448  0.08767  1.0000
  F   F148      1.0  0.12574  0.85109  0.62289  1.0000
  F   F149      1.0  0.37287  0.36668  0.11181  1.0000
  F   F150      1.0  0.37084  0.36352  0.62520  1.0000
  F   F151      1.0  0.37470  0.86682  0.11450  1.0000
  F   F152      1.0  0.37855  0.87207  0.59908  1.0000
  F   F153      1.0  0.62975  0.38077  0.09502  1.0000
  F   F154      1.0  0.62672  0.37603  0.61327  1.0000
  F   F155      1.0  0.62294  0.85591  0.11032  1.0000
  F   F156      1.0  0.62479  0.87009  0.61006  1.0000
  F   F157      1.0  0.87401  0.34881  0.12576  1.0000
  F   F158      1.0  0.87621  0.37667  0.59360  1.0000
  F   F159      1.0  0.87299  0.84571  0.13395  1.0000
  F   F160      1.0  0.87664  0.87436  0.60890  1.0000
  F   F161      1.0  0.18900  0.24190  0.34681  1.0000
  F   F162      1.0  0.18654  0.24808  0.83571  1.0000
  F   F163      1.0  0.18430  0.74667  0.36770  1.0000
  F   F164      1.0  0.19198  0.74360  0.84727  1.0000
  F   F165      1.0  0.43887  0.25060  0.34232  1.0000
  F   F166      1.0  0.43138  0.24575  0.87294  1.0000
  F   F167      1.0  0.42361  0.73653  0.37853  1.0000
  F   F168      1.0  0.42913  0.74173  0.88168  1.0000
  F   F169      1.0  0.68505  0.24992  0.35287  1.0000
  F   F170      1.0  0.68257  0.25024  0.85819  1.0000
  F   F171      1.0  0.69077  0.75152  0.33493  1.0000
  F   F172      1.0  0.67898  0.75708  0.86186  1.0000
  F   F173      1.0  0.93227  0.25143  0.37462  1.0000
  F   F174      1.0  0.92946  0.25675  0.87143  1.0000
  F   F175      1.0  0.93954  0.74976  0.34945  1.0000
  F   F176      1.0  0.93575  0.74773  0.86460  1.0000
  F   F177      1.0  0.12177  0.13582  0.38275  1.0000
  F   F178      1.0  0.12064  0.12646  0.90044  1.0000
  F   F179      1.0  0.12575  0.63893  0.37668  1.0000
  F   F180      1.0  0.13046  0.62942  0.89025  1.0000
  F   F181      1.0  0.37799  0.11684  0.40777  1.0000
  F   F182      1.0  0.37908  0.13349  0.88259  1.0000
  F   F183      1.0  0.37016  0.60882  0.41091  1.0000
  F   F184      1.0  0.37309  0.60803  0.91308  1.0000
  F   F185      1.0  0.62493  0.12776  0.40098  1.0000
  F   F186      1.0  0.62617  0.13036  0.89880  1.0000
  F   F187      1.0  0.62546  0.63097  0.38658  1.0000
  F   F188      1.0  0.62688  0.62642  0.88003  1.0000
  F   F189      1.0  0.87209  0.11983  0.40541  1.0000
  F   F190      1.0  0.87604  0.13073  0.88891  1.0000
  F   F191      1.0  0.87462  0.62664  0.39492  1.0000
  F   F192      1.0  0.87560  0.62412  0.88763  1.0000
  F   F193      1.0  0.00673  0.36656  0.07933  1.0000
  F   F194      1.0  0.01121  0.36661  0.56232  1.0000
  F   F195      1.0  0.00884  0.87360  0.06126  1.0000
  F   F196      1.0  0.00557  0.85839  0.57715  1.0000
  F   F197      1.0  0.26012  0.37067  0.07440  1.0000
  F   F198      1.0  0.25329  0.36338  0.58827  1.0000
  F   F199      1.0  0.25649  0.85985  0.07952  1.0000
  F   F200      1.0  0.25973  0.85868  0.57868  1.0000
  F   F201      1.0  0.50737  0.35985  0.07643  1.0000
  F   F202      1.0  0.50953  0.38128  0.55669  1.0000
  F   F203      1.0  0.50443  0.85185  0.09322  1.0000
  F   F204      1.0  0.50859  0.87427  0.56616  1.0000
  F   F205      1.0  0.75779  0.36227  0.06750  1.0000
  F   F206      1.0  0.75909  0.37051  0.56458  1.0000
  F   F207      1.0  0.75426  0.86173  0.07339  1.0000
  F   F208      1.0  0.76075  0.86274  0.57523  1.0000
  F   F209      1.0  0.06051  0.49718  0.17308  1.0000
  F   F210      1.0  0.06781  0.48207  0.67412  1.0000
  F   F211      1.0  0.06395  0.98959  0.17617  1.0000
  F   F212      1.0  0.06810  0.98212  0.67019  1.0000
  F   F213      1.0  0.31613  0.47781  0.18420  1.0000
  F   F214      1.0  0.31850  0.48055  0.69730  1.0000
  F   F215      1.0  0.30994  0.98459  0.18086  1.0000
  F   F216      1.0  0.31353  0.97834  0.68497  1.0000
  F   F217      1.0  0.56815  0.49625  0.17311  1.0000
  F   F218      1.0  0.57338  0.49836  0.65588  1.0000
  F   F219      1.0  0.56833  0.98672  0.17086  1.0000
  F   F220      1.0  0.56643  0.98787  0.67122  1.0000
  F   F221      1.0  0.82385  0.49048  0.16619  1.0000
  F   F222      1.0  0.82147  0.50295  0.65704  1.0000
  F   F223      1.0  0.82386  0.96638  0.17191  1.0000
  F   F224      1.0  0.82047  0.98308  0.69929  1.0000
  F   F225      1.0  0.24009  0.13024  0.44374  1.0000
  F   F226      1.0  0.23859  0.13325  0.93570  1.0000
  F   F227      1.0  0.24379  0.63763  0.42278  1.0000
  F   F228      1.0  0.24319  0.62990  0.93150  1.0000
  F   F229      1.0  0.49262  0.15138  0.41092  1.0000
  F   F230      1.0  0.49487  0.14132  0.92960  1.0000
  F   F231      1.0  0.48796  0.65114  0.42021  1.0000
  F   F232      1.0  0.49392  0.63575  0.92906  1.0000
  F   F233      1.0  0.74283  0.13741  0.41883  1.0000
  F   F234      1.0  0.74293  0.15325  0.91161  1.0000
  F   F235      1.0  0.74181  0.63394  0.43497  1.0000
  F   F236      1.0  0.74402  0.63778  0.91912  1.0000
  F   F237      1.0  0.98794  0.14765  0.42373  1.0000
  F   F238      1.0  0.99045  0.13906  0.92105  1.0000
  F   F239      1.0  0.98901  0.63992  0.41550  1.0000
  F   F240      1.0  0.99660  0.63989  0.91934  1.0000
  F   F241      1.0  0.17928  0.00665  0.33786  1.0000
  F   F242      1.0  0.18266  0.00726  0.83657  1.0000
  F   F243      1.0  0.17873  0.50960  0.32519  1.0000
  F   F244      1.0  0.18078  0.51728  0.82100  1.0000
  F   F245      1.0  0.43309  0.01851  0.31991  1.0000
  F   F246      1.0  0.43040  0.01791  0.83306  1.0000
  F   F247      1.0  0.42810  0.50069  0.33039  1.0000
  F   F248      1.0  0.43120  0.51595  0.81533  1.0000
  F   F249      1.0  0.67808  0.01441  0.31963  1.0000
  F   F250      1.0  0.68104  0.02075  0.81977  1.0000
  F   F251      1.0  0.67762  0.51181  0.33990  1.0000
  F   F252      1.0  0.68200  0.52361  0.81410  1.0000
  F   F253      1.0  0.92796  0.01443  0.33162  1.0000
  F   F254      1.0  0.93136  0.02077  0.82167  1.0000
  F   F255      1.0  0.93001  0.52478  0.31323  1.0000
  F   F256      1.0  0.93133  0.50711  0.83038  1.0000
  F   F257      1.0  0.99808  0.24902  0.00716  1.0000
  F   F258      1.0  0.00200  0.25330  0.49612  1.0000
  F   F259      1.0  0.00372  0.75418  0.99447  1.0000
  F   F260      1.0  0.99924  0.75379  0.50107  1.0000
  F   F261      1.0  0.25041  0.26871  0.98396  1.0000
  F   F262      1.0  0.25126  0.25858  0.49213  1.0000
  F   F263      1.0  0.25225  0.74968  0.00606  1.0000
  F   F264      1.0  0.25212  0.74166  0.50224  1.0000
  F   F265      1.0  0.50265  0.25980  0.99092  1.0000
  F   F266      1.0  0.49806  0.25213  0.49776  1.0000
  F   F267      1.0  0.50033  0.75984  0.99249  1.0000
  F   F268      1.0  0.49822  0.74547  0.50704  1.0000
  F   F269      1.0  0.75027  0.24079  0.00280  1.0000
  F   F270      1.0  0.75274  0.26869  0.48225  1.0000
  F   F271      1.0  0.75470  0.74611  0.00412  1.0000
  F   F272      1.0  0.74654  0.76366  0.47905  1.0000
  F   F273      1.0  0.12354  0.99809  0.24901  1.0000
  F   F274      1.0  0.12491  0.99031  0.75764  1.0000
  F   F275      1.0  0.11777  0.48981  0.25642  1.0000
  F   F276      1.0  0.11247  0.49246  0.76935  1.0000
  F   F277      1.0  0.37510  0.98766  0.25289  1.0000
  F   F278      1.0  0.36312  0.98432  0.78722  1.0000
  F   F279      1.0  0.36498  0.48760  0.26506  1.0000
  F   F280      1.0  0.37569  0.49870  0.74894  1.0000
  F   F281      1.0  0.62287  0.99463  0.25056  1.0000
  F   F282      1.0  0.62470  0.00900  0.74344  1.0000
  F   F283      1.0  0.62674  0.49741  0.24973  1.0000
  F   F284      1.0  0.62076  0.49989  0.75236  1.0000
  F   F285      1.0  0.87562  0.99681  0.24627  1.0000
  F   F286      1.0  0.88794  0.00508  0.73981  1.0000
  F   F287      1.0  0.86733  0.50492  0.26545  1.0000
  F   F288      1.0  0.87722  0.49331  0.75203  1.0000
  F   F289      1.0  0.03864  0.03182  0.01564  1.0000
  F   F290      1.0  0.03262  0.02578  0.52602  1.0000
  F   F291      1.0  0.04935  0.53229  0.00511  1.0000
  F   F292      1.0  0.04003  0.53637  0.51412  1.0000
  F   F293      1.0  0.29948  0.02585  0.01411  1.0000
  F   F294      1.0  0.29094  0.02475  0.52571  1.0000
  F   F295      1.0  0.29220  0.53047  0.02922  1.0000
  F   F296      1.0  0.28360  0.53129  0.54471  1.0000
  F   F297      1.0  0.54474  0.02109  0.02288  1.0000
  F   F298      1.0  0.54336  0.04178  0.51137  1.0000
  F   F299      1.0  0.54560  0.53399  0.01741  1.0000
  F   F300      1.0  0.53758  0.54066  0.51859  1.0000
  F   F301      1.0  0.79590  0.03756  0.01012  1.0000
  F   F302      1.0  0.79542  0.02599  0.52577  1.0000
  F   F303      1.0  0.79399  0.53246  0.02755  1.0000
  F   F304      1.0  0.79759  0.53783  0.50732  1.0000
  F   F305      1.0  0.23476  0.41243  0.23719  1.0000
  F   F306      1.0  0.22797  0.41024  0.74156  1.0000
  F   F307      1.0  0.22840  0.91349  0.22731  1.0000
  F   F308      1.0  0.23453  0.92067  0.72783  1.0000
  F   F309      1.0  0.48680  0.41125  0.22880  1.0000
  F   F310      1.0  0.48447  0.40052  0.73891  1.0000
  F   F311      1.0  0.48694  0.91112  0.21853  1.0000
  F   F312      1.0  0.48325  0.91946  0.72964  1.0000
  F   F313      1.0  0.73244  0.42148  0.22174  1.0000
  F   F314      1.0  0.74152  0.42439  0.71443  1.0000
  F   F315      1.0  0.73515  0.91293  0.22090  1.0000
  F   F316      1.0  0.74093  0.91969  0.72215  1.0000
  F   F317      1.0  0.98649  0.40547  0.22912  1.0000
  F   F318      1.0  0.98430  0.39848  0.72685  1.0000
  F   F319      1.0  0.98667  0.90692  0.22473  1.0000
  F   F320      1.0  0.98163  0.90279  0.73554  1.0000
  F   F321      1.0  0.21124  0.47076  0.46006  1.0000
  F   F322      1.0  0.20586  0.46823  0.98866  1.0000
  F   F323      1.0  0.21463  0.95186  0.48193  1.0000
  F   F324      1.0  0.20329  0.96260  0.00032  1.0000
  F   F325      1.0  0.45179  0.46570  0.47698  1.0000
  F   F326      1.0  0.46037  0.47397  0.96560  1.0000
  F   F327      1.0  0.45749  0.98128  0.47777  1.0000
  F   F328      1.0  0.45745  0.97185  0.98664  1.0000
  F   F329      1.0  0.71434  0.47336  0.46412  1.0000
  F   F330      1.0  0.70563  0.47664  0.97635  1.0000
  F   F331      1.0  0.70362  0.96699  0.47227  1.0000
  F   F332      1.0  0.70556  0.97745  0.97059  1.0000
  F   F333      1.0  0.95583  0.47255  0.47346  1.0000
  F   F334      1.0  0.96627  0.47415  0.97119  1.0000
  F   F335      1.0  0.95224  0.96842  0.48478  1.0000
  F   F336      1.0  0.95476  0.96951  0.98496  1.0000
  F   F337      1.0  0.00909  0.08984  0.27581  1.0000
  F   F338      1.0  0.01349  0.07478  0.77723  1.0000
  F   F339      1.0  0.01014  0.59063  0.26763  1.0000
  F   F340      1.0  0.01897  0.58669  0.77194  1.0000
  F   F341      1.0  0.26504  0.07170  0.28798  1.0000
  F   F342      1.0  0.25742  0.09572  0.77323  1.0000
  F   F343      1.0  0.26932  0.59269  0.26737  1.0000
  F   F344      1.0  0.26802  0.59412  0.77927  1.0000
  F   F345      1.0  0.51981  0.07009  0.27450  1.0000
  F   F346      1.0  0.51956  0.08794  0.77922  1.0000
  F   F347      1.0  0.50978  0.58304  0.27641  1.0000
  F   F348      1.0  0.51671  0.59568  0.75629  1.0000
  F   F349      1.0  0.76557  0.07262  0.28137  1.0000
  F   F350      1.0  0.76156  0.08826  0.77053  1.0000
  F   F351      1.0  0.76424  0.60123  0.26401  1.0000
  F   F352      1.0  0.76744  0.60303  0.75865  1.0000
  F   F353      1.0  0.10088  0.42723  0.46282  1.0000
  F   F354      1.0  0.09551  0.39665  0.96439  1.0000
  F   F355      1.0  0.09460  0.91324  0.46621  1.0000
  F   F356      1.0  0.10065  0.90230  0.96394  1.0000
  F   F357      1.0  0.34930  0.41545  0.46913  1.0000
  F   F358      1.0  0.35569  0.40196  0.96559  1.0000
  F   F359      1.0  0.35626  0.90207  0.45020  1.0000
  F   F360      1.0  0.35200  0.89155  0.97462  1.0000
  F   F361      1.0  0.60125  0.40556  0.46617  1.0000
  F   F362      1.0  0.60579  0.41895  0.94761  1.0000
  F   F363      1.0  0.60216  0.92198  0.45341  1.0000
  F   F364      1.0  0.60230  0.88436  0.96452  1.0000
  F   F365      1.0  0.84978  0.41117  0.45345  1.0000
  F   F366      1.0  0.84921  0.41430  0.97247  1.0000
  F   F367      1.0  0.85408  0.90408  0.46498  1.0000
  F   F368      1.0  0.85081  0.91198  0.96087  1.0000
  F   F369      1.0  0.05570  0.29367  0.28347  1.0000
  F   F370      1.0  0.04729  0.29321  0.79186  1.0000
  F   F371      1.0  0.05604  0.78217  0.27879  1.0000
  F   F372      1.0  0.04276  0.79442  0.78342  1.0000
  F   F373      1.0  0.29922  0.28995  0.28715  1.0000
  F   F374      1.0  0.29376  0.28691  0.79658  1.0000
  F   F375      1.0  0.29594  0.80165  0.28732  1.0000
  F   F376      1.0  0.29651  0.80015  0.79354  1.0000
  F   F377      1.0  0.55220  0.31042  0.27504  1.0000
  F   F378      1.0  0.55245  0.30345  0.78458  1.0000
  F   F379      1.0  0.54663  0.79830  0.28869  1.0000
  F   F380      1.0  0.53443  0.80262  0.78830  1.0000
  F   F381      1.0  0.78805  0.30396  0.29234  1.0000
  F   F382      1.0  0.80385  0.29995  0.78079  1.0000
  F   F383      1.0  0.78843  0.80118  0.29487  1.0000
  F   F384      1.0  0.79441  0.78973  0.78639  1.0000
