data_image0
_chemical_formula_structural       Hf96F384
_chemical_formula_sum              "Hf96 F384"
_cell_length_a       31.0137
_cell_length_b       15.5064
_cell_length_c       15.5001
_cell_angle_alpha    63.342
_cell_angle_beta     63.342
_cell_angle_gamma    80.1625

_space_group_name_H-M_alt    "P 1"
_space_group_IT_number       1

loop_
  _space_group_symop_operation_xyz
  'x, y, z'

loop_
  _atom_site_type_symbol
  _atom_site_label
  _atom_site_symmetry_multiplicity
  _atom_site_fract_x
  _atom_site_fract_y
  _atom_site_fract_z
  _atom_site_occupancy
  Hf  Hf1       1.0  0.19764  0.11291  0.37567  1.0000
  Hf  Hf2       1.0  0.19904  0.11213  0.87618  1.0000
  Hf  Hf3       1.0  0.19860  0.60518  0.37895  1.0000
  Hf  Hf4       1.0  0.19506  0.60712  0.87028  1.0000
  Hf  Hf5       1.0  0.44826  0.10557  0.37331  1.0000
  Hf  Hf6       1.0  0.44610  0.10250  0.87978  1.0000
  Hf  Hf7       1.0  0.44635  0.60721  0.37914  1.0000
  Hf  Hf8       1.0  0.44443  0.60296  0.88168  1.0000
  Hf  Hf9       1.0  0.69843  0.10041  0.37423  1.0000
  Hf  Hf10      1.0  0.69624  0.10533  0.87695  1.0000
  Hf  Hf11      1.0  0.69748  0.60133  0.37705  1.0000
  Hf  Hf12      1.0  0.69934  0.60072  0.87650  1.0000
  Hf  Hf13      1.0  0.94756  0.11282  0.36625  1.0000
  Hf  Hf14      1.0  0.94743  0.10497  0.87459  1.0000
  Hf  Hf15      1.0  0.94613  0.60998  0.37358  1.0000
  Hf  Hf16      1.0  0.94958  0.61711  0.86282  1.0000
  Hf  Hf17      1.0  0.05187  0.39417  0.12142  1.0000
  Hf  Hf18      1.0  0.05506  0.39512  0.62562  1.0000
  Hf  Hf19      1.0  0.05440  0.89714  0.11851  1.0000
  Hf  Hf20      1.0  0.05208  0.89738  0.63019  1.0000
  Hf  Hf21      1.0  0.30439  0.39214  0.12270  1.0000
  Hf  Hf22      1.0  0.30519  0.40584  0.61644  1.0000
  Hf  Hf23      1.0  0.30336  0.89536  0.12187  1.0000
  Hf  Hf24      1.0  0.30453  0.89392  0.62048  1.0000
  Hf  Hf25      1.0  0.55629  0.39069  0.13351  1.0000
  Hf  Hf26      1.0  0.55332  0.39410  0.62310  1.0000
  Hf  Hf27      1.0  0.55521  0.89524  0.13147  1.0000
  Hf  Hf28      1.0  0.55022  0.88387  0.63961  1.0000
  Hf  Hf29      1.0  0.80294  0.39205  0.12705  1.0000
  Hf  Hf30      1.0  0.80314  0.39565  0.62468  1.0000
  Hf  Hf31      1.0  0.80204  0.89940  0.12515  1.0000
  Hf  Hf32      1.0  0.80266  0.89519  0.62471  1.0000
  Hf  Hf33      1.0  0.05650  0.18102  0.41860  1.0000
  Hf  Hf34      1.0  0.05522  0.18584  0.91665  1.0000
  Hf  Hf35      1.0  0.05422  0.68714  0.41163  1.0000
  Hf  Hf36      1.0  0.05536  0.68228  0.91438  1.0000
  Hf  Hf37      1.0  0.30630  0.18234  0.42013  1.0000
  Hf  Hf38      1.0  0.31002  0.18945  0.91053  1.0000
  Hf  Hf39      1.0  0.30650  0.69005  0.41176  1.0000
  Hf  Hf40      1.0  0.30353  0.68592  0.91845  1.0000
  Hf  Hf41      1.0  0.55563  0.17735  0.42040  1.0000
  Hf  Hf42      1.0  0.55479  0.18108  0.91930  1.0000
  Hf  Hf43      1.0  0.55798  0.68177  0.41661  1.0000
  Hf  Hf44      1.0  0.55858  0.67266  0.91956  1.0000
  Hf  Hf45      1.0  0.80384  0.17671  0.42151  1.0000
  Hf  Hf46      1.0  0.80480  0.18371  0.91391  1.0000
  Hf  Hf47      1.0  0.80657  0.69016  0.41124  1.0000
  Hf  Hf48      1.0  0.80596  0.68044  0.92200  1.0000
  Hf  Hf49      1.0  0.15974  0.39191  0.32646  1.0000
  Hf  Hf50      1.0  0.15734  0.39485  0.82760  1.0000
  Hf  Hf51      1.0  0.15793  0.88331  0.33401  1.0000
  Hf  Hf52      1.0  0.15832  0.89045  0.83302  1.0000
  Hf  Hf53      1.0  0.40901  0.38804  0.33744  1.0000
  Hf  Hf54      1.0  0.40781  0.38827  0.83337  1.0000
  Hf  Hf55      1.0  0.40996  0.89088  0.33006  1.0000
  Hf  Hf56      1.0  0.40789  0.89148  0.82926  1.0000
  Hf  Hf57      1.0  0.65529  0.38568  0.33623  1.0000
  Hf  Hf58      1.0  0.65826  0.38430  0.83240  1.0000
  Hf  Hf59      1.0  0.65399  0.88321  0.34463  1.0000
  Hf  Hf60      1.0  0.65310  0.87773  0.84523  1.0000
  Hf  Hf61      1.0  0.90660  0.38963  0.33483  1.0000
  Hf  Hf62      1.0  0.91120  0.39135  0.82563  1.0000
  Hf  Hf63      1.0  0.90897  0.88874  0.33056  1.0000
  Hf  Hf64      1.0  0.90444  0.88510  0.83944  1.0000
  Hf  Hf65      1.0  0.19239  0.31768  0.07879  1.0000
  Hf  Hf66      1.0  0.19679  0.31643  0.58327  1.0000
  Hf  Hf67      1.0  0.19297  0.81179  0.08855  1.0000
  Hf  Hf68      1.0  0.19300  0.81882  0.58186  1.0000
  Hf  Hf69      1.0  0.44275  0.31243  0.09020  1.0000
  Hf  Hf70      1.0  0.44151  0.31645  0.58852  1.0000
  Hf  Hf71      1.0  0.45070  0.81618  0.07480  1.0000
  Hf  Hf72      1.0  0.44028  0.80423  0.59685  1.0000
  Hf  Hf73      1.0  0.69768  0.32085  0.07496  1.0000
  Hf  Hf74      1.0  0.69484  0.31386  0.58666  1.0000
  Hf  Hf75      1.0  0.69372  0.82003  0.08236  1.0000
  Hf  Hf76      1.0  0.68937  0.81531  0.59243  1.0000
  Hf  Hf77      1.0  0.94694  0.32481  0.07054  1.0000
  Hf  Hf78      1.0  0.94152  0.31315  0.58355  1.0000
  Hf  Hf79      1.0  0.94417  0.81030  0.08144  1.0000
  Hf  Hf80      1.0  0.94463  0.83089  0.57219  1.0000
  Hf  Hf81      1.0  0.09240  0.11090  0.16246  1.0000
  Hf  Hf82      1.0  0.08874  0.11538  0.66706  1.0000
  Hf  Hf83      1.0  0.09044  0.61420  0.16503  1.0000
  Hf  Hf84      1.0  0.09192  0.61263  0.66169  1.0000
  Hf  Hf85      1.0  0.34446  0.10896  0.16638  1.0000
  Hf  Hf86      1.0  0.34239  0.11801  0.66495  1.0000
  Hf  Hf87      1.0  0.33923  0.61311  0.16834  1.0000
  Hf  Hf88      1.0  0.33911  0.61158  0.67067  1.0000
  Hf  Hf89      1.0  0.59322  0.11273  0.16366  1.0000
  Hf  Hf90      1.0  0.58801  0.10088  0.67812  1.0000
  Hf  Hf91      1.0  0.59125  0.60699  0.16857  1.0000
  Hf  Hf92      1.0  0.59369  0.61061  0.66467  1.0000
  Hf  Hf93      1.0  0.84448  0.11629  0.16257  1.0000
  Hf  Hf94      1.0  0.83932  0.10719  0.66946  1.0000
  Hf  Hf95      1.0  0.83928  0.60887  0.16605  1.0000
  Hf  Hf96      1.0  0.84160  0.62071  0.66103  1.0000
  F   F1        1.0  0.08831  0.14602  0.29152  1.0000
  F   F2        1.0  0.07730  0.13700  0.79044  1.0000
  F   F3        1.0  0.07928  0.63208  0.30051  1.0000
  F   F4        1.0  0.07565  0.61831  0.80645  1.0000
  F   F5        1.0  0.33141  0.12677  0.30284  1.0000
  F   F6        1.0  0.32842  0.13174  0.80529  1.0000
  F   F7        1.0  0.32919  0.62775  0.30652  1.0000
  F   F8        1.0  0.33208  0.63086  0.80325  1.0000
  F   F9        1.0  0.58146  0.11800  0.31036  1.0000
  F   F10       1.0  0.58065  0.12038  0.81515  1.0000
  F   F11       1.0  0.58252  0.62709  0.30701  1.0000
  F   F12       1.0  0.57672  0.62067  0.80763  1.0000
  F   F13       1.0  0.83205  0.13100  0.30624  1.0000
  F   F14       1.0  0.82104  0.12932  0.81217  1.0000
  F   F15       1.0  0.83006  0.63878  0.29834  1.0000
  F   F16       1.0  0.82606  0.64079  0.79815  1.0000
  F   F17       1.0  0.18568  0.34412  0.44735  1.0000
  F   F18       1.0  0.19144  0.35376  0.93657  1.0000
  F   F19       1.0  0.19028  0.84529  0.43808  1.0000
  F   F20       1.0  0.17850  0.82993  0.95560  1.0000
  F   F21       1.0  0.41842  0.31729  0.47758  1.0000
  F   F22       1.0  0.43493  0.33544  0.94595  1.0000
  F   F23       1.0  0.44377  0.84920  0.43800  1.0000
  F   F24       1.0  0.43437  0.84246  0.94115  1.0000
  F   F25       1.0  0.67989  0.33744  0.44934  1.0000
  F   F26       1.0  0.69640  0.35921  0.93121  1.0000
  F   F27       1.0  0.68342  0.84465  0.45216  1.0000
  F   F28       1.0  0.68489  0.83809  0.95612  1.0000
  F   F29       1.0  0.93038  0.32801  0.45166  1.0000
  F   F30       1.0  0.94334  0.34730  0.93666  1.0000
  F   F31       1.0  0.94101  0.84508  0.43425  1.0000
  F   F32       1.0  0.93236  0.84169  0.94817  1.0000
  F   F33       1.0  0.16512  0.37488  0.19204  1.0000
  F   F34       1.0  0.16941  0.36507  0.70428  1.0000
  F   F35       1.0  0.17393  0.86560  0.19660  1.0000
  F   F36       1.0  0.17057  0.86899  0.70046  1.0000
  F   F37       1.0  0.41795  0.36144  0.20628  1.0000
  F   F38       1.0  0.41800  0.36796  0.70457  1.0000
  F   F39       1.0  0.42234  0.87067  0.19521  1.0000
  F   F40       1.0  0.42095  0.86861  0.69238  1.0000
  F   F41       1.0  0.67122  0.35983  0.20174  1.0000
  F   F42       1.0  0.67321  0.37454  0.69004  1.0000
  F   F43       1.0  0.66913  0.86884  0.20446  1.0000
  F   F44       1.0  0.66710  0.87238  0.70687  1.0000
  F   F45       1.0  0.92622  0.37720  0.18705  1.0000
  F   F46       1.0  0.92187  0.38496  0.69518  1.0000
  F   F47       1.0  0.92372  0.86851  0.19307  1.0000
  F   F48       1.0  0.91758  0.87755  0.69574  1.0000
  F   F49       1.0  0.07236  0.18125  0.03763  1.0000
  F   F50       1.0  0.05838  0.16046  0.55856  1.0000
  F   F51       1.0  0.06241  0.66099  0.05344  1.0000
  F   F52       1.0  0.07068  0.66802  0.53972  1.0000
  F   F53       1.0  0.31734  0.14988  0.05822  1.0000
  F   F54       1.0  0.31077  0.16030  0.55785  1.0000
  F   F55       1.0  0.30911  0.65888  0.06175  1.0000
  F   F56       1.0  0.32666  0.66910  0.54056  1.0000
  F   F57       1.0  0.56875  0.16887  0.04644  1.0000
  F   F58       1.0  0.56155  0.15430  0.56532  1.0000
  F   F59       1.0  0.55914  0.64278  0.06164  1.0000
  F   F60       1.0  0.56870  0.66089  0.54956  1.0000
  F   F61       1.0  0.82108  0.16292  0.04375  1.0000
  F   F62       1.0  0.80086  0.14670  0.57249  1.0000
  F   F63       1.0  0.80742  0.64469  0.06537  1.0000
  F   F64       1.0  0.81229  0.65316  0.55058  1.0000
  F   F65       1.0  0.20354  0.20207  0.21100  1.0000
  F   F66       1.0  0.21395  0.20453  0.70813  1.0000
  F   F67       1.0  0.20628  0.69242  0.22039  1.0000
  F   F68       1.0  0.19945  0.69164  0.71047  1.0000
  F   F69       1.0  0.45090  0.20339  0.21572  1.0000
  F   F70       1.0  0.46195  0.20597  0.69900  1.0000
  F   F71       1.0  0.45791  0.69795  0.21212  1.0000
  F   F72       1.0  0.44866  0.69091  0.72399  1.0000
  F   F73       1.0  0.70377  0.19071  0.21697  1.0000
  F   F74       1.0  0.71104  0.19995  0.71194  1.0000
  F   F75       1.0  0.70093  0.69915  0.22497  1.0000
  F   F76       1.0  0.70303  0.69915  0.72035  1.0000
  F   F77       1.0  0.95499  0.20037  0.21072  1.0000
  F   F78       1.0  0.94928  0.20808  0.71361  1.0000
  F   F79       1.0  0.96128  0.69180  0.20953  1.0000
  F   F80       1.0  0.95100  0.70349  0.70443  1.0000
  F   F81       1.0  0.15040  0.08632  0.03743  1.0000
  F   F82       1.0  0.14688  0.09215  0.54141  1.0000
  F   F83       1.0  0.14544  0.59614  0.03582  1.0000
  F   F84       1.0  0.14574  0.58126  0.53633  1.0000
  F   F85       1.0  0.40287  0.07001  0.03749  1.0000
  F   F86       1.0  0.40081  0.10297  0.54689  1.0000
  F   F87       1.0  0.39457  0.59368  0.04344  1.0000
  F   F88       1.0  0.40333  0.59666  0.53546  1.0000
  F   F89       1.0  0.65507  0.08802  0.03971  1.0000
  F   F90       1.0  0.64717  0.10158  0.54562  1.0000
  F   F91       1.0  0.64980  0.58131  0.04175  1.0000
  F   F92       1.0  0.65550  0.60324  0.53972  1.0000
  F   F93       1.0  0.90448  0.08546  0.04200  1.0000
  F   F94       1.0  0.89686  0.09434  0.54528  1.0000
  F   F95       1.0  0.89986  0.60360  0.03106  1.0000
  F   F96       1.0  0.90250  0.59677  0.52946  1.0000
  F   F97       1.0  0.15649  0.19955  0.09591  1.0000
  F   F98       1.0  0.15490  0.19309  0.64726  1.0000
  F   F99       1.0  0.15478  0.67743  0.13366  1.0000
  F   F100      1.0  0.14643  0.70402  0.61724  1.0000
  F   F101      1.0  0.40647  0.17812  0.11873  1.0000
  F   F102      1.0  0.39769  0.19689  0.64470  1.0000
  F   F103      1.0  0.40065  0.70733  0.12072  1.0000
  F   F104      1.0  0.39907  0.69617  0.62563  1.0000
  F   F105      1.0  0.65233  0.20813  0.10848  1.0000
  F   F106      1.0  0.64603  0.20414  0.65476  1.0000
  F   F107      1.0  0.65691  0.68685  0.12260  1.0000
  F   F108      1.0  0.64895  0.69992  0.63722  1.0000
  F   F109      1.0  0.90768  0.19129  0.11827  1.0000
  F   F110      1.0  0.89171  0.19014  0.65116  1.0000
  F   F111      1.0  0.90340  0.68888  0.13211  1.0000
  F   F112      1.0  0.89702  0.70796  0.62444  1.0000
  F   F113      1.0  0.10725  0.29297  0.39744  1.0000
  F   F114      1.0  0.09611  0.31086  0.87013  1.0000
  F   F115      1.0  0.09579  0.81435  0.35851  1.0000
  F   F116      1.0  0.10124  0.80244  0.88373  1.0000
  F   F117      1.0  0.34865  0.30594  0.38391  1.0000
  F   F118      1.0  0.35013  0.30268  0.88568  1.0000
  F   F119      1.0  0.35042  0.80491  0.36881  1.0000
  F   F120      1.0  0.35449  0.79681  0.87299  1.0000
  F   F121      1.0  0.59745  0.29343  0.37395  1.0000
  F   F122      1.0  0.59876  0.30498  0.87117  1.0000
  F   F123      1.0  0.59783  0.80096  0.36943  1.0000
  F   F124      1.0  0.59224  0.79318  0.88232  1.0000
  F   F125      1.0  0.84847  0.29619  0.38365  1.0000
  F   F126      1.0  0.84688  0.29468  0.85851  1.0000
  F   F127      1.0  0.85030  0.81526  0.35293  1.0000
  F   F128      1.0  0.84185  0.80037  0.89583  1.0000
  F   F129      1.0  0.04947  0.24232  0.16957  1.0000
  F   F130      1.0  0.06532  0.26011  0.63307  1.0000
  F   F131      1.0  0.06313  0.75233  0.14456  1.0000
  F   F132      1.0  0.06337  0.75509  0.64320  1.0000
  F   F133      1.0  0.31449  0.25697  0.13951  1.0000
  F   F134      1.0  0.31569  0.26220  0.63338  1.0000
  F   F135      1.0  0.31480  0.75388  0.14164  1.0000
  F   F136      1.0  0.30726  0.75071  0.66001  1.0000
  F   F137      1.0  0.56628  0.24910  0.15304  1.0000
  F   F138      1.0  0.55585  0.25261  0.65557  1.0000
  F   F139      1.0  0.57119  0.74322  0.13271  1.0000
  F   F140      1.0  0.56565  0.75181  0.63537  1.0000
  F   F141      1.0  0.81896  0.25217  0.14126  1.0000
  F   F142      1.0  0.81173  0.25842  0.63394  1.0000
  F   F143      1.0  0.81666  0.75233  0.13080  1.0000
  F   F144      1.0  0.80426  0.74822  0.64657  1.0000
  F   F145      1.0  0.12271  0.35079  0.11223  1.0000
  F   F146      1.0  0.12477  0.36699  0.62602  1.0000
  F   F147      1.0  0.12118  0.86347  0.12811  1.0000
  F   F148      1.0  0.12490  0.87724  0.60131  1.0000
  F   F149      1.0  0.37506  0.36899  0.11109  1.0000
  F   F150      1.0  0.37183  0.38652  0.61026  1.0000
  F   F151      1.0  0.37613  0.87471  0.09379  1.0000
  F   F152      1.0  0.37408  0.86445  0.60571  1.0000
  F   F153      1.0  0.62923  0.38781  0.09808  1.0000
  F   F154      1.0  0.62377  0.38316  0.59904  1.0000
  F   F155      1.0  0.62669  0.88632  0.09449  1.0000
  F   F156      1.0  0.62473  0.87192  0.60241  1.0000
  F   F157      1.0  0.87482  0.37345  0.10739  1.0000
  F   F158      1.0  0.87779  0.38697  0.58945  1.0000
  F   F159      1.0  0.87391  0.86788  0.11552  1.0000
  F   F160      1.0  0.87804  0.88842  0.58503  1.0000
  F   F161      1.0  0.19788  0.25536  0.34903  1.0000
  F   F162      1.0  0.18485  0.24629  0.87172  1.0000
  F   F163      1.0  0.18210  0.74258  0.37321  1.0000
  F   F164      1.0  0.19259  0.75271  0.84286  1.0000
  F   F165      1.0  0.44795  0.24554  0.34558  1.0000
  F   F166      1.0  0.43105  0.24005  0.86087  1.0000
  F   F167      1.0  0.44098  0.75018  0.35332  1.0000
  F   F168      1.0  0.43718  0.75078  0.85033  1.0000
  F   F169      1.0  0.68723  0.24565  0.34886  1.0000
  F   F170      1.0  0.68114  0.25192  0.85799  1.0000
  F   F171      1.0  0.68385  0.74448  0.36727  1.0000
  F   F172      1.0  0.67747  0.73761  0.87525  1.0000
  F   F173      1.0  0.93460  0.24770  0.35753  1.0000
  F   F174      1.0  0.93638  0.24812  0.86978  1.0000
  F   F175      1.0  0.93319  0.75568  0.35734  1.0000
  F   F176      1.0  0.93786  0.75523  0.84831  1.0000
  F   F177      1.0  0.12813  0.13087  0.39190  1.0000
  F   F178      1.0  0.12949  0.14141  0.86876  1.0000
  F   F179      1.0  0.12427  0.63025  0.38788  1.0000
  F   F180      1.0  0.12425  0.63484  0.88720  1.0000
  F   F181      1.0  0.37503  0.12219  0.39873  1.0000
  F   F182      1.0  0.37492  0.12616  0.89095  1.0000
  F   F183      1.0  0.37714  0.62788  0.38898  1.0000
  F   F184      1.0  0.37345  0.62878  0.89475  1.0000
  F   F185      1.0  0.62227  0.11817  0.40655  1.0000
  F   F186      1.0  0.62839  0.13110  0.88907  1.0000
  F   F187      1.0  0.62511  0.61622  0.41071  1.0000
  F   F188      1.0  0.62733  0.63301  0.88982  1.0000
  F   F189      1.0  0.87596  0.10426  0.40960  1.0000
  F   F190      1.0  0.87467  0.11247  0.90034  1.0000
  F   F191      1.0  0.87668  0.63276  0.38712  1.0000
  F   F192      1.0  0.87141  0.62988  0.89961  1.0000
  F   F193      1.0  0.01107  0.37392  0.05912  1.0000
  F   F194      1.0  0.00734  0.36191  0.57568  1.0000
  F   F195      1.0  0.00742  0.85877  0.07060  1.0000
  F   F196      1.0  0.00621  0.86329  0.57009  1.0000
  F   F197      1.0  0.25250  0.37038  0.06875  1.0000
  F   F198      1.0  0.26273  0.37811  0.55404  1.0000
  F   F199      1.0  0.26221  0.86639  0.06874  1.0000
  F   F200      1.0  0.25423  0.85855  0.56537  1.0000
  F   F201      1.0  0.50427  0.35511  0.08396  1.0000
  F   F202      1.0  0.50495  0.37669  0.57011  1.0000
  F   F203      1.0  0.50940  0.85367  0.09159  1.0000
  F   F204      1.0  0.50706  0.85069  0.57556  1.0000
  F   F205      1.0  0.75960  0.34208  0.08483  1.0000
  F   F206      1.0  0.75957  0.36868  0.56476  1.0000
  F   F207      1.0  0.75672  0.84937  0.09068  1.0000
  F   F208      1.0  0.75538  0.86991  0.57918  1.0000
  F   F209      1.0  0.07395  0.49275  0.14366  1.0000
  F   F210      1.0  0.06075  0.48591  0.69260  1.0000
  F   F211      1.0  0.07071  0.00071  0.14477  1.0000
  F   F212      1.0  0.06929  0.97979  0.67447  1.0000
  F   F213      1.0  0.31662  0.48620  0.17838  1.0000
  F   F214      1.0  0.31976  0.50047  0.66575  1.0000
  F   F215      1.0  0.31232  0.97561  0.19413  1.0000
  F   F216      1.0  0.31869  0.98380  0.66992  1.0000
  F   F217      1.0  0.56388  0.47463  0.19503  1.0000
  F   F218      1.0  0.56501  0.48115  0.68812  1.0000
  F   F219      1.0  0.57154  0.99052  0.17293  1.0000
  F   F220      1.0  0.56837  0.97530  0.69166  1.0000
  F   F221      1.0  0.82075  0.48279  0.18146  1.0000
  F   F222      1.0  0.82403  0.48138  0.67375  1.0000
  F   F223      1.0  0.82304  0.99249  0.15543  1.0000
  F   F224      1.0  0.81898  0.98561  0.66951  1.0000
  F   F225      1.0  0.24551  0.12179  0.44408  1.0000
  F   F226      1.0  0.24497  0.14575  0.91737  1.0000
  F   F227      1.0  0.24238  0.63263  0.42520  1.0000
  F   F228      1.0  0.24068  0.63626  0.93586  1.0000
  F   F229      1.0  0.49709  0.13532  0.42257  1.0000
  F   F230      1.0  0.49045  0.13173  0.93351  1.0000
  F   F231      1.0  0.49434  0.62805  0.42496  1.0000
  F   F232      1.0  0.49466  0.62309  0.92869  1.0000
  F   F233      1.0  0.74271  0.14648  0.41407  1.0000
  F   F234      1.0  0.74176  0.14150  0.91887  1.0000
  F   F235      1.0  0.74599  0.63443  0.42301  1.0000
  F   F236      1.0  0.74746  0.64990  0.90940  1.0000
  F   F237      1.0  0.99960  0.14808  0.41168  1.0000
  F   F238      1.0  0.99583  0.14798  0.90923  1.0000
  F   F239      1.0  0.99207  0.63765  0.41860  1.0000
  F   F240      1.0  0.99367  0.64068  0.92237  1.0000
  F   F241      1.0  0.17701  0.01552  0.31773  1.0000
  F   F242      1.0  0.18243  0.01477  0.82185  1.0000
  F   F243      1.0  0.18330  0.51066  0.32132  1.0000
  F   F244      1.0  0.18141  0.51935  0.81608  1.0000
  F   F245      1.0  0.42594  0.02068  0.32823  1.0000
  F   F246      1.0  0.43245  0.02053  0.82304  1.0000
  F   F247      1.0  0.43544  0.51399  0.32479  1.0000
  F   F248      1.0  0.43283  0.52034  0.82312  1.0000
  F   F249      1.0  0.67908  0.00522  0.33425  1.0000
  F   F250      1.0  0.67982  0.00933  0.82742  1.0000
  F   F251      1.0  0.68151  0.51079  0.32316  1.0000
  F   F252      1.0  0.67409  0.51738  0.83843  1.0000
  F   F253      1.0  0.93343  0.01848  0.30516  1.0000
  F   F254      1.0  0.93024  0.01226  0.81911  1.0000
  F   F255      1.0  0.93464  0.50578  0.33523  1.0000
  F   F256      1.0  0.92845  0.53081  0.80753  1.0000
  F   F257      1.0  0.00063  0.25011  0.00184  1.0000
  F   F258      1.0  0.99586  0.24873  0.50142  1.0000
  F   F259      1.0  0.00524  0.76837  0.98276  1.0000
  F   F260      1.0  0.99888  0.74664  0.50018  1.0000
  F   F261      1.0  0.25664  0.24876  0.00036  1.0000
  F   F262      1.0  0.25408  0.25545  0.49254  1.0000
  F   F263      1.0  0.25113  0.76105  0.99397  1.0000
  F   F264      1.0  0.24846  0.74828  0.49889  1.0000
  F   F265      1.0  0.50031  0.23492  0.00685  1.0000
  F   F266      1.0  0.49339  0.24772  0.50923  1.0000
  F   F267      1.0  0.49898  0.73627  0.00501  1.0000
  F   F268      1.0  0.50216  0.74311  0.50345  1.0000
  F   F269      1.0  0.74756  0.23488  0.00818  1.0000
  F   F270      1.0  0.74803  0.26041  0.48834  1.0000
  F   F271      1.0  0.75178  0.74335  0.01238  1.0000
  F   F272      1.0  0.74533  0.75110  0.50268  1.0000
  F   F273      1.0  0.11388  0.99268  0.25765  1.0000
  F   F274      1.0  0.11625  0.99551  0.76540  1.0000
  F   F275      1.0  0.12284  0.50644  0.25312  1.0000
  F   F276      1.0  0.14044  0.50849  0.71826  1.0000
  F   F277      1.0  0.36513  0.98149  0.26420  1.0000
  F   F278      1.0  0.36938  0.00236  0.74878  1.0000
  F   F279      1.0  0.38282  0.50743  0.23739  1.0000
  F   F280      1.0  0.37409  0.49980  0.75251  1.0000
  F   F281      1.0  0.62331  0.99890  0.25278  1.0000
  F   F282      1.0  0.62415  0.00060  0.75737  1.0000
  F   F283      1.0  0.62035  0.48950  0.25874  1.0000
  F   F284      1.0  0.62550  0.49899  0.74858  1.0000
  F   F285      1.0  0.88203  0.00749  0.23806  1.0000
  F   F286      1.0  0.86880  0.99106  0.75802  1.0000
  F   F287      1.0  0.87953  0.50363  0.24075  1.0000
  F   F288      1.0  0.87622  0.50979  0.74264  1.0000
  F   F289      1.0  0.04705  0.04661  0.00878  1.0000
  F   F290      1.0  0.04410  0.02594  0.51687  1.0000
  F   F291      1.0  0.04252  0.52932  0.01924  1.0000
  F   F292      1.0  0.04320  0.53625  0.51921  1.0000
  F   F293      1.0  0.29292  0.02991  0.02832  1.0000
  F   F294      1.0  0.30181  0.02686  0.50614  1.0000
  F   F295      1.0  0.28964  0.53379  0.02802  1.0000
  F   F296      1.0  0.28922  0.55038  0.52390  1.0000
  F   F297      1.0  0.53997  0.03112  0.03375  1.0000
  F   F298      1.0  0.53936  0.02698  0.53664  1.0000
  F   F299      1.0  0.54727  0.52434  0.02170  1.0000
  F   F300      1.0  0.54077  0.53168  0.53370  1.0000
  F   F301      1.0  0.78576  0.03303  0.02704  1.0000
  F   F302      1.0  0.78817  0.02846  0.51927  1.0000
  F   F303      1.0  0.78860  0.52838  0.02971  1.0000
  F   F304      1.0  0.79426  0.52986  0.52805  1.0000
  F   F305      1.0  0.23306  0.41670  0.22004  1.0000
  F   F306      1.0  0.23760  0.40322  0.71978  1.0000
  F   F307      1.0  0.23437  0.90161  0.23117  1.0000
  F   F308      1.0  0.23562  0.93593  0.71150  1.0000
  F   F309      1.0  0.48573  0.41360  0.21922  1.0000
  F   F310      1.0  0.48390  0.40155  0.73461  1.0000
  F   F311      1.0  0.48499  0.91373  0.23157  1.0000
  F   F312      1.0  0.48312  0.92326  0.71936  1.0000
  F   F313      1.0  0.73795  0.41030  0.23091  1.0000
  F   F314      1.0  0.73389  0.41544  0.72987  1.0000
  F   F315      1.0  0.73271  0.93548  0.21739  1.0000
  F   F316      1.0  0.73210  0.89248  0.73538  1.0000
  F   F317      1.0  0.98688  0.40829  0.23317  1.0000
  F   F318      1.0  0.98588  0.42384  0.72569  1.0000
  F   F319      1.0  0.98380  0.92089  0.21654  1.0000
  F   F320      1.0  0.98560  0.90874  0.74046  1.0000
  F   F321      1.0  0.20574  0.46452  0.48252  1.0000
  F   F322      1.0  0.19500  0.47546  0.98661  1.0000
  F   F323      1.0  0.20949  0.97834  0.46213  1.0000
  F   F324      1.0  0.20512  0.95870  0.98336  1.0000
  F   F325      1.0  0.45864  0.45988  0.47421  1.0000
  F   F326      1.0  0.45464  0.45780  0.99095  1.0000
  F   F327      1.0  0.45272  0.97540  0.48175  1.0000
  F   F328      1.0  0.47002  0.95626  0.96923  1.0000
  F   F329      1.0  0.70137  0.47345  0.48641  1.0000
  F   F330      1.0  0.71889  0.47009  0.97511  1.0000
  F   F331      1.0  0.70408  0.96720  0.49317  1.0000
  F   F332      1.0  0.71562  0.96458  0.97719  1.0000
  F   F333      1.0  0.95542  0.46985  0.48334  1.0000
  F   F334      1.0  0.95830  0.47672  0.96123  1.0000
  F   F335      1.0  0.95920  0.98121  0.46757  1.0000
  F   F336      1.0  0.95823  0.96992  0.96628  1.0000
  F   F337      1.0  0.01908  0.07465  0.27218  1.0000
  F   F338      1.0  0.01541  0.08152  0.76783  1.0000
  F   F339      1.0  0.02131  0.56994  0.27200  1.0000
  F   F340      1.0  0.01196  0.60726  0.76230  1.0000
  F   F341      1.0  0.26721  0.09941  0.27304  1.0000
  F   F342      1.0  0.26802  0.07405  0.78321  1.0000
  F   F343      1.0  0.26771  0.57527  0.27887  1.0000
  F   F344      1.0  0.26460  0.58329  0.77508  1.0000
  F   F345      1.0  0.51560  0.09123  0.26187  1.0000
  F   F346      1.0  0.51609  0.08406  0.78515  1.0000
  F   F347      1.0  0.51978  0.59123  0.27279  1.0000
  F   F348      1.0  0.51311  0.58922  0.76177  1.0000
  F   F349      1.0  0.77093  0.07320  0.27666  1.0000
  F   F350      1.0  0.76346  0.07073  0.77412  1.0000
  F   F351      1.0  0.76824  0.58557  0.27534  1.0000
  F   F352      1.0  0.76671  0.57751  0.77306  1.0000
  F   F353      1.0  0.10183  0.42583  0.46732  1.0000
  F   F354      1.0  0.10613  0.42150  0.94684  1.0000
  F   F355      1.0  0.10237  0.89082  0.46459  1.0000
  F   F356      1.0  0.10856  0.91142  0.96408  1.0000
  F   F357      1.0  0.35157  0.42299  0.46068  1.0000
  F   F358      1.0  0.35088  0.41731  0.95939  1.0000
  F   F359      1.0  0.35646  0.88978  0.46563  1.0000
  F   F360      1.0  0.35375  0.91253  0.95239  1.0000
  F   F361      1.0  0.59832  0.40990  0.45843  1.0000
  F   F362      1.0  0.60281  0.39389  0.96193  1.0000
  F   F363      1.0  0.59686  0.90602  0.46909  1.0000
  F   F364      1.0  0.59817  0.90227  0.96341  1.0000
  F   F365      1.0  0.85090  0.41807  0.44708  1.0000
  F   F366      1.0  0.85304  0.40652  0.94752  1.0000
  F   F367      1.0  0.84854  0.89559  0.46179  1.0000
  F   F368      1.0  0.84530  0.91136  0.96535  1.0000
  F   F369      1.0  0.05007  0.31260  0.31476  1.0000
  F   F370      1.0  0.04639  0.30227  0.77569  1.0000
  F   F371      1.0  0.03529  0.79569  0.28715  1.0000
  F   F372      1.0  0.05350  0.80116  0.78801  1.0000
  F   F373      1.0  0.29408  0.29630  0.29907  1.0000
  F   F374      1.0  0.30204  0.30001  0.78719  1.0000
  F   F375      1.0  0.29538  0.78887  0.28726  1.0000
  F   F376      1.0  0.29346  0.78634  0.79643  1.0000
  F   F377      1.0  0.54769  0.29354  0.28763  1.0000
  F   F378      1.0  0.54542  0.29811  0.79138  1.0000
  F   F379      1.0  0.55053  0.80254  0.28409  1.0000
  F   F380      1.0  0.53479  0.78276  0.79982  1.0000
  F   F381      1.0  0.79958  0.29682  0.29046  1.0000
  F   F382      1.0  0.79079  0.29668  0.78343  1.0000
  F   F383      1.0  0.79514  0.79860  0.27488  1.0000
  F   F384      1.0  0.80792  0.80853  0.78000  1.0000
