data_image0
_chemical_formula_structural       Hf96F384
_chemical_formula_sum              "Hf96 F384"
_cell_length_a       31.0229
_cell_length_b       15.5125
_cell_length_c       15.5011
_cell_angle_alpha    63.342
_cell_angle_beta     63.342
_cell_angle_gamma    80.1625

_space_group_name_H-M_alt    "P 1"
_space_group_IT_number       1

loop_
  _space_group_symop_operation_xyz
  'x, y, z'

loop_
  _atom_site_type_symbol
  _atom_site_label
  _atom_site_symmetry_multiplicity
  _atom_site_fract_x
  _atom_site_fract_y
  _atom_site_fract_z
  _atom_site_occupancy
  Hf  Hf1       1.0  0.19604  0.11214  0.37231  1.0000
  Hf  Hf2       1.0  0.19433  0.11352  0.87084  1.0000
  Hf  Hf3       1.0  0.20145  0.61186  0.36977  1.0000
  Hf  Hf4       1.0  0.19935  0.61185  0.86625  1.0000
  Hf  Hf5       1.0  0.44269  0.10833  0.37221  1.0000
  Hf  Hf6       1.0  0.44580  0.10602  0.87959  1.0000
  Hf  Hf7       1.0  0.44291  0.59892  0.38491  1.0000
  Hf  Hf8       1.0  0.44746  0.61361  0.86739  1.0000
  Hf  Hf9       1.0  0.69604  0.10298  0.37704  1.0000
  Hf  Hf10      1.0  0.69649  0.10655  0.87282  1.0000
  Hf  Hf11      1.0  0.69799  0.60588  0.37392  1.0000
  Hf  Hf12      1.0  0.69215  0.60282  0.88720  1.0000
  Hf  Hf13      1.0  0.94301  0.10412  0.37106  1.0000
  Hf  Hf14      1.0  0.94549  0.10610  0.87701  1.0000
  Hf  Hf15      1.0  0.94565  0.61010  0.37513  1.0000
  Hf  Hf16      1.0  0.94530  0.60987  0.87576  1.0000
  Hf  Hf17      1.0  0.05105  0.39310  0.11955  1.0000
  Hf  Hf18      1.0  0.05254  0.38881  0.62172  1.0000
  Hf  Hf19      1.0  0.05260  0.89025  0.12551  1.0000
  Hf  Hf20      1.0  0.05267  0.89650  0.62005  1.0000
  Hf  Hf21      1.0  0.30251  0.39122  0.12767  1.0000
  Hf  Hf22      1.0  0.30349  0.39553  0.61757  1.0000
  Hf  Hf23      1.0  0.30605  0.89790  0.11370  1.0000
  Hf  Hf24      1.0  0.30661  0.89392  0.62090  1.0000
  Hf  Hf25      1.0  0.54971  0.39920  0.13933  1.0000
  Hf  Hf26      1.0  0.55399  0.38668  0.63103  1.0000
  Hf  Hf27      1.0  0.55514  0.89365  0.12901  1.0000
  Hf  Hf28      1.0  0.55608  0.89166  0.62814  1.0000
  Hf  Hf29      1.0  0.80130  0.38931  0.13260  1.0000
  Hf  Hf30      1.0  0.80158  0.38710  0.63104  1.0000
  Hf  Hf31      1.0  0.80370  0.89285  0.12414  1.0000
  Hf  Hf32      1.0  0.80625  0.89041  0.63231  1.0000
  Hf  Hf33      1.0  0.05721  0.18766  0.41119  1.0000
  Hf  Hf34      1.0  0.05773  0.18265  0.90854  1.0000
  Hf  Hf35      1.0  0.05740  0.68082  0.41769  1.0000
  Hf  Hf36      1.0  0.05376  0.68827  0.91372  1.0000
  Hf  Hf37      1.0  0.30314  0.18135  0.41964  1.0000
  Hf  Hf38      1.0  0.30435  0.18516  0.91783  1.0000
  Hf  Hf39      1.0  0.31051  0.69357  0.40625  1.0000
  Hf  Hf40      1.0  0.30503  0.68884  0.91377  1.0000
  Hf  Hf41      1.0  0.55341  0.18273  0.41736  1.0000
  Hf  Hf42      1.0  0.55826  0.18522  0.91304  1.0000
  Hf  Hf43      1.0  0.55490  0.67641  0.42366  1.0000
  Hf  Hf44      1.0  0.55341  0.67765  0.92228  1.0000
  Hf  Hf45      1.0  0.80429  0.17828  0.42149  1.0000
  Hf  Hf46      1.0  0.80508  0.18094  0.91972  1.0000
  Hf  Hf47      1.0  0.80607  0.67935  0.41894  1.0000
  Hf  Hf48      1.0  0.80728  0.67763  0.92274  1.0000
  Hf  Hf49      1.0  0.15839  0.39449  0.33405  1.0000
  Hf  Hf50      1.0  0.15794  0.39697  0.82428  1.0000
  Hf  Hf51      1.0  0.16233  0.88636  0.32915  1.0000
  Hf  Hf52      1.0  0.16136  0.88672  0.82621  1.0000
  Hf  Hf53      1.0  0.40439  0.38384  0.33554  1.0000
  Hf  Hf54      1.0  0.40990  0.38667  0.83535  1.0000
  Hf  Hf55      1.0  0.40886  0.88318  0.33487  1.0000
  Hf  Hf56      1.0  0.40927  0.89409  0.82991  1.0000
  Hf  Hf57      1.0  0.65705  0.39034  0.33622  1.0000
  Hf  Hf58      1.0  0.65780  0.39001  0.83674  1.0000
  Hf  Hf59      1.0  0.65548  0.87692  0.34382  1.0000
  Hf  Hf60      1.0  0.66011  0.88189  0.83377  1.0000
  Hf  Hf61      1.0  0.90694  0.38085  0.33763  1.0000
  Hf  Hf62      1.0  0.90303  0.38555  0.83991  1.0000
  Hf  Hf63      1.0  0.90907  0.88381  0.33479  1.0000
  Hf  Hf64      1.0  0.91165  0.88935  0.82396  1.0000
  Hf  Hf65      1.0  0.19234  0.32568  0.07623  1.0000
  Hf  Hf66      1.0  0.19187  0.32557  0.57932  1.0000
  Hf  Hf67      1.0  0.19462  0.82309  0.08045  1.0000
  Hf  Hf68      1.0  0.19245  0.82055  0.57965  1.0000
  Hf  Hf69      1.0  0.44328  0.32640  0.08133  1.0000
  Hf  Hf70      1.0  0.44122  0.30617  0.59683  1.0000
  Hf  Hf71      1.0  0.44242  0.80891  0.08657  1.0000
  Hf  Hf72      1.0  0.44623  0.82441  0.58126  1.0000
  Hf  Hf73      1.0  0.69374  0.31454  0.08877  1.0000
  Hf  Hf74      1.0  0.69205  0.30188  0.59011  1.0000
  Hf  Hf75      1.0  0.69388  0.80742  0.08878  1.0000
  Hf  Hf76      1.0  0.69366  0.81081  0.59051  1.0000
  Hf  Hf77      1.0  0.94309  0.32210  0.07739  1.0000
  Hf  Hf78      1.0  0.94367  0.30917  0.58106  1.0000
  Hf  Hf79      1.0  0.94399  0.82241  0.07730  1.0000
  Hf  Hf80      1.0  0.94606  0.81114  0.58586  1.0000
  Hf  Hf81      1.0  0.08891  0.11035  0.16856  1.0000
  Hf  Hf82      1.0  0.09051  0.11174  0.66985  1.0000
  Hf  Hf83      1.0  0.09267  0.61248  0.16407  1.0000
  Hf  Hf84      1.0  0.09241  0.61302  0.66056  1.0000
  Hf  Hf85      1.0  0.34030  0.11255  0.16674  1.0000
  Hf  Hf86      1.0  0.34062  0.11567  0.67160  1.0000
  Hf  Hf87      1.0  0.34606  0.61493  0.15082  1.0000
  Hf  Hf88      1.0  0.34312  0.61057  0.66780  1.0000
  Hf  Hf89      1.0  0.59318  0.11305  0.16898  1.0000
  Hf  Hf90      1.0  0.59163  0.10639  0.67254  1.0000
  Hf  Hf91      1.0  0.58948  0.61825  0.16527  1.0000
  Hf  Hf92      1.0  0.59116  0.60598  0.67177  1.0000
  Hf  Hf93      1.0  0.84169  0.11201  0.16446  1.0000
  Hf  Hf94      1.0  0.84522  0.10528  0.66860  1.0000
  Hf  Hf95      1.0  0.84363  0.61214  0.16870  1.0000
  Hf  Hf96      1.0  0.84549  0.61129  0.66562  1.0000
  F   F1        1.0  0.07397  0.12241  0.30334  1.0000
  F   F2        1.0  0.07574  0.12008  0.81620  1.0000
  F   F3        1.0  0.08510  0.62240  0.30345  1.0000
  F   F4        1.0  0.07655  0.62091  0.80795  1.0000
  F   F5        1.0  0.33072  0.13593  0.29880  1.0000
  F   F6        1.0  0.32984  0.11872  0.80822  1.0000
  F   F7        1.0  0.34049  0.65050  0.28687  1.0000
  F   F8        1.0  0.32702  0.61812  0.80359  1.0000
  F   F9        1.0  0.57775  0.11666  0.31229  1.0000
  F   F10       1.0  0.58341  0.13213  0.80284  1.0000
  F   F11       1.0  0.57648  0.61611  0.31732  1.0000
  F   F12       1.0  0.57299  0.63304  0.80778  1.0000
  F   F13       1.0  0.83197  0.14194  0.30006  1.0000
  F   F14       1.0  0.83578  0.12573  0.80255  1.0000
  F   F15       1.0  0.82490  0.62175  0.30940  1.0000
  F   F16       1.0  0.83199  0.61881  0.80666  1.0000
  F   F17       1.0  0.17692  0.33635  0.45282  1.0000
  F   F18       1.0  0.18822  0.35619  0.93040  1.0000
  F   F19       1.0  0.18713  0.84041  0.44246  1.0000
  F   F20       1.0  0.19309  0.84819  0.93997  1.0000
  F   F21       1.0  0.43069  0.33501  0.45367  1.0000
  F   F22       1.0  0.43339  0.33700  0.95525  1.0000
  F   F23       1.0  0.45312  0.85237  0.43185  1.0000
  F   F24       1.0  0.43844  0.84268  0.93864  1.0000
  F   F25       1.0  0.68335  0.33364  0.44824  1.0000
  F   F26       1.0  0.67940  0.33118  0.96115  1.0000
  F   F27       1.0  0.68978  0.83232  0.45203  1.0000
  F   F28       1.0  0.69589  0.83833  0.94447  1.0000
  F   F29       1.0  0.93116  0.33097  0.44733  1.0000
  F   F30       1.0  0.93825  0.35507  0.94015  1.0000
  F   F31       1.0  0.94204  0.83985  0.44295  1.0000
  F   F32       1.0  0.93256  0.84153  0.94854  1.0000
  F   F33       1.0  0.16556  0.37363  0.19767  1.0000
  F   F34       1.0  0.17153  0.39017  0.68512  1.0000
  F   F35       1.0  0.16667  0.86037  0.20397  1.0000
  F   F36       1.0  0.17254  0.87472  0.68735  1.0000
  F   F37       1.0  0.42469  0.39313  0.18406  1.0000
  F   F38       1.0  0.42257  0.37776  0.69768  1.0000
  F   F39       1.0  0.42270  0.88536  0.18618  1.0000
  F   F40       1.0  0.42361  0.89043  0.68343  1.0000
  F   F41       1.0  0.66940  0.38024  0.19443  1.0000
  F   F42       1.0  0.67032  0.38276  0.68703  1.0000
  F   F43       1.0  0.66411  0.85722  0.21491  1.0000
  F   F44       1.0  0.66989  0.86812  0.70330  1.0000
  F   F45       1.0  0.92225  0.37727  0.18726  1.0000
  F   F46       1.0  0.91805  0.35554  0.69852  1.0000
  F   F47       1.0  0.92005  0.86758  0.19751  1.0000
  F   F48       1.0  0.92013  0.86772  0.69555  1.0000
  F   F49       1.0  0.06476  0.16197  0.04307  1.0000
  F   F50       1.0  0.06683  0.14968  0.54292  1.0000
  F   F51       1.0  0.06833  0.65572  0.04726  1.0000
  F   F52       1.0  0.06617  0.66914  0.54738  1.0000
  F   F53       1.0  0.31592  0.16620  0.04963  1.0000
  F   F54       1.0  0.31540  0.15922  0.54999  1.0000
  F   F55       1.0  0.31712  0.67511  0.04989  1.0000
  F   F56       1.0  0.31355  0.65970  0.54838  1.0000
  F   F57       1.0  0.56722  0.16088  0.04622  1.0000
  F   F58       1.0  0.56552  0.16764  0.55589  1.0000
  F   F59       1.0  0.55930  0.66251  0.06092  1.0000
  F   F60       1.0  0.57283  0.65045  0.54908  1.0000
  F   F61       1.0  0.80935  0.15728  0.05565  1.0000
  F   F62       1.0  0.81784  0.15698  0.54918  1.0000
  F   F63       1.0  0.81350  0.64614  0.06210  1.0000
  F   F64       1.0  0.82062  0.65111  0.55119  1.0000
  F   F65       1.0  0.21024  0.20717  0.18984  1.0000
  F   F66       1.0  0.20557  0.21130  0.71515  1.0000
  F   F67       1.0  0.20691  0.70138  0.22165  1.0000
  F   F68       1.0  0.20503  0.70430  0.70718  1.0000
  F   F69       1.0  0.45416  0.21187  0.20766  1.0000
  F   F70       1.0  0.45278  0.18746  0.71401  1.0000
  F   F71       1.0  0.44383  0.69361  0.21039  1.0000
  F   F72       1.0  0.44761  0.71156  0.71499  1.0000
  F   F73       1.0  0.70674  0.20148  0.21037  1.0000
  F   F74       1.0  0.69972  0.19754  0.71816  1.0000
  F   F75       1.0  0.70728  0.70073  0.20538  1.0000
  F   F76       1.0  0.70011  0.69664  0.73086  1.0000
  F   F77       1.0  0.95043  0.19972  0.19670  1.0000
  F   F78       1.0  0.95787  0.20251  0.71211  1.0000
  F   F79       1.0  0.95705  0.70624  0.21800  1.0000
  F   F80       1.0  0.95410  0.70253  0.71254  1.0000
  F   F81       1.0  0.14763  0.09744  0.03831  1.0000
  F   F82       1.0  0.14829  0.09985  0.53483  1.0000
  F   F83       1.0  0.14929  0.59522  0.03816  1.0000
  F   F84       1.0  0.14905  0.57925  0.54381  1.0000
  F   F85       1.0  0.39958  0.08932  0.04056  1.0000
  F   F86       1.0  0.39977  0.11092  0.53230  1.0000
  F   F87       1.0  0.39709  0.58680  0.02840  1.0000
  F   F88       1.0  0.39879  0.58342  0.53638  1.0000
  F   F89       1.0  0.65122  0.09342  0.04521  1.0000
  F   F90       1.0  0.64865  0.07190  0.54212  1.0000
  F   F91       1.0  0.65100  0.58135  0.04698  1.0000
  F   F92       1.0  0.65785  0.58902  0.54201  1.0000
  F   F93       1.0  0.89315  0.09358  0.03028  1.0000
  F   F94       1.0  0.90082  0.10035  0.54155  1.0000
  F   F95       1.0  0.89754  0.61272  0.03869  1.0000
  F   F96       1.0  0.90121  0.59019  0.54104  1.0000
  F   F97       1.0  0.15049  0.21784  0.11617  1.0000
  F   F98       1.0  0.14777  0.20013  0.63506  1.0000
  F   F99       1.0  0.15111  0.70885  0.13361  1.0000
  F   F100      1.0  0.15341  0.69897  0.61286  1.0000
  F   F101      1.0  0.39695  0.20086  0.11671  1.0000
  F   F102      1.0  0.40240  0.19620  0.62609  1.0000
  F   F103      1.0  0.40406  0.69452  0.10247  1.0000
  F   F104      1.0  0.40318  0.68557  0.61888  1.0000
  F   F105      1.0  0.65330  0.18803  0.13824  1.0000
  F   F106      1.0  0.65354  0.18549  0.62623  1.0000
  F   F107      1.0  0.65113  0.70199  0.12062  1.0000
  F   F108      1.0  0.64886  0.68809  0.65136  1.0000
  F   F109      1.0  0.90202  0.18835  0.11841  1.0000
  F   F110      1.0  0.90587  0.19319  0.62746  1.0000
  F   F111      1.0  0.90773  0.69777  0.13413  1.0000
  F   F112      1.0  0.90760  0.68029  0.63669  1.0000
  F   F113      1.0  0.10194  0.30619  0.39226  1.0000
  F   F114      1.0  0.10025  0.29427  0.84760  1.0000
  F   F115      1.0  0.10268  0.80411  0.37610  1.0000
  F   F116      1.0  0.10080  0.81023  0.85908  1.0000
  F   F117      1.0  0.35151  0.29701  0.36223  1.0000
  F   F118      1.0  0.35108  0.30100  0.88231  1.0000
  F   F119      1.0  0.35050  0.81014  0.36865  1.0000
  F   F120      1.0  0.34671  0.82461  0.87415  1.0000
  F   F121      1.0  0.59581  0.30753  0.37476  1.0000
  F   F122      1.0  0.60118  0.30942  0.85900  1.0000
  F   F123      1.0  0.59631  0.80108  0.39758  1.0000
  F   F124      1.0  0.59272  0.80027  0.88241  1.0000
  F   F125      1.0  0.84770  0.29647  0.37412  1.0000
  F   F126      1.0  0.84258  0.30510  0.88872  1.0000
  F   F127      1.0  0.83649  0.81022  0.38131  1.0000
  F   F128      1.0  0.85246  0.81095  0.87956  1.0000
  F   F129      1.0  0.06746  0.24661  0.13968  1.0000
  F   F130      1.0  0.06971  0.25203  0.62960  1.0000
  F   F131      1.0  0.07190  0.75435  0.12659  1.0000
  F   F132      1.0  0.06856  0.75709  0.63578  1.0000
  F   F133      1.0  0.31284  0.25117  0.15140  1.0000
  F   F134      1.0  0.31058  0.24769  0.64529  1.0000
  F   F135      1.0  0.31542  0.76196  0.13670  1.0000
  F   F136      1.0  0.31654  0.75288  0.64011  1.0000
  F   F137      1.0  0.56964  0.25158  0.13623  1.0000
  F   F138      1.0  0.57298  0.24791  0.63837  1.0000
  F   F139      1.0  0.57029  0.74373  0.16033  1.0000
  F   F140      1.0  0.55980  0.75039  0.64192  1.0000
  F   F141      1.0  0.81417  0.25222  0.13794  1.0000
  F   F142      1.0  0.81949  0.24649  0.63662  1.0000
  F   F143      1.0  0.82294  0.75263  0.13592  1.0000
  F   F144      1.0  0.82372  0.74857  0.63913  1.0000
  F   F145      1.0  0.12669  0.39260  0.08638  1.0000
  F   F146      1.0  0.12583  0.38104  0.59776  1.0000
  F   F147      1.0  0.12660  0.89901  0.08719  1.0000
  F   F148      1.0  0.12333  0.86027  0.61884  1.0000
  F   F149      1.0  0.37603  0.37249  0.11037  1.0000
  F   F150      1.0  0.37451  0.36358  0.61813  1.0000
  F   F151      1.0  0.37659  0.85912  0.10291  1.0000
  F   F152      1.0  0.37596  0.85715  0.61631  1.0000
  F   F153      1.0  0.61977  0.38048  0.11289  1.0000
  F   F154      1.0  0.62433  0.36002  0.61281  1.0000
  F   F155      1.0  0.62729  0.87786  0.10115  1.0000
  F   F156      1.0  0.62576  0.86761  0.60262  1.0000
  F   F157      1.0  0.87212  0.35041  0.12625  1.0000
  F   F158      1.0  0.87307  0.38560  0.59144  1.0000
  F   F159      1.0  0.87833  0.88003  0.09515  1.0000
  F   F160      1.0  0.87710  0.86556  0.60227  1.0000
  F   F161      1.0  0.19878  0.25403  0.33436  1.0000
  F   F162      1.0  0.17421  0.25501  0.85813  1.0000
  F   F163      1.0  0.18347  0.74842  0.36065  1.0000
  F   F164      1.0  0.18127  0.74719  0.86771  1.0000
  F   F165      1.0  0.43269  0.24693  0.35591  1.0000
  F   F166      1.0  0.44251  0.25012  0.84905  1.0000
  F   F167      1.0  0.44266  0.75181  0.35474  1.0000
  F   F168      1.0  0.43602  0.74559  0.87215  1.0000
  F   F169      1.0  0.68631  0.25128  0.34486  1.0000
  F   F170      1.0  0.68683  0.24632  0.85467  1.0000
  F   F171      1.0  0.67968  0.74013  0.36795  1.0000
  F   F172      1.0  0.67799  0.74580  0.87511  1.0000
  F   F173      1.0  0.92974  0.24484  0.35507  1.0000
  F   F174      1.0  0.92838  0.25783  0.86137  1.0000
  F   F175      1.0  0.92922  0.74882  0.36359  1.0000
  F   F176      1.0  0.94028  0.74971  0.85698  1.0000
  F   F177      1.0  0.12650  0.12811  0.38879  1.0000
  F   F178      1.0  0.12810  0.13442  0.88007  1.0000
  F   F179      1.0  0.12557  0.63113  0.40145  1.0000
  F   F180      1.0  0.12536  0.63630  0.88040  1.0000
  F   F181      1.0  0.37330  0.12357  0.38756  1.0000
  F   F182      1.0  0.37685  0.13856  0.88898  1.0000
  F   F183      1.0  0.37709  0.64054  0.39436  1.0000
  F   F184      1.0  0.37380  0.65631  0.87095  1.0000
  F   F185      1.0  0.62896  0.14946  0.37307  1.0000
  F   F186      1.0  0.62625  0.12852  0.88846  1.0000
  F   F187      1.0  0.62605  0.63016  0.38720  1.0000
  F   F188      1.0  0.62263  0.62918  0.89816  1.0000
  F   F189      1.0  0.87627  0.10146  0.40639  1.0000
  F   F190      1.0  0.87442  0.13998  0.88937  1.0000
  F   F191      1.0  0.87282  0.64203  0.38673  1.0000
  F   F192      1.0  0.87511  0.63044  0.89749  1.0000
  F   F193      1.0  0.00608  0.36064  0.06295  1.0000
  F   F194      1.0  0.01131  0.35227  0.57053  1.0000
  F   F195      1.0  0.00752  0.86707  0.06981  1.0000
  F   F196      1.0  0.00792  0.86479  0.56871  1.0000
  F   F197      1.0  0.25826  0.38276  0.05929  1.0000
  F   F198      1.0  0.25563  0.37468  0.56748  1.0000
  F   F199      1.0  0.25954  0.87147  0.06339  1.0000
  F   F200      1.0  0.26040  0.87406  0.54921  1.0000
  F   F201      1.0  0.51146  0.36657  0.08130  1.0000
  F   F202      1.0  0.50368  0.34562  0.61016  1.0000
  F   F203      1.0  0.51014  0.83844  0.09834  1.0000
  F   F204      1.0  0.50581  0.88581  0.56163  1.0000
  F   F205      1.0  0.75510  0.34861  0.09561  1.0000
  F   F206      1.0  0.75691  0.35515  0.57839  1.0000
  F   F207      1.0  0.76261  0.85275  0.07735  1.0000
  F   F208      1.0  0.76243  0.85287  0.58979  1.0000
  F   F209      1.0  0.06438  0.48168  0.20025  1.0000
  F   F210      1.0  0.07022  0.49965  0.65946  1.0000
  F   F211      1.0  0.05836  0.99207  0.18618  1.0000
  F   F212      1.0  0.06469  0.98797  0.66863  1.0000
  F   F213      1.0  0.32182  0.47983  0.18128  1.0000
  F   F214      1.0  0.31472  0.48325  0.68590  1.0000
  F   F215      1.0  0.32197  0.99209  0.15844  1.0000
  F   F216      1.0  0.32052  0.98242  0.67083  1.0000
  F   F217      1.0  0.56726  0.49486  0.17807  1.0000
  F   F218      1.0  0.56841  0.48236  0.68348  1.0000
  F   F219      1.0  0.56736  0.99126  0.17230  1.0000
  F   F220      1.0  0.56860  0.97716  0.68723  1.0000
  F   F221      1.0  0.82631  0.48129  0.17197  1.0000
  F   F222      1.0  0.81453  0.47734  0.68589  1.0000
  F   F223      1.0  0.81621  0.98679  0.17745  1.0000
  F   F224      1.0  0.82249  0.98508  0.66899  1.0000
  F   F225      1.0  0.24029  0.13424  0.43438  1.0000
  F   F226      1.0  0.24165  0.15019  0.92196  1.0000
  F   F227      1.0  0.24197  0.63512  0.43497  1.0000
  F   F228      1.0  0.24376  0.64360  0.92207  1.0000
  F   F229      1.0  0.49315  0.14276  0.41881  1.0000
  F   F230      1.0  0.49432  0.13024  0.94391  1.0000
  F   F231      1.0  0.48946  0.63284  0.44485  1.0000
  F   F232      1.0  0.49015  0.63427  0.92639  1.0000
  F   F233      1.0  0.73973  0.13015  0.43047  1.0000
  F   F234      1.0  0.74778  0.14090  0.92290  1.0000
  F   F235      1.0  0.74484  0.63805  0.41676  1.0000
  F   F236      1.0  0.74296  0.63741  0.92201  1.0000
  F   F237      1.0  0.98824  0.15009  0.40962  1.0000
  F   F238      1.0  0.99254  0.15474  0.90650  1.0000
  F   F239      1.0  0.98999  0.64848  0.41879  1.0000
  F   F240      1.0  0.99272  0.63195  0.93470  1.0000
  F   F241      1.0  0.18650  0.01850  0.31762  1.0000
  F   F242      1.0  0.18705  0.02209  0.81078  1.0000
  F   F243      1.0  0.18624  0.52234  0.31531  1.0000
  F   F244      1.0  0.18386  0.52762  0.79680  1.0000
  F   F245      1.0  0.42672  0.00720  0.33038  1.0000
  F   F246      1.0  0.43221  0.01286  0.82766  1.0000
  F   F247      1.0  0.42625  0.50331  0.34585  1.0000
  F   F248      1.0  0.42978  0.52165  0.82258  1.0000
  F   F249      1.0  0.68120  0.01811  0.32814  1.0000
  F   F250      1.0  0.69124  0.01431  0.81941  1.0000
  F   F251      1.0  0.67401  0.50239  0.34248  1.0000
  F   F252      1.0  0.68734  0.51207  0.82260  1.0000
  F   F253      1.0  0.93651  0.01219  0.31253  1.0000
  F   F254      1.0  0.93527  0.01544  0.82356  1.0000
  F   F255      1.0  0.92945  0.51071  0.33420  1.0000
  F   F256      1.0  0.92822  0.51709  0.83210  1.0000
  F   F257      1.0  0.99981  0.24393  0.99863  1.0000
  F   F258      1.0  0.00130  0.25991  0.49015  1.0000
  F   F259      1.0  0.00383  0.76638  0.98573  1.0000
  F   F260      1.0  0.00245  0.74029  0.50524  1.0000
  F   F261      1.0  0.25242  0.26671  0.98740  1.0000
  F   F262      1.0  0.24575  0.26121  0.49609  1.0000
  F   F263      1.0  0.24916  0.74503  0.00530  1.0000
  F   F264      1.0  0.25331  0.76875  0.48335  1.0000
  F   F265      1.0  0.50239  0.25192  0.99835  1.0000
  F   F266      1.0  0.50024  0.25844  0.49376  1.0000
  F   F267      1.0  0.49354  0.73456  0.01854  1.0000
  F   F268      1.0  0.50104  0.73989  0.51930  1.0000
  F   F269      1.0  0.75246  0.26435  0.98508  1.0000
  F   F270      1.0  0.74850  0.24421  0.50261  1.0000
  F   F271      1.0  0.75020  0.73844  0.01132  1.0000
  F   F272      1.0  0.74621  0.72903  0.52809  1.0000
  F   F273      1.0  0.12819  0.00494  0.24185  1.0000
  F   F274      1.0  0.12403  0.99560  0.74813  1.0000
  F   F275      1.0  0.13121  0.50783  0.23498  1.0000
  F   F276      1.0  0.11152  0.48832  0.77228  1.0000
  F   F277      1.0  0.37016  0.99651  0.26092  1.0000
  F   F278      1.0  0.38277  0.01319  0.74157  1.0000
  F   F279      1.0  0.37285  0.49634  0.26281  1.0000
  F   F280      1.0  0.37927  0.49869  0.74479  1.0000
  F   F281      1.0  0.62306  0.99265  0.26559  1.0000
  F   F282      1.0  0.63084  0.99923  0.74889  1.0000
  F   F283      1.0  0.62078  0.50281  0.25597  1.0000
  F   F284      1.0  0.62141  0.50442  0.75950  1.0000
  F   F285      1.0  0.87619  0.99780  0.24486  1.0000
  F   F286      1.0  0.87997  0.00198  0.74049  1.0000
  F   F287      1.0  0.87951  0.50599  0.24063  1.0000
  F   F288      1.0  0.87535  0.49248  0.74972  1.0000
  F   F289      1.0  0.04505  0.02674  0.02676  1.0000
  F   F290      1.0  0.03971  0.03777  0.51086  1.0000
  F   F291      1.0  0.04457  0.52553  0.02558  1.0000
  F   F292      1.0  0.03346  0.54315  0.52324  1.0000
  F   F293      1.0  0.29328  0.04153  0.01856  1.0000
  F   F294      1.0  0.29691  0.03077  0.50903  1.0000
  F   F295      1.0  0.29584  0.55220  0.02220  1.0000
  F   F296      1.0  0.29840  0.53225  0.51411  1.0000
  F   F297      1.0  0.54680  0.01929  0.01640  1.0000
  F   F298      1.0  0.54262  0.03129  0.53215  1.0000
  F   F299      1.0  0.53771  0.52681  0.03276  1.0000
  F   F300      1.0  0.54522  0.52542  0.53237  1.0000
  F   F301      1.0  0.79646  0.02927  0.02912  1.0000
  F   F302      1.0  0.78996  0.02881  0.52877  1.0000
  F   F303      1.0  0.79216  0.52875  0.01919  1.0000
  F   F304      1.0  0.79301  0.52999  0.52649  1.0000
  F   F305      1.0  0.23560  0.41148  0.22540  1.0000
  F   F306      1.0  0.23626  0.40783  0.71972  1.0000
  F   F307      1.0  0.23452  0.91636  0.22001  1.0000
  F   F308      1.0  0.23769  0.91029  0.71328  1.0000
  F   F309      1.0  0.48360  0.43031  0.23279  1.0000
  F   F310      1.0  0.48840  0.41791  0.73147  1.0000
  F   F311      1.0  0.48891  0.90533  0.24277  1.0000
  F   F312      1.0  0.48802  0.90118  0.73095  1.0000
  F   F313      1.0  0.73322  0.42036  0.22729  1.0000
  F   F314      1.0  0.73664  0.41573  0.72787  1.0000
  F   F315      1.0  0.72822  0.90791  0.22828  1.0000
  F   F316      1.0  0.73224  0.90094  0.74152  1.0000
  F   F317      1.0  0.98547  0.40211  0.22020  1.0000
  F   F318      1.0  0.97929  0.42179  0.71565  1.0000
  F   F319      1.0  0.98435  0.90471  0.22571  1.0000
  F   F320      1.0  0.98264  0.92196  0.71391  1.0000
  F   F321      1.0  0.21163  0.46807  0.45341  1.0000
  F   F322      1.0  0.20612  0.48463  0.96995  1.0000
  F   F323      1.0  0.20429  0.97839  0.47862  1.0000
  F   F324      1.0  0.20919  0.98347  0.96689  1.0000
  F   F325      1.0  0.45775  0.45586  0.48749  1.0000
  F   F326      1.0  0.46325  0.46791  0.97833  1.0000
  F   F327      1.0  0.44912  0.98037  0.48110  1.0000
  F   F328      1.0  0.45957  0.96092  0.97991  1.0000
  F   F329      1.0  0.70545  0.46502  0.47987  1.0000
  F   F330      1.0  0.70768  0.45883  0.98605  1.0000
  F   F331      1.0  0.71007  0.95629  0.48339  1.0000
  F   F332      1.0  0.70873  0.96968  0.99549  1.0000
  F   F333      1.0  0.95795  0.45725  0.46973  1.0000
  F   F334      1.0  0.95219  0.48056  0.97937  1.0000
  F   F335      1.0  0.95244  0.96912  0.48443  1.0000
  F   F336      1.0  0.96507  0.97068  0.97287  1.0000
  F   F337      1.0  0.01130  0.10282  0.25849  1.0000
  F   F338      1.0  0.01667  0.09916  0.76219  1.0000
  F   F339      1.0  0.01693  0.59048  0.27786  1.0000
  F   F340      1.0  0.01592  0.59033  0.77032  1.0000
  F   F341      1.0  0.26363  0.08048  0.28118  1.0000
  F   F342      1.0  0.26646  0.09578  0.77565  1.0000
  F   F343      1.0  0.27328  0.60007  0.25586  1.0000
  F   F344      1.0  0.26428  0.59123  0.76676  1.0000
  F   F345      1.0  0.51008  0.08697  0.28204  1.0000
  F   F346      1.0  0.51964  0.09257  0.78229  1.0000
  F   F347      1.0  0.51010  0.60191  0.27740  1.0000
  F   F348      1.0  0.51283  0.58373  0.77522  1.0000
  F   F349      1.0  0.76186  0.09179  0.27245  1.0000
  F   F350      1.0  0.76668  0.09809  0.76701  1.0000
  F   F351      1.0  0.76663  0.58598  0.26260  1.0000
  F   F352      1.0  0.76589  0.60113  0.77276  1.0000
  F   F353      1.0  0.09986  0.42834  0.45986  1.0000
  F   F354      1.0  0.09676  0.39930  0.96150  1.0000
  F   F355      1.0  0.10126  0.91686  0.46046  1.0000
  F   F356      1.0  0.10382  0.91004  0.94525  1.0000
  F   F357      1.0  0.34719  0.38433  0.46549  1.0000
  F   F358      1.0  0.35080  0.41625  0.96276  1.0000
  F   F359      1.0  0.35795  0.90297  0.46948  1.0000
  F   F360      1.0  0.35020  0.92614  0.95829  1.0000
  F   F361      1.0  0.60076  0.40679  0.47113  1.0000
  F   F362      1.0  0.59560  0.41419  0.94908  1.0000
  F   F363      1.0  0.60143  0.91228  0.46716  1.0000
  F   F364      1.0  0.60177  0.88058  0.97435  1.0000
  F   F365      1.0  0.84624  0.40447  0.45687  1.0000
  F   F366      1.0  0.85431  0.42636  0.96022  1.0000
  F   F367      1.0  0.85021  0.91549  0.46643  1.0000
  F   F368      1.0  0.85322  0.90814  0.96376  1.0000
  F   F369      1.0  0.05383  0.30900  0.27964  1.0000
  F   F370      1.0  0.04070  0.30310  0.77320  1.0000
  F   F371      1.0  0.05097  0.79798  0.28712  1.0000
  F   F372      1.0  0.03839  0.78927  0.78898  1.0000
  F   F373      1.0  0.29444  0.30366  0.29377  1.0000
  F   F374      1.0  0.29950  0.29243  0.79107  1.0000
  F   F375      1.0  0.29788  0.80548  0.28162  1.0000
  F   F376      1.0  0.30068  0.80495  0.78336  1.0000
  F   F377      1.0  0.54687  0.29832  0.28285  1.0000
  F   F378      1.0  0.54465  0.28894  0.78974  1.0000
  F   F379      1.0  0.54935  0.79778  0.29702  1.0000
  F   F380      1.0  0.54352  0.79760  0.79428  1.0000
  F   F381      1.0  0.78994  0.29889  0.28970  1.0000
  F   F382      1.0  0.80536  0.29193  0.78123  1.0000
  F   F383      1.0  0.79111  0.79796  0.28796  1.0000
  F   F384      1.0  0.80445  0.79090  0.78803  1.0000
