data_image0
_chemical_formula_structural       Hf96F384
_chemical_formula_sum              "Hf96 F384"
_cell_length_a       31.0173
_cell_length_b       15.5111
_cell_length_c       15.5027
_cell_angle_alpha    63.342
_cell_angle_beta     63.342
_cell_angle_gamma    80.1625

_space_group_name_H-M_alt    "P 1"
_space_group_IT_number       1

loop_
  _space_group_symop_operation_xyz
  'x, y, z'

loop_
  _atom_site_type_symbol
  _atom_site_label
  _atom_site_symmetry_multiplicity
  _atom_site_fract_x
  _atom_site_fract_y
  _atom_site_fract_z
  _atom_site_occupancy
  Hf  Hf1       1.0  0.19524  0.10406  0.37641  1.0000
  Hf  Hf2       1.0  0.19783  0.11219  0.86437  1.0000
  Hf  Hf3       1.0  0.19503  0.61727  0.37237  1.0000
  Hf  Hf4       1.0  0.19655  0.60415  0.87652  1.0000
  Hf  Hf5       1.0  0.44494  0.11394  0.37884  1.0000
  Hf  Hf6       1.0  0.44047  0.10140  0.88718  1.0000
  Hf  Hf7       1.0  0.44620  0.59988  0.39050  1.0000
  Hf  Hf8       1.0  0.44663  0.59914  0.87943  1.0000
  Hf  Hf9       1.0  0.69807  0.10364  0.37632  1.0000
  Hf  Hf10      1.0  0.69925  0.09947  0.88044  1.0000
  Hf  Hf11      1.0  0.69807  0.60192  0.37244  1.0000
  Hf  Hf12      1.0  0.69544  0.61081  0.87228  1.0000
  Hf  Hf13      1.0  0.95170  0.11688  0.35485  1.0000
  Hf  Hf14      1.0  0.94808  0.10879  0.87125  1.0000
  Hf  Hf15      1.0  0.94549  0.60114  0.37824  1.0000
  Hf  Hf16      1.0  0.94268  0.61517  0.86715  1.0000
  Hf  Hf17      1.0  0.05285  0.39775  0.12890  1.0000
  Hf  Hf18      1.0  0.05209  0.39716  0.62433  1.0000
  Hf  Hf19      1.0  0.05203  0.89651  0.12173  1.0000
  Hf  Hf20      1.0  0.05216  0.90145  0.62363  1.0000
  Hf  Hf21      1.0  0.30269  0.39153  0.12577  1.0000
  Hf  Hf22      1.0  0.30694  0.39560  0.61916  1.0000
  Hf  Hf23      1.0  0.30722  0.90083  0.11803  1.0000
  Hf  Hf24      1.0  0.30663  0.88701  0.61948  1.0000
  Hf  Hf25      1.0  0.55383  0.39074  0.12327  1.0000
  Hf  Hf26      1.0  0.55274  0.38774  0.63462  1.0000
  Hf  Hf27      1.0  0.55246  0.89164  0.12205  1.0000
  Hf  Hf28      1.0  0.55033  0.88352  0.62930  1.0000
  Hf  Hf29      1.0  0.80085  0.38188  0.12863  1.0000
  Hf  Hf30      1.0  0.80059  0.38843  0.63084  1.0000
  Hf  Hf31      1.0  0.80367  0.88735  0.12856  1.0000
  Hf  Hf32      1.0  0.80235  0.88875  0.63063  1.0000
  Hf  Hf33      1.0  0.05346  0.18580  0.41624  1.0000
  Hf  Hf34      1.0  0.05426  0.18544  0.91627  1.0000
  Hf  Hf35      1.0  0.05335  0.69043  0.41631  1.0000
  Hf  Hf36      1.0  0.05636  0.68339  0.91328  1.0000
  Hf  Hf37      1.0  0.30493  0.17384  0.42834  1.0000
  Hf  Hf38      1.0  0.30440  0.18517  0.91515  1.0000
  Hf  Hf39      1.0  0.30697  0.68669  0.41794  1.0000
  Hf  Hf40      1.0  0.30559  0.67484  0.92554  1.0000
  Hf  Hf41      1.0  0.55669  0.18257  0.41561  1.0000
  Hf  Hf42      1.0  0.55580  0.18539  0.92096  1.0000
  Hf  Hf43      1.0  0.55652  0.68551  0.41141  1.0000
  Hf  Hf44      1.0  0.55353  0.67758  0.91688  1.0000
  Hf  Hf45      1.0  0.80715  0.17872  0.41588  1.0000
  Hf  Hf46      1.0  0.80759  0.17615  0.91997  1.0000
  Hf  Hf47      1.0  0.80578  0.68203  0.41545  1.0000
  Hf  Hf48      1.0  0.80409  0.68106  0.92027  1.0000
  Hf  Hf49      1.0  0.15864  0.38384  0.33467  1.0000
  Hf  Hf50      1.0  0.15971  0.38866  0.82746  1.0000
  Hf  Hf51      1.0  0.16024  0.89319  0.32610  1.0000
  Hf  Hf52      1.0  0.16216  0.89744  0.82114  1.0000
  Hf  Hf53      1.0  0.41308  0.39169  0.33141  1.0000
  Hf  Hf54      1.0  0.40878  0.38885  0.83508  1.0000
  Hf  Hf55      1.0  0.41132  0.89198  0.32264  1.0000
  Hf  Hf56      1.0  0.40957  0.88552  0.83023  1.0000
  Hf  Hf57      1.0  0.65768  0.38793  0.33563  1.0000
  Hf  Hf58      1.0  0.66186  0.39100  0.82764  1.0000
  Hf  Hf59      1.0  0.65697  0.88140  0.33782  1.0000
  Hf  Hf60      1.0  0.65446  0.88725  0.83565  1.0000
  Hf  Hf61      1.0  0.91242  0.38537  0.33136  1.0000
  Hf  Hf62      1.0  0.90747  0.38165  0.83795  1.0000
  Hf  Hf63      1.0  0.91139  0.88826  0.33208  1.0000
  Hf  Hf64      1.0  0.90640  0.88654  0.84009  1.0000
  Hf  Hf65      1.0  0.19292  0.32418  0.08106  1.0000
  Hf  Hf66      1.0  0.19280  0.32494  0.57916  1.0000
  Hf  Hf67      1.0  0.19788  0.82259  0.07408  1.0000
  Hf  Hf68      1.0  0.19322  0.81973  0.58168  1.0000
  Hf  Hf69      1.0  0.44376  0.32498  0.08064  1.0000
  Hf  Hf70      1.0  0.44505  0.31213  0.58857  1.0000
  Hf  Hf71      1.0  0.44404  0.81382  0.08056  1.0000
  Hf  Hf72      1.0  0.44221  0.81607  0.58018  1.0000
  Hf  Hf73      1.0  0.69419  0.31905  0.08204  1.0000
  Hf  Hf74      1.0  0.69085  0.30528  0.59278  1.0000
  Hf  Hf75      1.0  0.69357  0.81616  0.07930  1.0000
  Hf  Hf76      1.0  0.69006  0.81735  0.58822  1.0000
  Hf  Hf77      1.0  0.94765  0.33086  0.07433  1.0000
  Hf  Hf78      1.0  0.94107  0.31762  0.58441  1.0000
  Hf  Hf79      1.0  0.94253  0.82027  0.08455  1.0000
  Hf  Hf80      1.0  0.94725  0.83058  0.57468  1.0000
  Hf  Hf81      1.0  0.09458  0.11957  0.15434  1.0000
  Hf  Hf82      1.0  0.09142  0.11982  0.66604  1.0000
  Hf  Hf83      1.0  0.09706  0.61893  0.15889  1.0000
  Hf  Hf84      1.0  0.08869  0.61169  0.67102  1.0000
  Hf  Hf85      1.0  0.34007  0.11865  0.17048  1.0000
  Hf  Hf86      1.0  0.34189  0.11415  0.67110  1.0000
  Hf  Hf87      1.0  0.34088  0.60780  0.17440  1.0000
  Hf  Hf88      1.0  0.33903  0.61644  0.66678  1.0000
  Hf  Hf89      1.0  0.59425  0.10838  0.16934  1.0000
  Hf  Hf90      1.0  0.58818  0.10322  0.67271  1.0000
  Hf  Hf91      1.0  0.59196  0.60836  0.16821  1.0000
  Hf  Hf92      1.0  0.59123  0.60008  0.67746  1.0000
  Hf  Hf93      1.0  0.84357  0.10961  0.17241  1.0000
  Hf  Hf94      1.0  0.84066  0.10869  0.67122  1.0000
  Hf  Hf95      1.0  0.84061  0.61098  0.16771  1.0000
  Hf  Hf96      1.0  0.84518  0.60254  0.66947  1.0000
  F   F1        1.0  0.08052  0.14153  0.29737  1.0000
  F   F2        1.0  0.08142  0.14897  0.79073  1.0000
  F   F3        1.0  0.08310  0.64617  0.29140  1.0000
  F   F4        1.0  0.08515  0.62015  0.79888  1.0000
  F   F5        1.0  0.32548  0.11645  0.31381  1.0000
  F   F6        1.0  0.33293  0.12480  0.81231  1.0000
  F   F7        1.0  0.32804  0.61809  0.31804  1.0000
  F   F8        1.0  0.32281  0.62179  0.80897  1.0000
  F   F9        1.0  0.57299  0.13185  0.30246  1.0000
  F   F10       1.0  0.57635  0.12209  0.80140  1.0000
  F   F11       1.0  0.57710  0.61349  0.31383  1.0000
  F   F12       1.0  0.57498  0.59911  0.82687  1.0000
  F   F13       1.0  0.83137  0.14712  0.29177  1.0000
  F   F14       1.0  0.83357  0.11677  0.80917  1.0000
  F   F15       1.0  0.82902  0.61808  0.30245  1.0000
  F   F16       1.0  0.83308  0.62765  0.79948  1.0000
  F   F17       1.0  0.18422  0.33642  0.44458  1.0000
  F   F18       1.0  0.18208  0.33541  0.94727  1.0000
  F   F19       1.0  0.19782  0.84861  0.43001  1.0000
  F   F20       1.0  0.18449  0.83515  0.94906  1.0000
  F   F21       1.0  0.43799  0.33845  0.45144  1.0000
  F   F22       1.0  0.43693  0.34133  0.94498  1.0000
  F   F23       1.0  0.43377  0.83216  0.44608  1.0000
  F   F24       1.0  0.44189  0.82666  0.94228  1.0000
  F   F25       1.0  0.68252  0.34728  0.45327  1.0000
  F   F26       1.0  0.68640  0.35346  0.94290  1.0000
  F   F27       1.0  0.68414  0.84220  0.45065  1.0000
  F   F28       1.0  0.67808  0.83871  0.95799  1.0000
  F   F29       1.0  0.93594  0.33814  0.44746  1.0000
  F   F30       1.0  0.93188  0.34692  0.94817  1.0000
  F   F31       1.0  0.94127  0.83861  0.44024  1.0000
  F   F32       1.0  0.93728  0.85592  0.94656  1.0000
  F   F33       1.0  0.17205  0.39230  0.18281  1.0000
  F   F34       1.0  0.17291  0.37860  0.68631  1.0000
  F   F35       1.0  0.17614  0.89289  0.17542  1.0000
  F   F36       1.0  0.17358  0.89554  0.68318  1.0000
  F   F37       1.0  0.41565  0.36842  0.20374  1.0000
  F   F38       1.0  0.41770  0.37980  0.69430  1.0000
  F   F39       1.0  0.42734  0.89003  0.18282  1.0000
  F   F40       1.0  0.41948  0.86270  0.70228  1.0000
  F   F41       1.0  0.66914  0.36648  0.19947  1.0000
  F   F42       1.0  0.66818  0.35810  0.70678  1.0000
  F   F43       1.0  0.67484  0.87125  0.18954  1.0000
  F   F44       1.0  0.66316  0.86704  0.70173  1.0000
  F   F45       1.0  0.92107  0.36772  0.19290  1.0000
  F   F46       1.0  0.91509  0.36715  0.70219  1.0000
  F   F47       1.0  0.91873  0.88748  0.19604  1.0000
  F   F48       1.0  0.92357  0.88076  0.68716  1.0000
  F   F49       1.0  0.06787  0.16031  0.04613  1.0000
  F   F50       1.0  0.06682  0.16799  0.55091  1.0000
  F   F51       1.0  0.07244  0.66768  0.03632  1.0000
  F   F52       1.0  0.06859  0.67094  0.54377  1.0000
  F   F53       1.0  0.31617  0.17194  0.05282  1.0000
  F   F54       1.0  0.31634  0.15215  0.55934  1.0000
  F   F55       1.0  0.31520  0.65250  0.05847  1.0000
  F   F56       1.0  0.31963  0.66578  0.54047  1.0000
  F   F57       1.0  0.56362  0.15412  0.05996  1.0000
  F   F58       1.0  0.55304  0.14352  0.57085  1.0000
  F   F59       1.0  0.55675  0.65059  0.06234  1.0000
  F   F60       1.0  0.56422  0.65989  0.54751  1.0000
  F   F61       1.0  0.81679  0.15652  0.04716  1.0000
  F   F62       1.0  0.80497  0.14918  0.56015  1.0000
  F   F63       1.0  0.81807  0.66612  0.04125  1.0000
  F   F64       1.0  0.81626  0.64548  0.55062  1.0000
  F   F65       1.0  0.20758  0.21676  0.20135  1.0000
  F   F66       1.0  0.19907  0.20746  0.70759  1.0000
  F   F67       1.0  0.20202  0.70693  0.20977  1.0000
  F   F68       1.0  0.19779  0.70297  0.71350  1.0000
  F   F69       1.0  0.45268  0.20090  0.20267  1.0000
  F   F70       1.0  0.44094  0.18989  0.72245  1.0000
  F   F71       1.0  0.44255  0.71176  0.20913  1.0000
  F   F72       1.0  0.45029  0.69513  0.69408  1.0000
  F   F73       1.0  0.69870  0.19931  0.21916  1.0000
  F   F74       1.0  0.70991  0.20523  0.71186  1.0000
  F   F75       1.0  0.70397  0.69911  0.20965  1.0000
  F   F76       1.0  0.70504  0.70663  0.71461  1.0000
  F   F77       1.0  0.95491  0.20981  0.20056  1.0000
  F   F78       1.0  0.96174  0.20114  0.71128  1.0000
  F   F79       1.0  0.94906  0.70629  0.20444  1.0000
  F   F80       1.0  0.95670  0.72119  0.70285  1.0000
  F   F81       1.0  0.14978  0.11596  0.02695  1.0000
  F   F82       1.0  0.15285  0.09649  0.53465  1.0000
  F   F83       1.0  0.14982  0.58399  0.03932  1.0000
  F   F84       1.0  0.14729  0.58436  0.53849  1.0000
  F   F85       1.0  0.40320  0.09872  0.03544  1.0000
  F   F86       1.0  0.39682  0.08222  0.53194  1.0000
  F   F87       1.0  0.39745  0.58927  0.04001  1.0000
  F   F88       1.0  0.40207  0.59426  0.54052  1.0000
  F   F89       1.0  0.65121  0.08553  0.03809  1.0000
  F   F90       1.0  0.64081  0.10274  0.53412  1.0000
  F   F91       1.0  0.65134  0.60025  0.03280  1.0000
  F   F92       1.0  0.64318  0.58641  0.55339  1.0000
  F   F93       1.0  0.89850  0.09435  0.03922  1.0000
  F   F94       1.0  0.89450  0.11187  0.54639  1.0000
  F   F95       1.0  0.89844  0.59594  0.02350  1.0000
  F   F96       1.0  0.89658  0.57216  0.53265  1.0000
  F   F97       1.0  0.15135  0.20149  0.12125  1.0000
  F   F98       1.0  0.15638  0.20341  0.61888  1.0000
  F   F99       1.0  0.15745  0.69411  0.11333  1.0000
  F   F100      1.0  0.14784  0.70947  0.61199  1.0000
  F   F101      1.0  0.39234  0.21193  0.12771  1.0000
  F   F102      1.0  0.40243  0.19595  0.60319  1.0000
  F   F103      1.0  0.39692  0.68557  0.13035  1.0000
  F   F104      1.0  0.39427  0.70101  0.62874  1.0000
  F   F105      1.0  0.64968  0.20876  0.10699  1.0000
  F   F106      1.0  0.65522  0.18815  0.62890  1.0000
  F   F107      1.0  0.65449  0.68896  0.13235  1.0000
  F   F108      1.0  0.65559  0.69594  0.62786  1.0000
  F   F109      1.0  0.90256  0.19511  0.12170  1.0000
  F   F110      1.0  0.89948  0.19673  0.64570  1.0000
  F   F111      1.0  0.90115  0.69777  0.10283  1.0000
  F   F112      1.0  0.90352  0.67831  0.61565  1.0000
  F   F113      1.0  0.09715  0.29635  0.36344  1.0000
  F   F114      1.0  0.10680  0.30013  0.85897  1.0000
  F   F115      1.0  0.09946  0.80784  0.36700  1.0000
  F   F116      1.0  0.10598  0.82116  0.86162  1.0000
  F   F117      1.0  0.35201  0.30633  0.40899  1.0000
  F   F118      1.0  0.34954  0.30000  0.86034  1.0000
  F   F119      1.0  0.34954  0.79960  0.38323  1.0000
  F   F120      1.0  0.35119  0.80020  0.89380  1.0000
  F   F121      1.0  0.59700  0.30359  0.37565  1.0000
  F   F122      1.0  0.59638  0.30911  0.86887  1.0000
  F   F123      1.0  0.59718  0.80042  0.37487  1.0000
  F   F124      1.0  0.59324  0.80298  0.88129  1.0000
  F   F125      1.0  0.85633  0.29264  0.37152  1.0000
  F   F126      1.0  0.84790  0.30602  0.88259  1.0000
  F   F127      1.0  0.84915  0.80332  0.37393  1.0000
  F   F128      1.0  0.84994  0.81594  0.86854  1.0000
  F   F129      1.0  0.06976  0.25916  0.13235  1.0000
  F   F130      1.0  0.05926  0.25353  0.65438  1.0000
  F   F131      1.0  0.06578  0.75156  0.13643  1.0000
  F   F132      1.0  0.05984  0.75534  0.64459  1.0000
  F   F133      1.0  0.30604  0.25088  0.16459  1.0000
  F   F134      1.0  0.31363  0.25142  0.64689  1.0000
  F   F135      1.0  0.31202  0.73808  0.15722  1.0000
  F   F136      1.0  0.30554  0.74598  0.65542  1.0000
  F   F137      1.0  0.56326  0.24986  0.14308  1.0000
  F   F138      1.0  0.57099  0.25460  0.62801  1.0000
  F   F139      1.0  0.57663  0.75538  0.11738  1.0000
  F   F140      1.0  0.56622  0.74243  0.65185  1.0000
  F   F141      1.0  0.81268  0.24521  0.13688  1.0000
  F   F142      1.0  0.81731  0.24751  0.64166  1.0000
  F   F143      1.0  0.80905  0.75059  0.15919  1.0000
  F   F144      1.0  0.81600  0.74705  0.64077  1.0000
  F   F145      1.0  0.12544  0.37757  0.11036  1.0000
  F   F146      1.0  0.12094  0.37365  0.61437  1.0000
  F   F147      1.0  0.12337  0.85390  0.12649  1.0000
  F   F148      1.0  0.12568  0.87585  0.60603  1.0000
  F   F149      1.0  0.37493  0.38161  0.10404  1.0000
  F   F150      1.0  0.37617  0.35574  0.61845  1.0000
  F   F151      1.0  0.37515  0.85857  0.12080  1.0000
  F   F152      1.0  0.37194  0.86816  0.60612  1.0000
  F   F153      1.0  0.62569  0.37473  0.10505  1.0000
  F   F154      1.0  0.62256  0.35382  0.62116  1.0000
  F   F155      1.0  0.62135  0.88353  0.10380  1.0000
  F   F156      1.0  0.62214  0.86849  0.60566  1.0000
  F   F157      1.0  0.87374  0.36574  0.11424  1.0000
  F   F158      1.0  0.87509  0.38356  0.59324  1.0000
  F   F159      1.0  0.87212  0.85005  0.13679  1.0000
  F   F160      1.0  0.87603  0.86242  0.61712  1.0000
  F   F161      1.0  0.18743  0.24892  0.34643  1.0000
  F   F162      1.0  0.18559  0.24886  0.85658  1.0000
  F   F163      1.0  0.18214  0.75730  0.35984  1.0000
  F   F164      1.0  0.18621  0.74189  0.86042  1.0000
  F   F165      1.0  0.44361  0.25214  0.34606  1.0000
  F   F166      1.0  0.43819  0.24409  0.85154  1.0000
  F   F167      1.0  0.43863  0.74354  0.34888  1.0000
  F   F168      1.0  0.44125  0.73924  0.85032  1.0000
  F   F169      1.0  0.68754  0.25110  0.36162  1.0000
  F   F170      1.0  0.68654  0.24344  0.86733  1.0000
  F   F171      1.0  0.68529  0.74747  0.36517  1.0000
  F   F172      1.0  0.68254  0.75059  0.86246  1.0000
  F   F173      1.0  0.94249  0.25065  0.34148  1.0000
  F   F174      1.0  0.93666  0.24943  0.85412  1.0000
  F   F175      1.0  0.94096  0.74672  0.34672  1.0000
  F   F176      1.0  0.93259  0.75657  0.86690  1.0000
  F   F177      1.0  0.12629  0.12454  0.40526  1.0000
  F   F178      1.0  0.12636  0.11071  0.90143  1.0000
  F   F179      1.0  0.12664  0.63691  0.37821  1.0000
  F   F180      1.0  0.12693  0.63083  0.88654  1.0000
  F   F181      1.0  0.37591  0.14663  0.37560  1.0000
  F   F182      1.0  0.37178  0.12276  0.91051  1.0000
  F   F183      1.0  0.37388  0.62538  0.40318  1.0000
  F   F184      1.0  0.37426  0.63301  0.89593  1.0000
  F   F185      1.0  0.62397  0.13733  0.38608  1.0000
  F   F186      1.0  0.62211  0.12935  0.90020  1.0000
  F   F187      1.0  0.62829  0.62982  0.39231  1.0000
  F   F188      1.0  0.62679  0.65336  0.86800  1.0000
  F   F189      1.0  0.87797  0.13337  0.39298  1.0000
  F   F190      1.0  0.87991  0.13192  0.89117  1.0000
  F   F191      1.0  0.87694  0.62709  0.38079  1.0000
  F   F192      1.0  0.87518  0.64866  0.87971  1.0000
  F   F193      1.0  0.00950  0.37557  0.05949  1.0000
  F   F194      1.0  0.00307  0.35860  0.57960  1.0000
  F   F195      1.0  0.00101  0.87422  0.07754  1.0000
  F   F196      1.0  0.00992  0.88244  0.55109  1.0000
  F   F197      1.0  0.25746  0.37308  0.06150  1.0000
  F   F198      1.0  0.25949  0.36293  0.58181  1.0000
  F   F199      1.0  0.26196  0.87132  0.05682  1.0000
  F   F200      1.0  0.25740  0.86242  0.56801  1.0000
  F   F201      1.0  0.50360  0.35458  0.08966  1.0000
  F   F202      1.0  0.50304  0.34937  0.60323  1.0000
  F   F203      1.0  0.50951  0.84915  0.07029  1.0000
  F   F204      1.0  0.50696  0.84110  0.59210  1.0000
  F   F205      1.0  0.75689  0.34894  0.08124  1.0000
  F   F206      1.0  0.75810  0.36341  0.57443  1.0000
  F   F207      1.0  0.76098  0.86354  0.06449  1.0000
  F   F208      1.0  0.76009  0.86975  0.56549  1.0000
  F   F209      1.0  0.07003  0.48806  0.17605  1.0000
  F   F210      1.0  0.06686  0.48368  0.67512  1.0000
  F   F211      1.0  0.07385  0.98700  0.15704  1.0000
  F   F212      1.0  0.07259  0.99079  0.66895  1.0000
  F   F213      1.0  0.31557  0.48269  0.17488  1.0000
  F   F214      1.0  0.32676  0.48603  0.66718  1.0000
  F   F215      1.0  0.32364  0.99726  0.15521  1.0000
  F   F216      1.0  0.31936  0.97654  0.67184  1.0000
  F   F217      1.0  0.56987  0.48697  0.18786  1.0000
  F   F218      1.0  0.56374  0.47492  0.69177  1.0000
  F   F219      1.0  0.56837  0.98613  0.18041  1.0000
  F   F220      1.0  0.56594  0.96798  0.69988  1.0000
  F   F221      1.0  0.81595  0.48233  0.18060  1.0000
  F   F222      1.0  0.81295  0.47830  0.68492  1.0000
  F   F223      1.0  0.82577  0.98257  0.16220  1.0000
  F   F224      1.0  0.82033  0.98452  0.66615  1.0000
  F   F225      1.0  0.24138  0.14409  0.42728  1.0000
  F   F226      1.0  0.24288  0.13922  0.91746  1.0000
  F   F227      1.0  0.24245  0.64128  0.41690  1.0000
  F   F228      1.0  0.24448  0.63865  0.92367  1.0000
  F   F229      1.0  0.49332  0.13972  0.44410  1.0000
  F   F230      1.0  0.49229  0.12669  0.94032  1.0000
  F   F231      1.0  0.49667  0.63584  0.43406  1.0000
  F   F232      1.0  0.48890  0.62497  0.93795  1.0000
  F   F233      1.0  0.74431  0.13393  0.42299  1.0000
  F   F234      1.0  0.74085  0.13155  0.92756  1.0000
  F   F235      1.0  0.74482  0.63713  0.41347  1.0000
  F   F236      1.0  0.74383  0.64052  0.91489  1.0000
  F   F237      1.0  0.98873  0.14422  0.41987  1.0000
  F   F238      1.0  0.99392  0.13793  0.92196  1.0000
  F   F239      1.0  0.98587  0.63968  0.44265  1.0000
  F   F240      1.0  0.99648  0.64634  0.91406  1.0000
  F   F241      1.0  0.18330  0.01828  0.31744  1.0000
  F   F242      1.0  0.19185  0.02788  0.78606  1.0000
  F   F243      1.0  0.18173  0.50917  0.32762  1.0000
  F   F244      1.0  0.18148  0.52066  0.81798  1.0000
  F   F245      1.0  0.43111  0.00934  0.34159  1.0000
  F   F246      1.0  0.42947  0.00354  0.83418  1.0000
  F   F247      1.0  0.44085  0.51814  0.31834  1.0000
  F   F248      1.0  0.42829  0.51721  0.83028  1.0000
  F   F249      1.0  0.68057  0.01790  0.32286  1.0000
  F   F250      1.0  0.68104  0.01850  0.82228  1.0000
  F   F251      1.0  0.68434  0.51423  0.31958  1.0000
  F   F252      1.0  0.68356  0.51682  0.82273  1.0000
  F   F253      1.0  0.93278  0.02208  0.31288  1.0000
  F   F254      1.0  0.93223  0.01801  0.80877  1.0000
  F   F255      1.0  0.93754  0.50982  0.32775  1.0000
  F   F256      1.0  0.92917  0.51753  0.82600  1.0000
  F   F257      1.0  0.99722  0.25276  0.99962  1.0000
  F   F258      1.0  0.99434  0.24189  0.51089  1.0000
  F   F259      1.0  0.99792  0.74471  0.00765  1.0000
  F   F260      1.0  0.00150  0.75004  0.50986  1.0000
  F   F261      1.0  0.24619  0.24650  0.99817  1.0000
  F   F262      1.0  0.25192  0.26506  0.49078  1.0000
  F   F263      1.0  0.24785  0.74047  0.01301  1.0000
  F   F264      1.0  0.24714  0.73764  0.51679  1.0000
  F   F265      1.0  0.50251  0.25766  0.00038  1.0000
  F   F266      1.0  0.50664  0.26437  0.50182  1.0000
  F   F267      1.0  0.50085  0.74645  0.00005  1.0000
  F   F268      1.0  0.50431  0.76962  0.48336  1.0000
  F   F269      1.0  0.74689  0.24202  0.99664  1.0000
  F   F270      1.0  0.74548  0.25175  0.49685  1.0000
  F   F271      1.0  0.74707  0.75578  0.99142  1.0000
  F   F272      1.0  0.74270  0.73350  0.51667  1.0000
  F   F273      1.0  0.12254  0.00544  0.24559  1.0000
  F   F274      1.0  0.11983  0.00889  0.76546  1.0000
  F   F275      1.0  0.11889  0.49466  0.26534  1.0000
  F   F276      1.0  0.12685  0.50198  0.73393  1.0000
  F   F277      1.0  0.37899  0.99924  0.24246  1.0000
  F   F278      1.0  0.37281  0.99549  0.74858  1.0000
  F   F279      1.0  0.38198  0.49698  0.24652  1.0000
  F   F280      1.0  0.36992  0.49277  0.77559  1.0000
  F   F281      1.0  0.62942  0.00197  0.25009  1.0000
  F   F282      1.0  0.63126  0.99793  0.73732  1.0000
  F   F283      1.0  0.62960  0.50077  0.24660  1.0000
  F   F284      1.0  0.62908  0.49603  0.74279  1.0000
  F   F285      1.0  0.86756  0.99790  0.27158  1.0000
  F   F286      1.0  0.87395  0.99901  0.75668  1.0000
  F   F287      1.0  0.88227  0.50683  0.24911  1.0000
  F   F288      1.0  0.86812  0.49679  0.76771  1.0000
  F   F289      1.0  0.03566  0.03231  0.02577  1.0000
  F   F290      1.0  0.03704  0.03741  0.53261  1.0000
  F   F291      1.0  0.04521  0.53288  0.02896  1.0000
  F   F292      1.0  0.04198  0.53529  0.52309  1.0000
  F   F293      1.0  0.29128  0.04253  0.02636  1.0000
  F   F294      1.0  0.29224  0.02580  0.51789  1.0000
  F   F295      1.0  0.28949  0.52250  0.02844  1.0000
  F   F296      1.0  0.28899  0.53154  0.54131  1.0000
  F   F297      1.0  0.54135  0.02280  0.02941  1.0000
  F   F298      1.0  0.55386  0.02083  0.51318  1.0000
  F   F299      1.0  0.54274  0.52339  0.02736  1.0000
  F   F300      1.0  0.54670  0.52597  0.52685  1.0000
  F   F301      1.0  0.79247  0.03697  0.01682  1.0000
  F   F302      1.0  0.79952  0.03240  0.50824  1.0000
  F   F303      1.0  0.79043  0.52536  0.02078  1.0000
  F   F304      1.0  0.79275  0.52389  0.51613  1.0000
  F   F305      1.0  0.23418  0.40762  0.23615  1.0000
  F   F306      1.0  0.23663  0.41482  0.73632  1.0000
  F   F307      1.0  0.24005  0.90386  0.22406  1.0000
  F   F308      1.0  0.23844  0.88600  0.74343  1.0000
  F   F309      1.0  0.48403  0.42139  0.21711  1.0000
  F   F310      1.0  0.48067  0.41844  0.73160  1.0000
  F   F311      1.0  0.48706  0.90649  0.24401  1.0000
  F   F312      1.0  0.48178  0.91468  0.72426  1.0000
  F   F313      1.0  0.73327  0.41484  0.22650  1.0000
  F   F314      1.0  0.73079  0.41940  0.71697  1.0000
  F   F315      1.0  0.73698  0.91674  0.22322  1.0000
  F   F316      1.0  0.73158  0.90728  0.72288  1.0000
  F   F317      1.0  0.98319  0.42609  0.21224  1.0000
  F   F318      1.0  0.97994  0.41454  0.73016  1.0000
  F   F319      1.0  0.98482  0.93562  0.22188  1.0000
  F   F320      1.0  0.98671  0.90106  0.72334  1.0000
  F   F321      1.0  0.20351  0.46508  0.47372  1.0000
  F   F322      1.0  0.21044  0.46331  0.96705  1.0000
  F   F323      1.0  0.20564  0.97217  0.47794  1.0000
  F   F324      1.0  0.20364  0.96742  0.97170  1.0000
  F   F325      1.0  0.46465  0.46434  0.48043  1.0000
  F   F326      1.0  0.46569  0.46353  0.96827  1.0000
  F   F327      1.0  0.45721  0.96375  0.49265  1.0000
  F   F328      1.0  0.45217  0.96119  0.98651  1.0000
  F   F329      1.0  0.70321  0.46729  0.49059  1.0000
  F   F330      1.0  0.70797  0.46406  0.99211  1.0000
  F   F331      1.0  0.70550  0.96567  0.48482  1.0000
  F   F332      1.0  0.71066  0.96270  0.96997  1.0000
  F   F333      1.0  0.95648  0.46469  0.47914  1.0000
  F   F334      1.0  0.96369  0.48270  0.95372  1.0000
  F   F335      1.0  0.94777  0.97889  0.47513  1.0000
  F   F336      1.0  0.95533  0.97358  0.98230  1.0000
  F   F337      1.0  0.01845  0.10002  0.24601  1.0000
  F   F338      1.0  0.01804  0.07975  0.78501  1.0000
  F   F339      1.0  0.01442  0.59902  0.27408  1.0000
  F   F340      1.0  0.01746  0.58976  0.75572  1.0000
  F   F341      1.0  0.26350  0.09100  0.27176  1.0000
  F   F342      1.0  0.26810  0.08944  0.77022  1.0000
  F   F343      1.0  0.26233  0.58206  0.28271  1.0000
  F   F344      1.0  0.26521  0.59166  0.75580  1.0000
  F   F345      1.0  0.51276  0.08950  0.27877  1.0000
  F   F346      1.0  0.50955  0.09511  0.77871  1.0000
  F   F347      1.0  0.51333  0.61238  0.25924  1.0000
  F   F348      1.0  0.51034  0.58806  0.77343  1.0000
  F   F349      1.0  0.76810  0.07152  0.28054  1.0000
  F   F350      1.0  0.76632  0.09178  0.77072  1.0000
  F   F351      1.0  0.76483  0.58420  0.26437  1.0000
  F   F352      1.0  0.76212  0.57836  0.77473  1.0000
  F   F353      1.0  0.09789  0.39395  0.47110  1.0000
  F   F354      1.0  0.10235  0.41234  0.95568  1.0000
  F   F355      1.0  0.10211  0.91003  0.46134  1.0000
  F   F356      1.0  0.10041  0.92169  0.96149  1.0000
  F   F357      1.0  0.35534  0.42619  0.46515  1.0000
  F   F358      1.0  0.34602  0.39633  0.96983  1.0000
  F   F359      1.0  0.35212  0.89881  0.46603  1.0000
  F   F360      1.0  0.35121  0.91306  0.96574  1.0000
  F   F361      1.0  0.60236  0.40985  0.46279  1.0000
  F   F362      1.0  0.60035  0.40532  0.96324  1.0000
  F   F363      1.0  0.59457  0.89178  0.45906  1.0000
  F   F364      1.0  0.60156  0.92592  0.94780  1.0000
  F   F365      1.0  0.85488  0.39964  0.44916  1.0000
  F   F366      1.0  0.85282  0.41234  0.96638  1.0000
  F   F367      1.0  0.85477  0.89477  0.46275  1.0000
  F   F368      1.0  0.85619  0.89854  0.97101  1.0000
  F   F369      1.0  0.03861  0.29639  0.28528  1.0000
  F   F370      1.0  0.04184  0.30375  0.80344  1.0000
  F   F371      1.0  0.04069  0.80322  0.29499  1.0000
  F   F372      1.0  0.04919  0.80289  0.79193  1.0000
  F   F373      1.0  0.30487  0.28661  0.30252  1.0000
  F   F374      1.0  0.29305  0.29986  0.78827  1.0000
  F   F375      1.0  0.30049  0.80252  0.28875  1.0000
  F   F376      1.0  0.30659  0.79560  0.80381  1.0000
  F   F377      1.0  0.54652  0.29660  0.28601  1.0000
  F   F378      1.0  0.54316  0.29184  0.78824  1.0000
  F   F379      1.0  0.55404  0.78316  0.27708  1.0000
  F   F380      1.0  0.54022  0.77847  0.79979  1.0000
  F   F381      1.0  0.79132  0.29512  0.29194  1.0000
  F   F382      1.0  0.79974  0.29719  0.78677  1.0000
  F   F383      1.0  0.79146  0.79707  0.30371  1.0000
  F   F384      1.0  0.79330  0.79495  0.79956  1.0000
