data_image0
_chemical_formula_structural       Hf96F384
_chemical_formula_sum              "Hf96 F384"
_cell_length_a       31.0361
_cell_length_b       15.5224
_cell_length_c       15.5104
_cell_angle_alpha    63.342
_cell_angle_beta     63.342
_cell_angle_gamma    80.1625

_space_group_name_H-M_alt    "P 1"
_space_group_IT_number       1

loop_
  _space_group_symop_operation_xyz
  'x, y, z'

loop_
  _atom_site_type_symbol
  _atom_site_label
  _atom_site_symmetry_multiplicity
  _atom_site_fract_x
  _atom_site_fract_y
  _atom_site_fract_z
  _atom_site_occupancy
  Hf  Hf1       1.0  0.19604  0.11162  0.37783  1.0000
  Hf  Hf2       1.0  0.19344  0.09943  0.88907  1.0000
  Hf  Hf3       1.0  0.19890  0.60938  0.37482  1.0000
  Hf  Hf4       1.0  0.19834  0.60331  0.87436  1.0000
  Hf  Hf5       1.0  0.44573  0.10272  0.37951  1.0000
  Hf  Hf6       1.0  0.44692  0.10798  0.87517  1.0000
  Hf  Hf7       1.0  0.44839  0.60148  0.36942  1.0000
  Hf  Hf8       1.0  0.44730  0.60116  0.88294  1.0000
  Hf  Hf9       1.0  0.69605  0.10661  0.38002  1.0000
  Hf  Hf10      1.0  0.69889  0.11240  0.86248  1.0000
  Hf  Hf11      1.0  0.69492  0.61199  0.37414  1.0000
  Hf  Hf12      1.0  0.70007  0.61657  0.86590  1.0000
  Hf  Hf13      1.0  0.94324  0.10968  0.37684  1.0000
  Hf  Hf14      1.0  0.94303  0.09850  0.88245  1.0000
  Hf  Hf15      1.0  0.94140  0.60591  0.38272  1.0000
  Hf  Hf16      1.0  0.94619  0.60679  0.87494  1.0000
  Hf  Hf17      1.0  0.05136  0.39201  0.13338  1.0000
  Hf  Hf18      1.0  0.05414  0.38392  0.62957  1.0000
  Hf  Hf19      1.0  0.05260  0.88442  0.13478  1.0000
  Hf  Hf20      1.0  0.05065  0.88788  0.62617  1.0000
  Hf  Hf21      1.0  0.30767  0.39323  0.12199  1.0000
  Hf  Hf22      1.0  0.30700  0.39231  0.61504  1.0000
  Hf  Hf23      1.0  0.30655  0.88428  0.11832  1.0000
  Hf  Hf24      1.0  0.30641  0.89640  0.61420  1.0000
  Hf  Hf25      1.0  0.55367  0.39523  0.12396  1.0000
  Hf  Hf26      1.0  0.55210  0.38903  0.63558  1.0000
  Hf  Hf27      1.0  0.55708  0.89182  0.12027  1.0000
  Hf  Hf28      1.0  0.55396  0.89624  0.62077  1.0000
  Hf  Hf29      1.0  0.80223  0.39675  0.12971  1.0000
  Hf  Hf30      1.0  0.80302  0.38549  0.62313  1.0000
  Hf  Hf31      1.0  0.80081  0.89315  0.13190  1.0000
  Hf  Hf32      1.0  0.80500  0.89826  0.61939  1.0000
  Hf  Hf33      1.0  0.05173  0.17651  0.42746  1.0000
  Hf  Hf34      1.0  0.05239  0.17286  0.93039  1.0000
  Hf  Hf35      1.0  0.05472  0.68216  0.42099  1.0000
  Hf  Hf36      1.0  0.05563  0.67838  0.91714  1.0000
  Hf  Hf37      1.0  0.30841  0.18543  0.41321  1.0000
  Hf  Hf38      1.0  0.30449  0.17849  0.91753  1.0000
  Hf  Hf39      1.0  0.30848  0.67908  0.41604  1.0000
  Hf  Hf40      1.0  0.30800  0.67887  0.91963  1.0000
  Hf  Hf41      1.0  0.55698  0.18451  0.40904  1.0000
  Hf  Hf42      1.0  0.55973  0.17923  0.90852  1.0000
  Hf  Hf43      1.0  0.55310  0.68320  0.41722  1.0000
  Hf  Hf44      1.0  0.55630  0.68512  0.91392  1.0000
  Hf  Hf45      1.0  0.80182  0.18800  0.42074  1.0000
  Hf  Hf46      1.0  0.80595  0.18218  0.91986  1.0000
  Hf  Hf47      1.0  0.80503  0.67268  0.42944  1.0000
  Hf  Hf48      1.0  0.80915  0.69362  0.90995  1.0000
  Hf  Hf49      1.0  0.15686  0.39480  0.33146  1.0000
  Hf  Hf50      1.0  0.15430  0.37919  0.84680  1.0000
  Hf  Hf51      1.0  0.15800  0.89045  0.33905  1.0000
  Hf  Hf52      1.0  0.15541  0.88167  0.84269  1.0000
  Hf  Hf53      1.0  0.41127  0.38284  0.32823  1.0000
  Hf  Hf54      1.0  0.40740  0.38615  0.83274  1.0000
  Hf  Hf55      1.0  0.40974  0.88983  0.33008  1.0000
  Hf  Hf56      1.0  0.41289  0.88610  0.83243  1.0000
  Hf  Hf57      1.0  0.65297  0.39091  0.33616  1.0000
  Hf  Hf58      1.0  0.65650  0.40075  0.82875  1.0000
  Hf  Hf59      1.0  0.65720  0.89834  0.33194  1.0000
  Hf  Hf60      1.0  0.66011  0.90049  0.81671  1.0000
  Hf  Hf61      1.0  0.90739  0.38657  0.33953  1.0000
  Hf  Hf62      1.0  0.90700  0.38982  0.83440  1.0000
  Hf  Hf63      1.0  0.90826  0.88767  0.33173  1.0000
  Hf  Hf64      1.0  0.91010  0.88818  0.82850  1.0000
  Hf  Hf65      1.0  0.19659  0.31996  0.08446  1.0000
  Hf  Hf66      1.0  0.19460  0.32387  0.57668  1.0000
  Hf  Hf67      1.0  0.19255  0.81072  0.08805  1.0000
  Hf  Hf68      1.0  0.19237  0.81948  0.57913  1.0000
  Hf  Hf69      1.0  0.44747  0.31325  0.07662  1.0000
  Hf  Hf70      1.0  0.44747  0.31936  0.57666  1.0000
  Hf  Hf71      1.0  0.44759  0.82201  0.07924  1.0000
  Hf  Hf72      1.0  0.44489  0.81507  0.58023  1.0000
  Hf  Hf73      1.0  0.69479  0.32719  0.08097  1.0000
  Hf  Hf74      1.0  0.69089  0.32106  0.58039  1.0000
  Hf  Hf75      1.0  0.69751  0.83254  0.06924  1.0000
  Hf  Hf76      1.0  0.69490  0.81428  0.58133  1.0000
  Hf  Hf77      1.0  0.94430  0.31947  0.08447  1.0000
  Hf  Hf78      1.0  0.94285  0.30830  0.58772  1.0000
  Hf  Hf79      1.0  0.94114  0.81351  0.08448  1.0000
  Hf  Hf80      1.0  0.94174  0.81815  0.58032  1.0000
  Hf  Hf81      1.0  0.08804  0.10916  0.17688  1.0000
  Hf  Hf82      1.0  0.08546  0.09565  0.68552  1.0000
  Hf  Hf83      1.0  0.09304  0.61001  0.16403  1.0000
  Hf  Hf84      1.0  0.09239  0.60721  0.66448  1.0000
  Hf  Hf85      1.0  0.33578  0.10597  0.17003  1.0000
  Hf  Hf86      1.0  0.34098  0.10138  0.67125  1.0000
  Hf  Hf87      1.0  0.34396  0.61411  0.16761  1.0000
  Hf  Hf88      1.0  0.34411  0.61353  0.66457  1.0000
  Hf  Hf89      1.0  0.58931  0.11146  0.16781  1.0000
  Hf  Hf90      1.0  0.59218  0.11651  0.65930  1.0000
  Hf  Hf91      1.0  0.59289  0.61404  0.16523  1.0000
  Hf  Hf92      1.0  0.59038  0.62154  0.65815  1.0000
  Hf  Hf93      1.0  0.84118  0.11547  0.17417  1.0000
  Hf  Hf94      1.0  0.84037  0.10192  0.66795  1.0000
  Hf  Hf95      1.0  0.84585  0.61411  0.16064  1.0000
  Hf  Hf96      1.0  0.84214  0.61309  0.66536  1.0000
  F   F1        1.0  0.08265  0.12540  0.30562  1.0000
  F   F2        1.0  0.07914  0.13189  0.80660  1.0000
  F   F3        1.0  0.07581  0.62524  0.31679  1.0000
  F   F4        1.0  0.07577  0.62089  0.79947  1.0000
  F   F5        1.0  0.32875  0.13856  0.29169  1.0000
  F   F6        1.0  0.33156  0.12563  0.81012  1.0000
  F   F7        1.0  0.33220  0.61283  0.30871  1.0000
  F   F8        1.0  0.33695  0.64269  0.79343  1.0000
  F   F9        1.0  0.57588  0.13803  0.29788  1.0000
  F   F10       1.0  0.58179  0.13221  0.79395  1.0000
  F   F11       1.0  0.57133  0.62981  0.30754  1.0000
  F   F12       1.0  0.59116  0.64281  0.78791  1.0000
  F   F13       1.0  0.82918  0.13822  0.30464  1.0000
  F   F14       1.0  0.83162  0.12802  0.79918  1.0000
  F   F15       1.0  0.82961  0.64524  0.28817  1.0000
  F   F16       1.0  0.83411  0.62776  0.81093  1.0000
  F   F17       1.0  0.18386  0.34785  0.45176  1.0000
  F   F18       1.0  0.18187  0.35191  0.94845  1.0000
  F   F19       1.0  0.19452  0.86431  0.43169  1.0000
  F   F20       1.0  0.17774  0.83839  0.96399  1.0000
  F   F21       1.0  0.44927  0.35957  0.42143  1.0000
  F   F22       1.0  0.43947  0.34725  0.94043  1.0000
  F   F23       1.0  0.43613  0.84259  0.45000  1.0000
  F   F24       1.0  0.44973  0.85745  0.93015  1.0000
  F   F25       1.0  0.69288  0.35470  0.42976  1.0000
  F   F26       1.0  0.68285  0.34244  0.94650  1.0000
  F   F27       1.0  0.68928  0.84705  0.44428  1.0000
  F   F28       1.0  0.69585  0.86176  0.92495  1.0000
  F   F29       1.0  0.93728  0.33849  0.44749  1.0000
  F   F30       1.0  0.92652  0.33506  0.95222  1.0000
  F   F31       1.0  0.93787  0.85540  0.44045  1.0000
  F   F32       1.0  0.93467  0.84350  0.94866  1.0000
  F   F33       1.0  0.17319  0.39660  0.18713  1.0000
  F   F34       1.0  0.16774  0.35373  0.70869  1.0000
  F   F35       1.0  0.17349  0.87118  0.20094  1.0000
  F   F36       1.0  0.16151  0.86186  0.70775  1.0000
  F   F37       1.0  0.41447  0.34145  0.21785  1.0000
  F   F38       1.0  0.41968  0.38106  0.69571  1.0000
  F   F39       1.0  0.42040  0.86437  0.20455  1.0000
  F   F40       1.0  0.42227  0.87941  0.68431  1.0000
  F   F41       1.0  0.67379  0.37029  0.19687  1.0000
  F   F42       1.0  0.66957  0.37440  0.70083  1.0000
  F   F43       1.0  0.66877  0.88195  0.19534  1.0000
  F   F44       1.0  0.66618  0.87194  0.68699  1.0000
  F   F45       1.0  0.91808  0.36007  0.20805  1.0000
  F   F46       1.0  0.92057  0.35843  0.70241  1.0000
  F   F47       1.0  0.91870  0.86418  0.20821  1.0000
  F   F48       1.0  0.92144  0.88288  0.68397  1.0000
  F   F49       1.0  0.05985  0.15868  0.05699  1.0000
  F   F50       1.0  0.05188  0.14704  0.57859  1.0000
  F   F51       1.0  0.07324  0.65792  0.04373  1.0000
  F   F52       1.0  0.06434  0.65586  0.55762  1.0000
  F   F53       1.0  0.30630  0.14655  0.06054  1.0000
  F   F54       1.0  0.32184  0.16335  0.53713  1.0000
  F   F55       1.0  0.32484  0.67489  0.03981  1.0000
  F   F56       1.0  0.30929  0.65033  0.56104  1.0000
  F   F57       1.0  0.55971  0.15567  0.05089  1.0000
  F   F58       1.0  0.57187  0.17291  0.54040  1.0000
  F   F59       1.0  0.56800  0.65809  0.04160  1.0000
  F   F60       1.0  0.56064  0.65148  0.55210  1.0000
  F   F61       1.0  0.81840  0.16691  0.04984  1.0000
  F   F62       1.0  0.80900  0.14513  0.55836  1.0000
  F   F63       1.0  0.82917  0.67581  0.03489  1.0000
  F   F64       1.0  0.82294  0.65313  0.54637  1.0000
  F   F65       1.0  0.20162  0.21053  0.22577  1.0000
  F   F66       1.0  0.20975  0.19670  0.73241  1.0000
  F   F67       1.0  0.20820  0.69942  0.20803  1.0000
  F   F68       1.0  0.20994  0.70860  0.69092  1.0000
  F   F69       1.0  0.46561  0.19752  0.20532  1.0000
  F   F70       1.0  0.44336  0.20617  0.71848  1.0000
  F   F71       1.0  0.44775  0.70500  0.20251  1.0000
  F   F72       1.0  0.46091  0.70403  0.70808  1.0000
  F   F73       1.0  0.71127  0.20488  0.22405  1.0000
  F   F74       1.0  0.70500  0.20551  0.71172  1.0000
  F   F75       1.0  0.70108  0.71607  0.21083  1.0000
  F   F76       1.0  0.70573  0.69839  0.70969  1.0000
  F   F77       1.0  0.95178  0.20776  0.20927  1.0000
  F   F78       1.0  0.95044  0.18815  0.71914  1.0000
  F   F79       1.0  0.95114  0.69303  0.21133  1.0000
  F   F80       1.0  0.93949  0.70626  0.70954  1.0000
  F   F81       1.0  0.14448  0.08803  0.05437  1.0000
  F   F82       1.0  0.14314  0.10111  0.56384  1.0000
  F   F83       1.0  0.14819  0.57742  0.05715  1.0000
  F   F84       1.0  0.14704  0.58459  0.54895  1.0000
  F   F85       1.0  0.40035  0.09153  0.03375  1.0000
  F   F86       1.0  0.39827  0.08389  0.53848  1.0000
  F   F87       1.0  0.40434  0.59267  0.03401  1.0000
  F   F88       1.0  0.39887  0.59886  0.53043  1.0000
  F   F89       1.0  0.64749  0.09252  0.05720  1.0000
  F   F90       1.0  0.64965  0.09204  0.53012  1.0000
  F   F91       1.0  0.64912  0.59516  0.04014  1.0000
  F   F92       1.0  0.64521  0.59328  0.53087  1.0000
  F   F93       1.0  0.89751  0.08952  0.04934  1.0000
  F   F94       1.0  0.89355  0.10462  0.53540  1.0000
  F   F95       1.0  0.90783  0.57492  0.03873  1.0000
  F   F96       1.0  0.90173  0.59460  0.53653  1.0000
  F   F97       1.0  0.15265  0.18629  0.13208  1.0000
  F   F98       1.0  0.15606  0.20352  0.63044  1.0000
  F   F99       1.0  0.15387  0.67929  0.14198  1.0000
  F   F100      1.0  0.15246  0.70988  0.61373  1.0000
  F   F101      1.0  0.40886  0.19282  0.13010  1.0000
  F   F102      1.0  0.39486  0.20543  0.60899  1.0000
  F   F103      1.0  0.40092  0.70508  0.10397  1.0000
  F   F104      1.0  0.40751  0.69296  0.61780  1.0000
  F   F105      1.0  0.65619  0.20568  0.13782  1.0000
  F   F106      1.0  0.65407  0.20585  0.61218  1.0000
  F   F107      1.0  0.65697  0.71425  0.09818  1.0000
  F   F108      1.0  0.65523  0.69306  0.61258  1.0000
  F   F109      1.0  0.89713  0.19621  0.13813  1.0000
  F   F110      1.0  0.90447  0.19002  0.61775  1.0000
  F   F111      1.0  0.90839  0.69051  0.10344  1.0000
  F   F112      1.0  0.90325  0.70252  0.60290  1.0000
  F   F113      1.0  0.09516  0.29648  0.35988  1.0000
  F   F114      1.0  0.09573  0.29784  0.88601  1.0000
  F   F115      1.0  0.09785  0.81289  0.37700  1.0000
  F   F116      1.0  0.09622  0.79453  0.87761  1.0000
  F   F117      1.0  0.34340  0.30521  0.38234  1.0000
  F   F118      1.0  0.34720  0.30387  0.90536  1.0000
  F   F119      1.0  0.35696  0.79364  0.36953  1.0000
  F   F120      1.0  0.34792  0.79981  0.85387  1.0000
  F   F121      1.0  0.59409  0.32017  0.34877  1.0000
  F   F122      1.0  0.60183  0.29992  0.87607  1.0000
  F   F123      1.0  0.59473  0.81489  0.37459  1.0000
  F   F124      1.0  0.60088  0.80589  0.87039  1.0000
  F   F125      1.0  0.84861  0.29211  0.40387  1.0000
  F   F126      1.0  0.84718  0.30667  0.88100  1.0000
  F   F127      1.0  0.84620  0.80685  0.39496  1.0000
  F   F128      1.0  0.85168  0.81677  0.84717  1.0000
  F   F129      1.0  0.07309  0.25914  0.13207  1.0000
  F   F130      1.0  0.07114  0.24637  0.64085  1.0000
  F   F131      1.0  0.06056  0.73714  0.15667  1.0000
  F   F132      1.0  0.05970  0.75153  0.63776  1.0000
  F   F133      1.0  0.32237  0.25577  0.11338  1.0000
  F   F134      1.0  0.30719  0.25073  0.64365  1.0000
  F   F135      1.0  0.31666  0.74284  0.15138  1.0000
  F   F136      1.0  0.32278  0.75336  0.62134  1.0000
  F   F137      1.0  0.57357  0.25925  0.13010  1.0000
  F   F138      1.0  0.55711  0.24512  0.65767  1.0000
  F   F139      1.0  0.56207  0.75353  0.13462  1.0000
  F   F140      1.0  0.55653  0.75450  0.63480  1.0000
  F   F141      1.0  0.81017  0.25301  0.15712  1.0000
  F   F142      1.0  0.82207  0.25276  0.61571  1.0000
  F   F143      1.0  0.81506  0.76216  0.12834  1.0000
  F   F144      1.0  0.81471  0.74974  0.64020  1.0000
  F   F145      1.0  0.12611  0.37724  0.10395  1.0000
  F   F146      1.0  0.12127  0.39682  0.59780  1.0000
  F   F147      1.0  0.11976  0.86889  0.12044  1.0000
  F   F148      1.0  0.12824  0.88032  0.59166  1.0000
  F   F149      1.0  0.37559  0.36780  0.10957  1.0000
  F   F150      1.0  0.38072  0.35608  0.60838  1.0000
  F   F151      1.0  0.37746  0.87544  0.10345  1.0000
  F   F152      1.0  0.37330  0.87862  0.60240  1.0000
  F   F153      1.0  0.62571  0.38282  0.09210  1.0000
  F   F154      1.0  0.62330  0.37916  0.60904  1.0000
  F   F155      1.0  0.62237  0.86054  0.11850  1.0000
  F   F156      1.0  0.62445  0.85310  0.61062  1.0000
  F   F157      1.0  0.87855  0.38178  0.09859  1.0000
  F   F158      1.0  0.87223  0.35018  0.61275  1.0000
  F   F159      1.0  0.87250  0.85799  0.12354  1.0000
  F   F160      1.0  0.87481  0.86914  0.60038  1.0000
  F   F161      1.0  0.17369  0.25249  0.37731  1.0000
  F   F162      1.0  0.18429  0.24451  0.87076  1.0000
  F   F163      1.0  0.19462  0.74634  0.36420  1.0000
  F   F164      1.0  0.18034  0.74039  0.88093  1.0000
  F   F165      1.0  0.43095  0.23829  0.38527  1.0000
  F   F166      1.0  0.44639  0.25402  0.84887  1.0000
  F   F167      1.0  0.44285  0.73592  0.35471  1.0000
  F   F168      1.0  0.43162  0.74631  0.86566  1.0000
  F   F169      1.0  0.66208  0.25674  0.38994  1.0000
  F   F170      1.0  0.68724  0.24625  0.85854  1.0000
  F   F171      1.0  0.67987  0.74633  0.37075  1.0000
  F   F172      1.0  0.68158  0.75583  0.85723  1.0000
  F   F173      1.0  0.94344  0.25627  0.34744  1.0000
  F   F174      1.0  0.93383  0.24695  0.86103  1.0000
  F   F175      1.0  0.93845  0.74999  0.34824  1.0000
  F   F176      1.0  0.92900  0.74432  0.87211  1.0000
  F   F177      1.0  0.12532  0.12183  0.42052  1.0000
  F   F178      1.0  0.12506  0.11805  0.89975  1.0000
  F   F179      1.0  0.12804  0.64206  0.39541  1.0000
  F   F180      1.0  0.12781  0.62225  0.88140  1.0000
  F   F181      1.0  0.37904  0.13263  0.37701  1.0000
  F   F182      1.0  0.37821  0.15489  0.88768  1.0000
  F   F183      1.0  0.37770  0.61348  0.39870  1.0000
  F   F184      1.0  0.37433  0.62088  0.89776  1.0000
  F   F185      1.0  0.62848  0.12830  0.39279  1.0000
  F   F186      1.0  0.62927  0.13229  0.88518  1.0000
  F   F187      1.0  0.62437  0.64937  0.38386  1.0000
  F   F188      1.0  0.62856  0.62054  0.89826  1.0000
  F   F189      1.0  0.87562  0.14348  0.38766  1.0000
  F   F190      1.0  0.87435  0.12034  0.90317  1.0000
  F   F191      1.0  0.87223  0.62157  0.39473  1.0000
  F   F192      1.0  0.87580  0.62251  0.90157  1.0000
  F   F193      1.0  0.00955  0.36863  0.07965  1.0000
  F   F194      1.0  0.00891  0.36926  0.56198  1.0000
  F   F195      1.0  0.00620  0.86184  0.06683  1.0000
  F   F196      1.0  0.99983  0.87342  0.57169  1.0000
  F   F197      1.0  0.25864  0.35149  0.08189  1.0000
  F   F198      1.0  0.25911  0.36104  0.57235  1.0000
  F   F199      1.0  0.26383  0.85159  0.06641  1.0000
  F   F200      1.0  0.25766  0.86336  0.57857  1.0000
  F   F201      1.0  0.50757  0.36508  0.07191  1.0000
  F   F202      1.0  0.50384  0.36469  0.58264  1.0000
  F   F203      1.0  0.51310  0.86159  0.06663  1.0000
  F   F204      1.0  0.51157  0.87224  0.56147  1.0000
  F   F205      1.0  0.75424  0.38921  0.06553  1.0000
  F   F206      1.0  0.75495  0.36855  0.57471  1.0000
  F   F207      1.0  0.75594  0.87694  0.06843  1.0000
  F   F208      1.0  0.75877  0.86514  0.56692  1.0000
  F   F209      1.0  0.06881  0.48111  0.17909  1.0000
  F   F210      1.0  0.06283  0.48038  0.69867  1.0000
  F   F211      1.0  0.06194  0.98498  0.18262  1.0000
  F   F212      1.0  0.05871  0.97220  0.69256  1.0000
  F   F213      1.0  0.32590  0.49200  0.15931  1.0000
  F   F214      1.0  0.32840  0.47751  0.66376  1.0000
  F   F215      1.0  0.31585  0.98419  0.17353  1.0000
  F   F216      1.0  0.31578  0.99484  0.66549  1.0000
  F   F217      1.0  0.56921  0.49269  0.17374  1.0000
  F   F218      1.0  0.56026  0.49045  0.68571  1.0000
  F   F219      1.0  0.56902  0.98168  0.17982  1.0000
  F   F220      1.0  0.57438  0.99050  0.66641  1.0000
  F   F221      1.0  0.82013  0.49314  0.17800  1.0000
  F   F222      1.0  0.82206  0.47264  0.67345  1.0000
  F   F223      1.0  0.82076  0.98129  0.18638  1.0000
  F   F224      1.0  0.81892  0.97604  0.68125  1.0000
  F   F225      1.0  0.24293  0.15481  0.40533  1.0000
  F   F226      1.0  0.24122  0.13350  0.93043  1.0000
  F   F227      1.0  0.24401  0.63756  0.43107  1.0000
  F   F228      1.0  0.24795  0.63726  0.91446  1.0000
  F   F229      1.0  0.49474  0.13207  0.43088  1.0000
  F   F230      1.0  0.49204  0.14175  0.93189  1.0000
  F   F231      1.0  0.48771  0.62993  0.44372  1.0000
  F   F232      1.0  0.49775  0.62949  0.92961  1.0000
  F   F233      1.0  0.73748  0.15751  0.41344  1.0000
  F   F234      1.0  0.74358  0.13660  0.92493  1.0000
  F   F235      1.0  0.74435  0.63371  0.43073  1.0000
  F   F236      1.0  0.73848  0.64564  0.93316  1.0000
  F   F237      1.0  0.98743  0.14281  0.43552  1.0000
  F   F238      1.0  0.99060  0.11989  0.94013  1.0000
  F   F239      1.0  0.99275  0.63564  0.42381  1.0000
  F   F240      1.0  0.99007  0.64357  0.92621  1.0000
  F   F241      1.0  0.18143  0.01980  0.32383  1.0000
  F   F242      1.0  0.18255  0.01751  0.82994  1.0000
  F   F243      1.0  0.17440  0.51856  0.32820  1.0000
  F   F244      1.0  0.19302  0.51612  0.81216  1.0000
  F   F245      1.0  0.42948  0.01433  0.32072  1.0000
  F   F246      1.0  0.42545  0.01395  0.84276  1.0000
  F   F247      1.0  0.43457  0.52472  0.30737  1.0000
  F   F248      1.0  0.43519  0.51975  0.81602  1.0000
  F   F249      1.0  0.68222  0.01043  0.33515  1.0000
  F   F250      1.0  0.67915  0.02034  0.81195  1.0000
  F   F251      1.0  0.66876  0.52386  0.33121  1.0000
  F   F252      1.0  0.68106  0.51829  0.81740  1.0000
  F   F253      1.0  0.93404  0.03048  0.30652  1.0000
  F   F254      1.0  0.92721  0.01609  0.81263  1.0000
  F   F255      1.0  0.92778  0.50635  0.34093  1.0000
  F   F256      1.0  0.93426  0.51510  0.81535  1.0000
  F   F257      1.0  0.99718  0.25946  0.99602  1.0000
  F   F258      1.0  0.99887  0.25787  0.49895  1.0000
  F   F259      1.0  0.99961  0.75651  0.98953  1.0000
  F   F260      1.0  0.00085  0.73842  0.51137  1.0000
  F   F261      1.0  0.24614  0.24993  0.00279  1.0000
  F   F262      1.0  0.24686  0.24363  0.51951  1.0000
  F   F263      1.0  0.24826  0.74106  0.99911  1.0000
  F   F264      1.0  0.25076  0.75309  0.49123  1.0000
  F   F265      1.0  0.50340  0.25895  0.99358  1.0000
  F   F266      1.0  0.50250  0.23600  0.50793  1.0000
  F   F267      1.0  0.50204  0.75204  0.99959  1.0000
  F   F268      1.0  0.50173  0.74652  0.49853  1.0000
  F   F269      1.0  0.75071  0.25986  0.99826  1.0000
  F   F270      1.0  0.74553  0.24419  0.51375  1.0000
  F   F271      1.0  0.75286  0.75812  0.99761  1.0000
  F   F272      1.0  0.74870  0.73087  0.52422  1.0000
  F   F273      1.0  0.12202  0.00273  0.25500  1.0000
  F   F274      1.0  0.11926  0.99584  0.76686  1.0000
  F   F275      1.0  0.11515  0.49783  0.26358  1.0000
  F   F276      1.0  0.13332  0.51046  0.73969  1.0000
  F   F277      1.0  0.36962  0.99789  0.24993  1.0000
  F   F278      1.0  0.38074  0.00376  0.74401  1.0000
  F   F279      1.0  0.38104  0.49705  0.24443  1.0000
  F   F280      1.0  0.37696  0.50798  0.74035  1.0000
  F   F281      1.0  0.62649  0.01200  0.25852  1.0000
  F   F282      1.0  0.62685  0.00413  0.73507  1.0000
  F   F283      1.0  0.61929  0.50136  0.25335  1.0000
  F   F284      1.0  0.62025  0.50021  0.74361  1.0000
  F   F285      1.0  0.87422  0.00076  0.26134  1.0000
  F   F286      1.0  0.87761  0.99458  0.73886  1.0000
  F   F287      1.0  0.87505  0.49654  0.25844  1.0000
  F   F288      1.0  0.87227  0.50428  0.75308  1.0000
  F   F289      1.0  0.04348  0.02433  0.02649  1.0000
  F   F290      1.0  0.04224  0.02997  0.52181  1.0000
  F   F291      1.0  0.04200  0.54331  0.02441  1.0000
  F   F292      1.0  0.05656  0.52191  0.51988  1.0000
  F   F293      1.0  0.30214  0.02557  0.00370  1.0000
  F   F294      1.0  0.28740  0.03709  0.52267  1.0000
  F   F295      1.0  0.28661  0.52130  0.04226  1.0000
  F   F296      1.0  0.29049  0.51598  0.52449  1.0000
  F   F297      1.0  0.55233  0.02404  0.00784  1.0000
  F   F298      1.0  0.54804  0.03212  0.51718  1.0000
  F   F299      1.0  0.53940  0.52723  0.02634  1.0000
  F   F300      1.0  0.55230  0.51831  0.51630  1.0000
  F   F301      1.0  0.80310  0.03433  0.01958  1.0000
  F   F302      1.0  0.79025  0.03827  0.51145  1.0000
  F   F303      1.0  0.78593  0.54111  0.04159  1.0000
  F   F304      1.0  0.79079  0.52526  0.53059  1.0000
  F   F305      1.0  0.23576  0.40271  0.23707  1.0000
  F   F306      1.0  0.24142  0.40841  0.72607  1.0000
  F   F307      1.0  0.24158  0.90449  0.22494  1.0000
  F   F308      1.0  0.22439  0.90645  0.73470  1.0000
  F   F309      1.0  0.48088  0.41357  0.21418  1.0000
  F   F310      1.0  0.48039  0.41997  0.72505  1.0000
  F   F311      1.0  0.48439  0.92115  0.21523  1.0000
  F   F312      1.0  0.48373  0.93173  0.71631  1.0000
  F   F313      1.0  0.73498  0.42132  0.23738  1.0000
  F   F314      1.0  0.73413  0.40716  0.74363  1.0000
  F   F315      1.0  0.72974  0.91291  0.23260  1.0000
  F   F316      1.0  0.73715  0.92786  0.70699  1.0000
  F   F317      1.0  0.98207  0.43409  0.20909  1.0000
  F   F318      1.0  0.98464  0.40951  0.72273  1.0000
  F   F319      1.0  0.98108  0.91450  0.23182  1.0000
  F   F320      1.0  0.98418  0.91079  0.72763  1.0000
  F   F321      1.0  0.20711  0.47769  0.47296  1.0000
  F   F322      1.0  0.20907  0.46880  0.97943  1.0000
  F   F323      1.0  0.20314  0.98108  0.48975  1.0000
  F   F324      1.0  0.20380  0.96075  0.99467  1.0000
  F   F325      1.0  0.46600  0.47250  0.46560  1.0000
  F   F326      1.0  0.45170  0.46873  0.99265  1.0000
  F   F327      1.0  0.45874  0.96742  0.47048  1.0000
  F   F328      1.0  0.45694  0.97397  0.98505  1.0000
  F   F329      1.0  0.70336  0.47315  0.47750  1.0000
  F   F330      1.0  0.70737  0.47932  0.96638  1.0000
  F   F331      1.0  0.70995  0.96974  0.48782  1.0000
  F   F332      1.0  0.69615  0.97796  0.97449  1.0000
  F   F333      1.0  0.95514  0.46971  0.47761  1.0000
  F   F334      1.0  0.96534  0.46502  0.96549  1.0000
  F   F335      1.0  0.95270  0.98191  0.47010  1.0000
  F   F336      1.0  0.94800  0.96172  0.98305  1.0000
  F   F337      1.0  0.01374  0.10310  0.27860  1.0000
  F   F338      1.0  0.01094  0.06728  0.78438  1.0000
  F   F339      1.0  0.01149  0.58477  0.27518  1.0000
  F   F340      1.0  0.01112  0.59946  0.76189  1.0000
  F   F341      1.0  0.26647  0.08302  0.27808  1.0000
  F   F342      1.0  0.26994  0.08188  0.77419  1.0000
  F   F343      1.0  0.26731  0.58570  0.27215  1.0000
  F   F344      1.0  0.27188  0.59238  0.76419  1.0000
  F   F345      1.0  0.51868  0.08406  0.26671  1.0000
  F   F346      1.0  0.51706  0.07281  0.77725  1.0000
  F   F347      1.0  0.51543  0.59516  0.25131  1.0000
  F   F348      1.0  0.51836  0.58435  0.78194  1.0000
  F   F349      1.0  0.76675  0.08039  0.27836  1.0000
  F   F350      1.0  0.76714  0.08573  0.76641  1.0000
  F   F351      1.0  0.76309  0.59388  0.26428  1.0000
  F   F352      1.0  0.77040  0.57651  0.77735  1.0000
  F   F353      1.0  0.09952  0.38855  0.46224  1.0000
  F   F354      1.0  0.09771  0.41620  0.95545  1.0000
  F   F355      1.0  0.09526  0.90904  0.46949  1.0000
  F   F356      1.0  0.09965  0.90560  0.96147  1.0000
  F   F357      1.0  0.36017  0.41025  0.45437  1.0000
  F   F358      1.0  0.35514  0.42921  0.95202  1.0000
  F   F359      1.0  0.35104  0.91231  0.45173  1.0000
  F   F360      1.0  0.35640  0.88581  0.96271  1.0000
  F   F361      1.0  0.60194  0.39740  0.46716  1.0000
  F   F362      1.0  0.60162  0.41806  0.95307  1.0000
  F   F363      1.0  0.60238  0.91369  0.45988  1.0000
  F   F364      1.0  0.60675  0.90776  0.95874  1.0000
  F   F365      1.0  0.85006  0.41810  0.45374  1.0000
  F   F366      1.0  0.84887  0.41601  0.97383  1.0000
  F   F367      1.0  0.85486  0.91914  0.46063  1.0000
  F   F368      1.0  0.85284  0.89783  0.96818  1.0000
  F   F369      1.0  0.03836  0.30328  0.28680  1.0000
  F   F370      1.0  0.04785  0.29702  0.78464  1.0000
  F   F371      1.0  0.04388  0.80167  0.28158  1.0000
  F   F372      1.0  0.04775  0.79346  0.78399  1.0000
  F   F373      1.0  0.30602  0.30219  0.28024  1.0000
  F   F374      1.0  0.30508  0.29519  0.77968  1.0000
  F   F375      1.0  0.31087  0.78481  0.27587  1.0000
  F   F376      1.0  0.28608  0.80396  0.77481  1.0000
  F   F377      1.0  0.53823  0.30050  0.29065  1.0000
  F   F378      1.0  0.55419  0.30187  0.78709  1.0000
  F   F379      1.0  0.53949  0.79471  0.28039  1.0000
  F   F380      1.0  0.54111  0.80565  0.78392  1.0000
  F   F381      1.0  0.80036  0.30854  0.29113  1.0000
  F   F382      1.0  0.80020  0.28658  0.79099  1.0000
  F   F383      1.0  0.79562  0.80076  0.29201  1.0000
  F   F384      1.0  0.79704  0.79902  0.79182  1.0000
