data_image0
_chemical_formula_structural       Hf96F384
_chemical_formula_sum              "Hf96 F384"
_cell_length_a       31.0134
_cell_length_b       15.5055
_cell_length_c       15.4989
_cell_angle_alpha    63.342
_cell_angle_beta     63.342
_cell_angle_gamma    80.1625

_space_group_name_H-M_alt    "P 1"
_space_group_IT_number       1

loop_
  _space_group_symop_operation_xyz
  'x, y, z'

loop_
  _atom_site_type_symbol
  _atom_site_label
  _atom_site_symmetry_multiplicity
  _atom_site_fract_x
  _atom_site_fract_y
  _atom_site_fract_z
  _atom_site_occupancy
  Hf  Hf1       1.0  0.19689  0.10925  0.37728  1.0000
  Hf  Hf2       1.0  0.19511  0.10862  0.87289  1.0000
  Hf  Hf3       1.0  0.19693  0.61325  0.37077  1.0000
  Hf  Hf4       1.0  0.19869  0.60735  0.86818  1.0000
  Hf  Hf5       1.0  0.44700  0.10326  0.37987  1.0000
  Hf  Hf6       1.0  0.44473  0.10946  0.87217  1.0000
  Hf  Hf7       1.0  0.45145  0.61275  0.36846  1.0000
  Hf  Hf8       1.0  0.44793  0.60895  0.86897  1.0000
  Hf  Hf9       1.0  0.69658  0.10746  0.37222  1.0000
  Hf  Hf10      1.0  0.69520  0.10126  0.87948  1.0000
  Hf  Hf11      1.0  0.69878  0.60266  0.36825  1.0000
  Hf  Hf12      1.0  0.69533  0.59799  0.88033  1.0000
  Hf  Hf13      1.0  0.94441  0.11173  0.38366  1.0000
  Hf  Hf14      1.0  0.94319  0.10147  0.87580  1.0000
  Hf  Hf15      1.0  0.94546  0.60340  0.38067  1.0000
  Hf  Hf16      1.0  0.94629  0.60250  0.88699  1.0000
  Hf  Hf17      1.0  0.05390  0.39782  0.13109  1.0000
  Hf  Hf18      1.0  0.05343  0.39857  0.61467  1.0000
  Hf  Hf19      1.0  0.05147  0.89663  0.12397  1.0000
  Hf  Hf20      1.0  0.05751  0.90398  0.60496  1.0000
  Hf  Hf21      1.0  0.30650  0.39625  0.11793  1.0000
  Hf  Hf22      1.0  0.30770  0.39369  0.61602  1.0000
  Hf  Hf23      1.0  0.30441  0.89279  0.12547  1.0000
  Hf  Hf24      1.0  0.30143  0.89071  0.62852  1.0000
  Hf  Hf25      1.0  0.55454  0.39720  0.11720  1.0000
  Hf  Hf26      1.0  0.54987  0.39077  0.62920  1.0000
  Hf  Hf27      1.0  0.55464  0.88681  0.13469  1.0000
  Hf  Hf28      1.0  0.55252  0.89327  0.63355  1.0000
  Hf  Hf29      1.0  0.80198  0.39387  0.12745  1.0000
  Hf  Hf30      1.0  0.80015  0.38738  0.62994  1.0000
  Hf  Hf31      1.0  0.79986  0.88791  0.13424  1.0000
  Hf  Hf32      1.0  0.80574  0.88752  0.62064  1.0000
  Hf  Hf33      1.0  0.05971  0.18471  0.41135  1.0000
  Hf  Hf34      1.0  0.05328  0.18795  0.91756  1.0000
  Hf  Hf35      1.0  0.05285  0.68382  0.41902  1.0000
  Hf  Hf36      1.0  0.05785  0.68459  0.91371  1.0000
  Hf  Hf37      1.0  0.31021  0.18721  0.40857  1.0000
  Hf  Hf38      1.0  0.30363  0.19123  0.91646  1.0000
  Hf  Hf39      1.0  0.30882  0.68282  0.41446  1.0000
  Hf  Hf40      1.0  0.30467  0.68395  0.91309  1.0000
  Hf  Hf41      1.0  0.55679  0.18265  0.41362  1.0000
  Hf  Hf42      1.0  0.55454  0.16926  0.91909  1.0000
  Hf  Hf43      1.0  0.55602  0.68102  0.42372  1.0000
  Hf  Hf44      1.0  0.55638  0.69052  0.91295  1.0000
  Hf  Hf45      1.0  0.80353  0.18529  0.41688  1.0000
  Hf  Hf46      1.0  0.80436  0.18252  0.91410  1.0000
  Hf  Hf47      1.0  0.80703  0.68076  0.42002  1.0000
  Hf  Hf48      1.0  0.80842  0.68675  0.91339  1.0000
  Hf  Hf49      1.0  0.16223  0.39857  0.32496  1.0000
  Hf  Hf50      1.0  0.15520  0.39518  0.82557  1.0000
  Hf  Hf51      1.0  0.15818  0.88899  0.32821  1.0000
  Hf  Hf52      1.0  0.15543  0.88683  0.83649  1.0000
  Hf  Hf53      1.0  0.41280  0.38913  0.33091  1.0000
  Hf  Hf54      1.0  0.40805  0.38436  0.83758  1.0000
  Hf  Hf55      1.0  0.40629  0.88762  0.33933  1.0000
  Hf  Hf56      1.0  0.41037  0.88681  0.83017  1.0000
  Hf  Hf57      1.0  0.65771  0.38626  0.33659  1.0000
  Hf  Hf58      1.0  0.65719  0.38349  0.83237  1.0000
  Hf  Hf59      1.0  0.65734  0.88146  0.33861  1.0000
  Hf  Hf60      1.0  0.66074  0.88327  0.83094  1.0000
  Hf  Hf61      1.0  0.90593  0.38866  0.33950  1.0000
  Hf  Hf62      1.0  0.90862  0.38754  0.84123  1.0000
  Hf  Hf63      1.0  0.90878  0.89316  0.32967  1.0000
  Hf  Hf64      1.0  0.91267  0.89234  0.82332  1.0000
  Hf  Hf65      1.0  0.19228  0.32063  0.08093  1.0000
  Hf  Hf66      1.0  0.19597  0.31726  0.57673  1.0000
  Hf  Hf67      1.0  0.19293  0.81966  0.07963  1.0000
  Hf  Hf68      1.0  0.19473  0.81048  0.58811  1.0000
  Hf  Hf69      1.0  0.44559  0.31777  0.08213  1.0000
  Hf  Hf70      1.0  0.44341  0.31929  0.58288  1.0000
  Hf  Hf71      1.0  0.44269  0.80713  0.09069  1.0000
  Hf  Hf72      1.0  0.44199  0.81920  0.58759  1.0000
  Hf  Hf73      1.0  0.69241  0.31605  0.08516  1.0000
  Hf  Hf74      1.0  0.69298  0.32086  0.57971  1.0000
  Hf  Hf75      1.0  0.69461  0.80779  0.08847  1.0000
  Hf  Hf76      1.0  0.69324  0.81284  0.59094  1.0000
  Hf  Hf77      1.0  0.94362  0.31004  0.09461  1.0000
  Hf  Hf78      1.0  0.94466  0.31764  0.58317  1.0000
  Hf  Hf79      1.0  0.93920  0.81167  0.08666  1.0000
  Hf  Hf80      1.0  0.94685  0.82007  0.58058  1.0000
  Hf  Hf81      1.0  0.09207  0.11302  0.15895  1.0000
  Hf  Hf82      1.0  0.09063  0.11389  0.66877  1.0000
  Hf  Hf83      1.0  0.09187  0.61428  0.16613  1.0000
  Hf  Hf84      1.0  0.08734  0.61671  0.66537  1.0000
  Hf  Hf85      1.0  0.34132  0.11281  0.16787  1.0000
  Hf  Hf86      1.0  0.33936  0.11115  0.67289  1.0000
  Hf  Hf87      1.0  0.34123  0.61367  0.16468  1.0000
  Hf  Hf88      1.0  0.34190  0.61013  0.66882  1.0000
  Hf  Hf89      1.0  0.59224  0.11354  0.16433  1.0000
  Hf  Hf90      1.0  0.59196  0.11470  0.66538  1.0000
  Hf  Hf91      1.0  0.59204  0.60518  0.17143  1.0000
  Hf  Hf92      1.0  0.59137  0.61212  0.66805  1.0000
  Hf  Hf93      1.0  0.83701  0.11368  0.16610  1.0000
  Hf  Hf94      1.0  0.83911  0.11061  0.66506  1.0000
  Hf  Hf95      1.0  0.84442  0.61284  0.16508  1.0000
  Hf  Hf96      1.0  0.84467  0.60853  0.66958  1.0000
  F   F1        1.0  0.08103  0.13110  0.29479  1.0000
  F   F2        1.0  0.07325  0.12061  0.81898  1.0000
  F   F3        1.0  0.08534  0.63414  0.29442  1.0000
  F   F4        1.0  0.08000  0.62606  0.79847  1.0000
  F   F5        1.0  0.33357  0.12755  0.29950  1.0000
  F   F6        1.0  0.32751  0.12016  0.81268  1.0000
  F   F7        1.0  0.32918  0.62440  0.29874  1.0000
  F   F8        1.0  0.32991  0.63439  0.80281  1.0000
  F   F9        1.0  0.57715  0.13025  0.30415  1.0000
  F   F10       1.0  0.58026  0.12107  0.80310  1.0000
  F   F11       1.0  0.58008  0.61724  0.31382  1.0000
  F   F12       1.0  0.58228  0.63541  0.80060  1.0000
  F   F13       1.0  0.83219  0.14087  0.29643  1.0000
  F   F14       1.0  0.82448  0.11886  0.81364  1.0000
  F   F15       1.0  0.83690  0.64208  0.29163  1.0000
  F   F16       1.0  0.82458  0.61692  0.81821  1.0000
  F   F17       1.0  0.19258  0.35626  0.43528  1.0000
  F   F18       1.0  0.18360  0.35728  0.94417  1.0000
  F   F19       1.0  0.18132  0.83087  0.44962  1.0000
  F   F20       1.0  0.18393  0.84124  0.94462  1.0000
  F   F21       1.0  0.44138  0.34501  0.43810  1.0000
  F   F22       1.0  0.44334  0.34637  0.94439  1.0000
  F   F23       1.0  0.42991  0.84498  0.45678  1.0000
  F   F24       1.0  0.44276  0.84367  0.93810  1.0000
  F   F25       1.0  0.68433  0.35092  0.44600  1.0000
  F   F26       1.0  0.67900  0.33436  0.95455  1.0000
  F   F27       1.0  0.68323  0.82563  0.46812  1.0000
  F   F28       1.0  0.68868  0.83978  0.94525  1.0000
  F   F29       1.0  0.93859  0.34290  0.44519  1.0000
  F   F30       1.0  0.93621  0.34641  0.95102  1.0000
  F   F31       1.0  0.94113  0.84132  0.44361  1.0000
  F   F32       1.0  0.94284  0.85525  0.93572  1.0000
  F   F33       1.0  0.17608  0.38468  0.18972  1.0000
  F   F34       1.0  0.16572  0.35904  0.70177  1.0000
  F   F35       1.0  0.17077  0.86699  0.19789  1.0000
  F   F36       1.0  0.16316  0.86734  0.69877  1.0000
  F   F37       1.0  0.42113  0.36195  0.19888  1.0000
  F   F38       1.0  0.41890  0.37378  0.70286  1.0000
  F   F39       1.0  0.42398  0.85665  0.20518  1.0000
  F   F40       1.0  0.42223  0.86602  0.70124  1.0000
  F   F41       1.0  0.66710  0.35154  0.21293  1.0000
  F   F42       1.0  0.67238  0.37935  0.68779  1.0000
  F   F43       1.0  0.66935  0.85239  0.20382  1.0000
  F   F44       1.0  0.67244  0.87086  0.69615  1.0000
  F   F45       1.0  0.92484  0.37841  0.20122  1.0000
  F   F46       1.0  0.92243  0.37475  0.70036  1.0000
  F   F47       1.0  0.92167  0.88022  0.19525  1.0000
  F   F48       1.0  0.92226  0.87595  0.69431  1.0000
  F   F49       1.0  0.05794  0.15690  0.06076  1.0000
  F   F50       1.0  0.06857  0.15486  0.54727  1.0000
  F   F51       1.0  0.07028  0.65863  0.04551  1.0000
  F   F52       1.0  0.05192  0.65729  0.56331  1.0000
  F   F53       1.0  0.31501  0.15555  0.04625  1.0000
  F   F54       1.0  0.31261  0.15460  0.56194  1.0000
  F   F55       1.0  0.31880  0.66946  0.03898  1.0000
  F   F56       1.0  0.30342  0.65862  0.55622  1.0000
  F   F57       1.0  0.56146  0.15364  0.06156  1.0000
  F   F58       1.0  0.56627  0.15265  0.55338  1.0000
  F   F59       1.0  0.57018  0.66351  0.04496  1.0000
  F   F60       1.0  0.56206  0.65468  0.56200  1.0000
  F   F61       1.0  0.81401  0.15882  0.04704  1.0000
  F   F62       1.0  0.81416  0.16755  0.54732  1.0000
  F   F63       1.0  0.82022  0.66800  0.04723  1.0000
  F   F64       1.0  0.81159  0.64828  0.56754  1.0000
  F   F65       1.0  0.19275  0.20736  0.21373  1.0000
  F   F66       1.0  0.21113  0.19254  0.71101  1.0000
  F   F67       1.0  0.20132  0.70103  0.19807  1.0000
  F   F68       1.0  0.20830  0.69602  0.70679  1.0000
  F   F69       1.0  0.45100  0.20646  0.21508  1.0000
  F   F70       1.0  0.45113  0.20015  0.70429  1.0000
  F   F71       1.0  0.46267  0.69096  0.19946  1.0000
  F   F72       1.0  0.45374  0.69624  0.70421  1.0000
  F   F73       1.0  0.70641  0.19290  0.22025  1.0000
  F   F74       1.0  0.69263  0.20197  0.71992  1.0000
  F   F75       1.0  0.70791  0.68790  0.20723  1.0000
  F   F76       1.0  0.70696  0.70051  0.71425  1.0000
  F   F77       1.0  0.94707  0.19219  0.22328  1.0000
  F   F78       1.0  0.95690  0.20544  0.71393  1.0000
  F   F79       1.0  0.94743  0.69898  0.20921  1.0000
  F   F80       1.0  0.95477  0.70888  0.70780  1.0000
  F   F81       1.0  0.14551  0.08853  0.03516  1.0000
  F   F82       1.0  0.15151  0.10113  0.53282  1.0000
  F   F83       1.0  0.15017  0.58974  0.03389  1.0000
  F   F84       1.0  0.14995  0.62316  0.53164  1.0000
  F   F85       1.0  0.39555  0.10206  0.03480  1.0000
  F   F86       1.0  0.39958  0.09452  0.53990  1.0000
  F   F87       1.0  0.39731  0.60209  0.03301  1.0000
  F   F88       1.0  0.39815  0.59002  0.54366  1.0000
  F   F89       1.0  0.64565  0.09938  0.04050  1.0000
  F   F90       1.0  0.64768  0.07972  0.53827  1.0000
  F   F91       1.0  0.65576  0.58899  0.03514  1.0000
  F   F92       1.0  0.64609  0.60503  0.53594  1.0000
  F   F93       1.0  0.89332  0.08782  0.03399  1.0000
  F   F94       1.0  0.90278  0.10163  0.53568  1.0000
  F   F95       1.0  0.89979  0.58653  0.04729  1.0000
  F   F96       1.0  0.90315  0.58821  0.54604  1.0000
  F   F97       1.0  0.15083  0.19632  0.11312  1.0000
  F   F98       1.0  0.14743  0.20175  0.63260  1.0000
  F   F99       1.0  0.14909  0.69987  0.10877  1.0000
  F   F100      1.0  0.15051  0.69957  0.63411  1.0000
  F   F101      1.0  0.39863  0.20889  0.12779  1.0000
  F   F102      1.0  0.39896  0.20205  0.62650  1.0000
  F   F103      1.0  0.40534  0.69465  0.12015  1.0000
  F   F104      1.0  0.40055  0.70319  0.62240  1.0000
  F   F105      1.0  0.65374  0.19581  0.13721  1.0000
  F   F106      1.0  0.64983  0.20621  0.61387  1.0000
  F   F107      1.0  0.65380  0.68600  0.13046  1.0000
  F   F108      1.0  0.65387  0.68036  0.63014  1.0000
  F   F109      1.0  0.90104  0.19589  0.10922  1.0000
  F   F110      1.0  0.89978  0.20601  0.62134  1.0000
  F   F111      1.0  0.90236  0.70277  0.10938  1.0000
  F   F112      1.0  0.90161  0.69153  0.62302  1.0000
  F   F113      1.0  0.10806  0.31247  0.37354  1.0000
  F   F114      1.0  0.09653  0.31388  0.87504  1.0000
  F   F115      1.0  0.10325  0.80469  0.36393  1.0000
  F   F116      1.0  0.09439  0.80608  0.88617  1.0000
  F   F117      1.0  0.34706  0.30663  0.37490  1.0000
  F   F118      1.0  0.34794  0.30056  0.88382  1.0000
  F   F119      1.0  0.35194  0.80010  0.37767  1.0000
  F   F120      1.0  0.34779  0.80436  0.85938  1.0000
  F   F121      1.0  0.59688  0.30940  0.37866  1.0000
  F   F122      1.0  0.60123  0.28873  0.87785  1.0000
  F   F123      1.0  0.59901  0.80102  0.38621  1.0000
  F   F124      1.0  0.59606  0.81590  0.86829  1.0000
  F   F125      1.0  0.85364  0.29852  0.36689  1.0000
  F   F126      1.0  0.84612  0.29305  0.87903  1.0000
  F   F127      1.0  0.85230  0.78821  0.37618  1.0000
  F   F128      1.0  0.84908  0.80113  0.87891  1.0000
  F   F129      1.0  0.07037  0.25813  0.13564  1.0000
  F   F130      1.0  0.06262  0.25414  0.62742  1.0000
  F   F131      1.0  0.05843  0.75101  0.15437  1.0000
  F   F132      1.0  0.06564  0.75590  0.63031  1.0000
  F   F133      1.0  0.32196  0.25068  0.12767  1.0000
  F   F134      1.0  0.31326  0.24517  0.65199  1.0000
  F   F135      1.0  0.32569  0.75859  0.12792  1.0000
  F   F136      1.0  0.31107  0.75293  0.63215  1.0000
  F   F137      1.0  0.56883  0.25414  0.12628  1.0000
  F   F138      1.0  0.56447  0.24975  0.64117  1.0000
  F   F139      1.0  0.56273  0.74041  0.15333  1.0000
  F   F140      1.0  0.56055  0.74481  0.65520  1.0000
  F   F141      1.0  0.81109  0.24402  0.14670  1.0000
  F   F142      1.0  0.81538  0.24486  0.64651  1.0000
  F   F143      1.0  0.80448  0.74673  0.15713  1.0000
  F   F144      1.0  0.81557  0.74220  0.65063  1.0000
  F   F145      1.0  0.12392  0.37448  0.10882  1.0000
  F   F146      1.0  0.12232  0.36646  0.60648  1.0000
  F   F147      1.0  0.12250  0.86625  0.11428  1.0000
  F   F148      1.0  0.12735  0.88017  0.58588  1.0000
  F   F149      1.0  0.37374  0.38616  0.09742  1.0000
  F   F150      1.0  0.37901  0.36987  0.60268  1.0000
  F   F151      1.0  0.37401  0.87182  0.11795  1.0000
  F   F152      1.0  0.37120  0.88181  0.61304  1.0000
  F   F153      1.0  0.62660  0.37498  0.10409  1.0000
  F   F154      1.0  0.62141  0.37781  0.60362  1.0000
  F   F155      1.0  0.62160  0.83810  0.13795  1.0000
  F   F156      1.0  0.62507  0.85165  0.63029  1.0000
  F   F157      1.0  0.87259  0.36109  0.11857  1.0000
  F   F158      1.0  0.87664  0.37095  0.61018  1.0000
  F   F159      1.0  0.87195  0.86434  0.10840  1.0000
  F   F160      1.0  0.87682  0.85514  0.61044  1.0000
  F   F161      1.0  0.18736  0.25295  0.35490  1.0000
  F   F162      1.0  0.18019  0.25246  0.85957  1.0000
  F   F163      1.0  0.19489  0.75592  0.33178  1.0000
  F   F164      1.0  0.17798  0.74380  0.86169  1.0000
  F   F165      1.0  0.43167  0.24845  0.35677  1.0000
  F   F166      1.0  0.43961  0.25018  0.86095  1.0000
  F   F167      1.0  0.44050  0.73984  0.36213  1.0000
  F   F168      1.0  0.44156  0.74841  0.85241  1.0000
  F   F169      1.0  0.68746  0.25243  0.35521  1.0000
  F   F170      1.0  0.68760  0.25100  0.85557  1.0000
  F   F171      1.0  0.69468  0.74598  0.33921  1.0000
  F   F172      1.0  0.68153  0.74838  0.86366  1.0000
  F   F173      1.0  0.94311  0.25012  0.35153  1.0000
  F   F174      1.0  0.93006  0.24915  0.86818  1.0000
  F   F175      1.0  0.93743  0.74789  0.35719  1.0000
  F   F176      1.0  0.93307  0.74379  0.87295  1.0000
  F   F177      1.0  0.12727  0.12487  0.39568  1.0000
  F   F178      1.0  0.12550  0.15215  0.87234  1.0000
  F   F179      1.0  0.12066  0.62821  0.40673  1.0000
  F   F180      1.0  0.12353  0.62866  0.88345  1.0000
  F   F181      1.0  0.37681  0.12432  0.39068  1.0000
  F   F182      1.0  0.37792  0.14444  0.87879  1.0000
  F   F183      1.0  0.38098  0.64524  0.37340  1.0000
  F   F184      1.0  0.37997  0.63816  0.88128  1.0000
  F   F185      1.0  0.62789  0.14122  0.38123  1.0000
  F   F186      1.0  0.62201  0.11201  0.90752  1.0000
  F   F187      1.0  0.63009  0.63376  0.37684  1.0000
  F   F188      1.0  0.62911  0.63664  0.88998  1.0000
  F   F189      1.0  0.87353  0.13655  0.40040  1.0000
  F   F190      1.0  0.87239  0.11920  0.89073  1.0000
  F   F191      1.0  0.87686  0.62121  0.40334  1.0000
  F   F192      1.0  0.87419  0.62386  0.90035  1.0000
  F   F193      1.0  0.00803  0.35197  0.08428  1.0000
  F   F194      1.0  0.00899  0.36653  0.56456  1.0000
  F   F195      1.0  0.00135  0.85723  0.08765  1.0000
  F   F196      1.0  0.01207  0.87209  0.55567  1.0000
  F   F197      1.0  0.25838  0.35092  0.09341  1.0000
  F   F198      1.0  0.25509  0.36698  0.56570  1.0000
  F   F199      1.0  0.26205  0.85337  0.07245  1.0000
  F   F200      1.0  0.25359  0.86320  0.57778  1.0000
  F   F201      1.0  0.50642  0.36536  0.08058  1.0000
  F   F202      1.0  0.50428  0.35802  0.58211  1.0000
  F   F203      1.0  0.51081  0.86475  0.07779  1.0000
  F   F204      1.0  0.50424  0.85159  0.59350  1.0000
  F   F205      1.0  0.75953  0.35453  0.07727  1.0000
  F   F206      1.0  0.76175  0.36538  0.56032  1.0000
  F   F207      1.0  0.76017  0.85810  0.07864  1.0000
  F   F208      1.0  0.76034  0.86245  0.57124  1.0000
  F   F209      1.0  0.06855  0.48307  0.18371  1.0000
  F   F210      1.0  0.07492  0.49317  0.65469  1.0000
  F   F211      1.0  0.07151  0.98385  0.17371  1.0000
  F   F212      1.0  0.07424  0.98401  0.66998  1.0000
  F   F213      1.0  0.31603  0.49911  0.16462  1.0000
  F   F214      1.0  0.32008  0.48288  0.67680  1.0000
  F   F215      1.0  0.30964  0.98662  0.19460  1.0000
  F   F216      1.0  0.31366  0.97330  0.69527  1.0000
  F   F217      1.0  0.57005  0.48226  0.17177  1.0000
  F   F218      1.0  0.56790  0.48704  0.67732  1.0000
  F   F219      1.0  0.57158  0.97768  0.17818  1.0000
  F   F220      1.0  0.56985  0.97959  0.69063  1.0000
  F   F221      1.0  0.82037  0.48935  0.16508  1.0000
  F   F222      1.0  0.82387  0.48436  0.66716  1.0000
  F   F223      1.0  0.81569  0.98334  0.18181  1.0000
  F   F224      1.0  0.82383  0.97636  0.66625  1.0000
  F   F225      1.0  0.24659  0.13049  0.43104  1.0000
  F   F226      1.0  0.24391  0.13763  0.92967  1.0000
  F   F227      1.0  0.24369  0.63546  0.42787  1.0000
  F   F228      1.0  0.24035  0.64501  0.91385  1.0000
  F   F229      1.0  0.49608  0.14000  0.41880  1.0000
  F   F230      1.0  0.48787  0.14089  0.93088  1.0000
  F   F231      1.0  0.49583  0.63337  0.43503  1.0000
  F   F232      1.0  0.49432  0.63798  0.92031  1.0000
  F   F233      1.0  0.73909  0.14027  0.42855  1.0000
  F   F234      1.0  0.73788  0.12120  0.94025  1.0000
  F   F235      1.0  0.74946  0.63570  0.42171  1.0000
  F   F236      1.0  0.74444  0.63447  0.91987  1.0000
  F   F237      1.0  0.99576  0.14172  0.43024  1.0000
  F   F238      1.0  0.98826  0.13820  0.92867  1.0000
  F   F239      1.0  0.99408  0.63559  0.42227  1.0000
  F   F240      1.0  0.99750  0.63084  0.91702  1.0000
  F   F241      1.0  0.18090  0.01699  0.32862  1.0000
  F   F242      1.0  0.18316  0.01649  0.82963  1.0000
  F   F243      1.0  0.18220  0.52712  0.32197  1.0000
  F   F244      1.0  0.18748  0.51777  0.81142  1.0000
  F   F245      1.0  0.42908  0.00818  0.33463  1.0000
  F   F246      1.0  0.43036  0.02037  0.81795  1.0000
  F   F247      1.0  0.42909  0.51693  0.33539  1.0000
  F   F248      1.0  0.42933  0.50545  0.83543  1.0000
  F   F249      1.0  0.67323  0.00619  0.34063  1.0000
  F   F250      1.0  0.68544  0.01562  0.82558  1.0000
  F   F251      1.0  0.67783  0.51098  0.32602  1.0000
  F   F252      1.0  0.67963  0.50276  0.83275  1.0000
  F   F253      1.0  0.92711  0.01957  0.32913  1.0000
  F   F254      1.0  0.93366  0.02040  0.81018  1.0000
  F   F255      1.0  0.93039  0.52064  0.30888  1.0000
  F   F256      1.0  0.93158  0.51711  0.83689  1.0000
  F   F257      1.0  0.00185  0.26369  0.99391  1.0000
  F   F258      1.0  0.00266  0.23606  0.51150  1.0000
  F   F259      1.0  0.00196  0.75742  0.00024  1.0000
  F   F260      1.0  0.00315  0.76783  0.48806  1.0000
  F   F261      1.0  0.24957  0.26547  0.98910  1.0000
  F   F262      1.0  0.24963  0.25169  0.49162  1.0000
  F   F263      1.0  0.25193  0.76576  0.98262  1.0000
  F   F264      1.0  0.25422  0.76529  0.48082  1.0000
  F   F265      1.0  0.50193  0.25046  0.00243  1.0000
  F   F266      1.0  0.50059  0.23946  0.50510  1.0000
  F   F267      1.0  0.50353  0.74433  0.00649  1.0000
  F   F268      1.0  0.49374  0.74619  0.50304  1.0000
  F   F269      1.0  0.74236  0.24060  0.00842  1.0000
  F   F270      1.0  0.74425  0.24411  0.50261  1.0000
  F   F271      1.0  0.75228  0.74276  0.01300  1.0000
  F   F272      1.0  0.75222  0.74973  0.50121  1.0000
  F   F273      1.0  0.13520  0.01345  0.22479  1.0000
  F   F274      1.0  0.12751  0.00919  0.75012  1.0000
  F   F275      1.0  0.12608  0.50244  0.24611  1.0000
  F   F276      1.0  0.12621  0.50430  0.74332  1.0000
  F   F277      1.0  0.37711  0.00186  0.24168  1.0000
  F   F278      1.0  0.37856  0.99789  0.74160  1.0000
  F   F279      1.0  0.37780  0.49568  0.24994  1.0000
  F   F280      1.0  0.37221  0.49593  0.75385  1.0000
  F   F281      1.0  0.63120  0.00070  0.24736  1.0000
  F   F282      1.0  0.62867  0.01060  0.74806  1.0000
  F   F283      1.0  0.62885  0.49475  0.24040  1.0000
  F   F284      1.0  0.62236  0.49508  0.75289  1.0000
  F   F285      1.0  0.87091  0.99652  0.25283  1.0000
  F   F286      1.0  0.87317  0.00442  0.74465  1.0000
  F   F287      1.0  0.86513  0.49564  0.26334  1.0000
  F   F288      1.0  0.88032  0.50300  0.75343  1.0000
  F   F289      1.0  0.04469  0.03882  0.01815  1.0000
  F   F290      1.0  0.04270  0.03364  0.51454  1.0000
  F   F291      1.0  0.03739  0.53609  0.03448  1.0000
  F   F292      1.0  0.03925  0.53446  0.52290  1.0000
  F   F293      1.0  0.30220  0.01928  0.01471  1.0000
  F   F294      1.0  0.30303  0.03149  0.51967  1.0000
  F   F295      1.0  0.29133  0.53611  0.01400  1.0000
  F   F296      1.0  0.30513  0.52412  0.50401  1.0000
  F   F297      1.0  0.54348  0.02342  0.03426  1.0000
  F   F298      1.0  0.53977  0.03152  0.52317  1.0000
  F   F299      1.0  0.53914  0.53279  0.03447  1.0000
  F   F300      1.0  0.54434  0.53235  0.52509  1.0000
  F   F301      1.0  0.79438  0.02657  0.02050  1.0000
  F   F302      1.0  0.78702  0.03329  0.53071  1.0000
  F   F303      1.0  0.78971  0.53007  0.03291  1.0000
  F   F304      1.0  0.79571  0.52545  0.52474  1.0000
  F   F305      1.0  0.23616  0.41700  0.22890  1.0000
  F   F306      1.0  0.23404  0.41653  0.70413  1.0000
  F   F307      1.0  0.23680  0.90780  0.23233  1.0000
  F   F308      1.0  0.22555  0.90841  0.73126  1.0000
  F   F309      1.0  0.48317  0.42065  0.23039  1.0000
  F   F310      1.0  0.48496  0.42251  0.72380  1.0000
  F   F311      1.0  0.48316  0.90975  0.24469  1.0000
  F   F312      1.0  0.48402  0.93569  0.71666  1.0000
  F   F313      1.0  0.73122  0.41165  0.23497  1.0000
  F   F314      1.0  0.73259  0.41125  0.71902  1.0000
  F   F315      1.0  0.72916  0.93113  0.22229  1.0000
  F   F316      1.0  0.73693  0.89840  0.72547  1.0000
  F   F317      1.0  0.98666  0.41339  0.23685  1.0000
  F   F318      1.0  0.98274  0.41319  0.73854  1.0000
  F   F319      1.0  0.98666  0.92964  0.22086  1.0000
  F   F320      1.0  0.98869  0.90736  0.72628  1.0000
  F   F321      1.0  0.20228  0.47307  0.48697  1.0000
  F   F322      1.0  0.20957  0.46990  0.97809  1.0000
  F   F323      1.0  0.21138  0.97092  0.46729  1.0000
  F   F324      1.0  0.20723  0.96515  0.98514  1.0000
  F   F325      1.0  0.45861  0.47106  0.48173  1.0000
  F   F326      1.0  0.45331  0.47417  0.98833  1.0000
  F   F327      1.0  0.45670  0.96952  0.48289  1.0000
  F   F328      1.0  0.45199  0.96736  0.98149  1.0000
  F   F329      1.0  0.70342  0.46859  0.49591  1.0000
  F   F330      1.0  0.71232  0.45773  0.97809  1.0000
  F   F331      1.0  0.70536  0.97193  0.47752  1.0000
  F   F332      1.0  0.70035  0.96223  0.99711  1.0000
  F   F333      1.0  0.95946  0.47682  0.47195  1.0000
  F   F334      1.0  0.95945  0.46479  0.98964  1.0000
  F   F335      1.0  0.95732  0.97230  0.48168  1.0000
  F   F336      1.0  0.95074  0.97235  0.97812  1.0000
  F   F337      1.0  0.01467  0.09174  0.26996  1.0000
  F   F338      1.0  0.01891  0.08554  0.76880  1.0000
  F   F339      1.0  0.01309  0.58899  0.27170  1.0000
  F   F340      1.0  0.01367  0.57858  0.77705  1.0000
  F   F341      1.0  0.26284  0.11991  0.25564  1.0000
  F   F342      1.0  0.26586  0.08078  0.78744  1.0000
  F   F343      1.0  0.26608  0.60038  0.25482  1.0000
  F   F344      1.0  0.27228  0.58403  0.77439  1.0000
  F   F345      1.0  0.51376  0.08316  0.27385  1.0000
  F   F346      1.0  0.51567  0.09480  0.76730  1.0000
  F   F347      1.0  0.51622  0.57800  0.27236  1.0000
  F   F348      1.0  0.51919  0.59035  0.76933  1.0000
  F   F349      1.0  0.77036  0.06553  0.29467  1.0000
  F   F350      1.0  0.76452  0.08949  0.77735  1.0000
  F   F351      1.0  0.76749  0.57682  0.27370  1.0000
  F   F352      1.0  0.76189  0.57158  0.77159  1.0000
  F   F353      1.0  0.10232  0.42417  0.46192  1.0000
  F   F354      1.0  0.10309  0.42451  0.94946  1.0000
  F   F355      1.0  0.10143  0.91636  0.44202  1.0000
  F   F356      1.0  0.09921  0.91134  0.95872  1.0000
  F   F357      1.0  0.35362  0.40209  0.46029  1.0000
  F   F358      1.0  0.34496  0.40996  0.95863  1.0000
  F   F359      1.0  0.34463  0.91287  0.45727  1.0000
  F   F360      1.0  0.35662  0.89074  0.96024  1.0000
  F   F361      1.0  0.59648  0.40176  0.47019  1.0000
  F   F362      1.0  0.59158  0.41232  0.96371  1.0000
  F   F363      1.0  0.59622  0.90955  0.47239  1.0000
  F   F364      1.0  0.60376  0.90305  0.97924  1.0000
  F   F365      1.0  0.85251  0.40721  0.47317  1.0000
  F   F366      1.0  0.84961  0.40040  0.96893  1.0000
  F   F367      1.0  0.85268  0.90792  0.45505  1.0000
  F   F368      1.0  0.85945  0.89932  0.95331  1.0000
  F   F369      1.0  0.05755  0.30486  0.28117  1.0000
  F   F370      1.0  0.04865  0.29749  0.78713  1.0000
  F   F371      1.0  0.04013  0.79217  0.29864  1.0000
  F   F372      1.0  0.05068  0.79273  0.77927  1.0000
  F   F373      1.0  0.29922  0.29558  0.27572  1.0000
  F   F374      1.0  0.30007  0.30856  0.78818  1.0000
  F   F375      1.0  0.29874  0.78812  0.28135  1.0000
  F   F376      1.0  0.28687  0.79165  0.79215  1.0000
  F   F377      1.0  0.54918  0.30317  0.27623  1.0000
  F   F378      1.0  0.54319  0.28707  0.79355  1.0000
  F   F379      1.0  0.54463  0.79590  0.30282  1.0000
  F   F380      1.0  0.53469  0.80808  0.79629  1.0000
  F   F381      1.0  0.79671  0.30786  0.29415  1.0000
  F   F382      1.0  0.79084  0.29536  0.79420  1.0000
  F   F383      1.0  0.79668  0.80686  0.28609  1.0000
  F   F384      1.0  0.79747  0.79673  0.78885  1.0000
