data_image0
_chemical_formula_structural       Hf96F384
_chemical_formula_sum              "Hf96 F384"
_cell_length_a       31.0458
_cell_length_b       15.5223
_cell_length_c       15.5121
_cell_angle_alpha    63.342
_cell_angle_beta     63.342
_cell_angle_gamma    80.1625

_space_group_name_H-M_alt    "P 1"
_space_group_IT_number       1

loop_
  _space_group_symop_operation_xyz
  'x, y, z'

loop_
  _atom_site_type_symbol
  _atom_site_label
  _atom_site_symmetry_multiplicity
  _atom_site_fract_x
  _atom_site_fract_y
  _atom_site_fract_z
  _atom_site_occupancy
  Hf  Hf1       1.0  0.19735  0.11532  0.37727  1.0000
  Hf  Hf2       1.0  0.19817  0.10664  0.86790  1.0000
  Hf  Hf3       1.0  0.19603  0.60548  0.37801  1.0000
  Hf  Hf4       1.0  0.19210  0.60179  0.88300  1.0000
  Hf  Hf5       1.0  0.44507  0.10979  0.37352  1.0000
  Hf  Hf6       1.0  0.44399  0.10411  0.88096  1.0000
  Hf  Hf7       1.0  0.44791  0.60781  0.37199  1.0000
  Hf  Hf8       1.0  0.44619  0.60889  0.88179  1.0000
  Hf  Hf9       1.0  0.69764  0.10362  0.37550  1.0000
  Hf  Hf10      1.0  0.69288  0.11070  0.86982  1.0000
  Hf  Hf11      1.0  0.69629  0.61211  0.37335  1.0000
  Hf  Hf12      1.0  0.69174  0.59603  0.88679  1.0000
  Hf  Hf13      1.0  0.94481  0.10551  0.37910  1.0000
  Hf  Hf14      1.0  0.94607  0.10578  0.87849  1.0000
  Hf  Hf15      1.0  0.94379  0.60398  0.38107  1.0000
  Hf  Hf16      1.0  0.95178  0.59837  0.86331  1.0000
  Hf  Hf17      1.0  0.05114  0.39162  0.12822  1.0000
  Hf  Hf18      1.0  0.05024  0.39447  0.61935  1.0000
  Hf  Hf19      1.0  0.05635  0.89714  0.10678  1.0000
  Hf  Hf20      1.0  0.05712  0.89277  0.62215  1.0000
  Hf  Hf21      1.0  0.30219  0.39759  0.12513  1.0000
  Hf  Hf22      1.0  0.30594  0.39457  0.62474  1.0000
  Hf  Hf23      1.0  0.30202  0.89349  0.13049  1.0000
  Hf  Hf24      1.0  0.30783  0.89763  0.61864  1.0000
  Hf  Hf25      1.0  0.55421  0.39481  0.13022  1.0000
  Hf  Hf26      1.0  0.54469  0.40165  0.63914  1.0000
  Hf  Hf27      1.0  0.55503  0.89284  0.13247  1.0000
  Hf  Hf28      1.0  0.55535  0.89774  0.61954  1.0000
  Hf  Hf29      1.0  0.80453  0.38667  0.13169  1.0000
  Hf  Hf30      1.0  0.80416  0.38930  0.63063  1.0000
  Hf  Hf31      1.0  0.80513  0.88600  0.12261  1.0000
  Hf  Hf32      1.0  0.80258  0.89187  0.63529  1.0000
  Hf  Hf33      1.0  0.06018  0.18816  0.40376  1.0000
  Hf  Hf34      1.0  0.05707  0.19208  0.90158  1.0000
  Hf  Hf35      1.0  0.05678  0.68705  0.41262  1.0000
  Hf  Hf36      1.0  0.05463  0.67845  0.91649  1.0000
  Hf  Hf37      1.0  0.30647  0.18996  0.41460  1.0000
  Hf  Hf38      1.0  0.30357  0.17274  0.92107  1.0000
  Hf  Hf39      1.0  0.30491  0.67496  0.42377  1.0000
  Hf  Hf40      1.0  0.30412  0.68323  0.91406  1.0000
  Hf  Hf41      1.0  0.55169  0.17829  0.42142  1.0000
  Hf  Hf42      1.0  0.55349  0.18952  0.92047  1.0000
  Hf  Hf43      1.0  0.56071  0.69011  0.41197  1.0000
  Hf  Hf44      1.0  0.55857  0.69487  0.90228  1.0000
  Hf  Hf45      1.0  0.80206  0.18504  0.42031  1.0000
  Hf  Hf46      1.0  0.80449  0.17426  0.92113  1.0000
  Hf  Hf47      1.0  0.80120  0.67798  0.42926  1.0000
  Hf  Hf48      1.0  0.80891  0.67364  0.92130  1.0000
  Hf  Hf49      1.0  0.16094  0.39742  0.32444  1.0000
  Hf  Hf50      1.0  0.16026  0.39147  0.82996  1.0000
  Hf  Hf51      1.0  0.15784  0.88353  0.32977  1.0000
  Hf  Hf52      1.0  0.16081  0.89173  0.82397  1.0000
  Hf  Hf53      1.0  0.41542  0.39606  0.32448  1.0000
  Hf  Hf54      1.0  0.40710  0.39053  0.84523  1.0000
  Hf  Hf55      1.0  0.41096  0.89155  0.32722  1.0000
  Hf  Hf56      1.0  0.40653  0.88715  0.83664  1.0000
  Hf  Hf57      1.0  0.66440  0.38663  0.32837  1.0000
  Hf  Hf58      1.0  0.65848  0.39068  0.83801  1.0000
  Hf  Hf59      1.0  0.66409  0.89915  0.32251  1.0000
  Hf  Hf60      1.0  0.66220  0.88967  0.83133  1.0000
  Hf  Hf61      1.0  0.90358  0.38428  0.33888  1.0000
  Hf  Hf62      1.0  0.90272  0.37808  0.84263  1.0000
  Hf  Hf63      1.0  0.90688  0.88090  0.34299  1.0000
  Hf  Hf64      1.0  0.90964  0.88847  0.83111  1.0000
  Hf  Hf65      1.0  0.19514  0.30966  0.08833  1.0000
  Hf  Hf66      1.0  0.19195  0.31820  0.57763  1.0000
  Hf  Hf67      1.0  0.19456  0.81721  0.07500  1.0000
  Hf  Hf68      1.0  0.19550  0.81956  0.57562  1.0000
  Hf  Hf69      1.0  0.44238  0.31862  0.09074  1.0000
  Hf  Hf70      1.0  0.44332  0.31543  0.58508  1.0000
  Hf  Hf71      1.0  0.44359  0.81887  0.07991  1.0000
  Hf  Hf72      1.0  0.44506  0.81776  0.58373  1.0000
  Hf  Hf73      1.0  0.69367  0.30764  0.08974  1.0000
  Hf  Hf74      1.0  0.68898  0.31758  0.58876  1.0000
  Hf  Hf75      1.0  0.69506  0.82112  0.08222  1.0000
  Hf  Hf76      1.0  0.69509  0.80775  0.58884  1.0000
  Hf  Hf77      1.0  0.94330  0.30694  0.09025  1.0000
  Hf  Hf78      1.0  0.94510  0.32034  0.57679  1.0000
  Hf  Hf79      1.0  0.94679  0.81173  0.08137  1.0000
  Hf  Hf80      1.0  0.94381  0.80890  0.59046  1.0000
  Hf  Hf81      1.0  0.09120  0.11634  0.15478  1.0000
  Hf  Hf82      1.0  0.09371  0.11308  0.65685  1.0000
  Hf  Hf83      1.0  0.08714  0.60995  0.17187  1.0000
  Hf  Hf84      1.0  0.09220  0.60932  0.66193  1.0000
  Hf  Hf85      1.0  0.33883  0.11127  0.17065  1.0000
  Hf  Hf86      1.0  0.34055  0.11048  0.66827  1.0000
  Hf  Hf87      1.0  0.34363  0.61191  0.16888  1.0000
  Hf  Hf88      1.0  0.33688  0.62315  0.66205  1.0000
  Hf  Hf89      1.0  0.59367  0.11609  0.16743  1.0000
  Hf  Hf90      1.0  0.58765  0.12024  0.66318  1.0000
  Hf  Hf91      1.0  0.58770  0.61304  0.16705  1.0000
  Hf  Hf92      1.0  0.59227  0.61044  0.66624  1.0000
  Hf  Hf93      1.0  0.84054  0.10897  0.16544  1.0000
  Hf  Hf94      1.0  0.84462  0.11110  0.66007  1.0000
  Hf  Hf95      1.0  0.84421  0.61194  0.17000  1.0000
  Hf  Hf96      1.0  0.83893  0.60306  0.67694  1.0000
  F   F1        1.0  0.08081  0.13045  0.29768  1.0000
  F   F2        1.0  0.08343  0.13886  0.78722  1.0000
  F   F3        1.0  0.08795  0.63479  0.29504  1.0000
  F   F4        1.0  0.08529  0.63290  0.79749  1.0000
  F   F5        1.0  0.33071  0.13597  0.30111  1.0000
  F   F6        1.0  0.32881  0.10135  0.81689  1.0000
  F   F7        1.0  0.33019  0.61632  0.30809  1.0000
  F   F8        1.0  0.32966  0.62314  0.80647  1.0000
  F   F9        1.0  0.57514  0.12193  0.31950  1.0000
  F   F10       1.0  0.57910  0.14566  0.79811  1.0000
  F   F11       1.0  0.58141  0.63802  0.29639  1.0000
  F   F12       1.0  0.58111  0.62713  0.80300  1.0000
  F   F13       1.0  0.82921  0.12794  0.30704  1.0000
  F   F14       1.0  0.83037  0.11693  0.80701  1.0000
  F   F15       1.0  0.83110  0.63933  0.30452  1.0000
  F   F16       1.0  0.83330  0.62483  0.80979  1.0000
  F   F17       1.0  0.18688  0.34628  0.43929  1.0000
  F   F18       1.0  0.18139  0.33888  0.94779  1.0000
  F   F19       1.0  0.18193  0.84512  0.44899  1.0000
  F   F20       1.0  0.19057  0.84626  0.93697  1.0000
  F   F21       1.0  0.42956  0.33542  0.45143  1.0000
  F   F22       1.0  0.43478  0.33869  0.95247  1.0000
  F   F23       1.0  0.42759  0.82850  0.46121  1.0000
  F   F24       1.0  0.43540  0.84293  0.94551  1.0000
  F   F25       1.0  0.69048  0.35282  0.43900  1.0000
  F   F26       1.0  0.68359  0.33095  0.95966  1.0000
  F   F27       1.0  0.68999  0.82163  0.43959  1.0000
  F   F28       1.0  0.68872  0.84271  0.94736  1.0000
  F   F29       1.0  0.93595  0.34103  0.44501  1.0000
  F   F30       1.0  0.93424  0.32983  0.94832  1.0000
  F   F31       1.0  0.92874  0.84200  0.45736  1.0000
  F   F32       1.0  0.94230  0.83983  0.93125  1.0000
  F   F33       1.0  0.16906  0.38796  0.18655  1.0000
  F   F34       1.0  0.16968  0.38292  0.68380  1.0000
  F   F35       1.0  0.16990  0.87330  0.18515  1.0000
  F   F36       1.0  0.17622  0.88810  0.68152  1.0000
  F   F37       1.0  0.42442  0.38106  0.18774  1.0000
  F   F38       1.0  0.41525  0.35983  0.71085  1.0000
  F   F39       1.0  0.42362  0.87633  0.19703  1.0000
  F   F40       1.0  0.42721  0.88008  0.68139  1.0000
  F   F41       1.0  0.67455  0.37577  0.18277  1.0000
  F   F42       1.0  0.67235  0.36632  0.69851  1.0000
  F   F43       1.0  0.67091  0.88293  0.18990  1.0000
  F   F44       1.0  0.68091  0.88588  0.68929  1.0000
  F   F45       1.0  0.91445  0.36478  0.21213  1.0000
  F   F46       1.0  0.92213  0.37302  0.69532  1.0000
  F   F47       1.0  0.92273  0.84350  0.20803  1.0000
  F   F48       1.0  0.92964  0.86714  0.69307  1.0000
  F   F49       1.0  0.06175  0.17095  0.04295  1.0000
  F   F50       1.0  0.07038  0.17288  0.53901  1.0000
  F   F51       1.0  0.06581  0.65632  0.05252  1.0000
  F   F52       1.0  0.05904  0.65764  0.55927  1.0000
  F   F53       1.0  0.30217  0.14726  0.07012  1.0000
  F   F54       1.0  0.31450  0.17365  0.55240  1.0000
  F   F55       1.0  0.31815  0.67543  0.04639  1.0000
  F   F56       1.0  0.31013  0.67741  0.54945  1.0000
  F   F57       1.0  0.55986  0.15129  0.06142  1.0000
  F   F58       1.0  0.56764  0.17380  0.54540  1.0000
  F   F59       1.0  0.57073  0.66874  0.03653  1.0000
  F   F60       1.0  0.56165  0.66663  0.55832  1.0000
  F   F61       1.0  0.81103  0.15025  0.05864  1.0000
  F   F62       1.0  0.81773  0.15786  0.55389  1.0000
  F   F63       1.0  0.81550  0.65322  0.06388  1.0000
  F   F64       1.0  0.80861  0.66995  0.56420  1.0000
  F   F65       1.0  0.19758  0.20599  0.23386  1.0000
  F   F66       1.0  0.19261  0.19662  0.70473  1.0000
  F   F67       1.0  0.20184  0.69252  0.21832  1.0000
  F   F68       1.0  0.20275  0.71835  0.70326  1.0000
  F   F69       1.0  0.45804  0.20213  0.20624  1.0000
  F   F70       1.0  0.45263  0.19833  0.71449  1.0000
  F   F71       1.0  0.44584  0.70657  0.21375  1.0000
  F   F72       1.0  0.44920  0.69917  0.71039  1.0000
  F   F73       1.0  0.71316  0.19821  0.21059  1.0000
  F   F74       1.0  0.69645  0.18899  0.71611  1.0000
  F   F75       1.0  0.70413  0.70784  0.21182  1.0000
  F   F76       1.0  0.70779  0.69788  0.71960  1.0000
  F   F77       1.0  0.95337  0.19072  0.21393  1.0000
  F   F78       1.0  0.95286  0.20237  0.71169  1.0000
  F   F79       1.0  0.96061  0.69122  0.21734  1.0000
  F   F80       1.0  0.96757  0.69009  0.70088  1.0000
  F   F81       1.0  0.15360  0.10197  0.02197  1.0000
  F   F82       1.0  0.15096  0.06737  0.54439  1.0000
  F   F83       1.0  0.14773  0.60241  0.03306  1.0000
  F   F84       1.0  0.15077  0.59228  0.53721  1.0000
  F   F85       1.0  0.39119  0.07839  0.05479  1.0000
  F   F86       1.0  0.39747  0.10131  0.53635  1.0000
  F   F87       1.0  0.40646  0.58726  0.04318  1.0000
  F   F88       1.0  0.40010  0.58715  0.54067  1.0000
  F   F89       1.0  0.64947  0.10820  0.03701  1.0000
  F   F90       1.0  0.64568  0.09555  0.54089  1.0000
  F   F91       1.0  0.64797  0.57307  0.04152  1.0000
  F   F92       1.0  0.64909  0.60036  0.53525  1.0000
  F   F93       1.0  0.89931  0.09312  0.02342  1.0000
  F   F94       1.0  0.90348  0.08378  0.53832  1.0000
  F   F95       1.0  0.90518  0.59816  0.04534  1.0000
  F   F96       1.0  0.89133  0.59589  0.54677  1.0000
  F   F97       1.0  0.15607  0.18851  0.12556  1.0000
  F   F98       1.0  0.15205  0.19244  0.59762  1.0000
  F   F99       1.0  0.15003  0.71304  0.12010  1.0000
  F   F100      1.0  0.15076  0.69848  0.62289  1.0000
  F   F101      1.0  0.40135  0.20426  0.11972  1.0000
  F   F102      1.0  0.40000  0.19559  0.63822  1.0000
  F   F103      1.0  0.40360  0.71055  0.10898  1.0000
  F   F104      1.0  0.39902  0.70163  0.62022  1.0000
  F   F105      1.0  0.65667  0.18115  0.14760  1.0000
  F   F106      1.0  0.64658  0.20872  0.60757  1.0000
  F   F107      1.0  0.65001  0.68610  0.11142  1.0000
  F   F108      1.0  0.65723  0.67849  0.63639  1.0000
  F   F109      1.0  0.89829  0.18987  0.11742  1.0000
  F   F110      1.0  0.89997  0.19577  0.61326  1.0000
  F   F111      1.0  0.90341  0.70174  0.12292  1.0000
  F   F112      1.0  0.90797  0.69140  0.62732  1.0000
  F   F113      1.0  0.10377  0.30524  0.35855  1.0000
  F   F114      1.0  0.09183  0.31036  0.87119  1.0000
  F   F115      1.0  0.09558  0.79750  0.38033  1.0000
  F   F116      1.0  0.10012  0.80453  0.87284  1.0000
  F   F117      1.0  0.35254  0.31256  0.36729  1.0000
  F   F118      1.0  0.35013  0.30294  0.90178  1.0000
  F   F119      1.0  0.35556  0.80150  0.38285  1.0000
  F   F120      1.0  0.35549  0.79489  0.86377  1.0000
  F   F121      1.0  0.60325  0.28848  0.35505  1.0000
  F   F122      1.0  0.59677  0.30916  0.86322  1.0000
  F   F123      1.0  0.60742  0.80609  0.37359  1.0000
  F   F124      1.0  0.59588  0.82098  0.84980  1.0000
  F   F125      1.0  0.83842  0.30648  0.38514  1.0000
  F   F126      1.0  0.84455  0.31036  0.87482  1.0000
  F   F127      1.0  0.84393  0.79863  0.37117  1.0000
  F   F128      1.0  0.85621  0.79163  0.85418  1.0000
  F   F129      1.0  0.07450  0.25563  0.12796  1.0000
  F   F130      1.0  0.06052  0.25690  0.63603  1.0000
  F   F131      1.0  0.06561  0.75392  0.12912  1.0000
  F   F132      1.0  0.05511  0.74657  0.65064  1.0000
  F   F133      1.0  0.31343  0.24741  0.14937  1.0000
  F   F134      1.0  0.31465  0.25306  0.65430  1.0000
  F   F135      1.0  0.31086  0.74724  0.16971  1.0000
  F   F136      1.0  0.30617  0.75357  0.65625  1.0000
  F   F137      1.0  0.57068  0.25798  0.12567  1.0000
  F   F138      1.0  0.55744  0.25128  0.65693  1.0000
  F   F139      1.0  0.55208  0.73833  0.16722  1.0000
  F   F140      1.0  0.57960  0.76213  0.61128  1.0000
  F   F141      1.0  0.81396  0.24437  0.14001  1.0000
  F   F142      1.0  0.81388  0.25671  0.63963  1.0000
  F   F143      1.0  0.81702  0.75045  0.14589  1.0000
  F   F144      1.0  0.81342  0.74316  0.66227  1.0000
  F   F145      1.0  0.12168  0.36853  0.11305  1.0000
  F   F146      1.0  0.12092  0.35330  0.62096  1.0000
  F   F147      1.0  0.12962  0.88609  0.08965  1.0000
  F   F148      1.0  0.12585  0.86906  0.60363  1.0000
  F   F149      1.0  0.36901  0.36553  0.11899  1.0000
  F   F150      1.0  0.37683  0.38257  0.59843  1.0000
  F   F151      1.0  0.37457  0.88546  0.09964  1.0000
  F   F152      1.0  0.37159  0.85965  0.62501  1.0000
  F   F153      1.0  0.62250  0.36783  0.11493  1.0000
  F   F154      1.0  0.62006  0.37909  0.60262  1.0000
  F   F155      1.0  0.62324  0.85512  0.11774  1.0000
  F   F156      1.0  0.62683  0.84467  0.63926  1.0000
  F   F157      1.0  0.87128  0.33876  0.13068  1.0000
  F   F158      1.0  0.87376  0.36925  0.61295  1.0000
  F   F159      1.0  0.87381  0.87112  0.10389  1.0000
  F   F160      1.0  0.87384  0.87070  0.62326  1.0000
  F   F161      1.0  0.18527  0.24783  0.36827  1.0000
  F   F162      1.0  0.19037  0.24816  0.84565  1.0000
  F   F163      1.0  0.18965  0.75057  0.35932  1.0000
  F   F164      1.0  0.18204  0.74966  0.85523  1.0000
  F   F165      1.0  0.44418  0.25792  0.33864  1.0000
  F   F166      1.0  0.43928  0.24522  0.85910  1.0000
  F   F167      1.0  0.43537  0.74078  0.36274  1.0000
  F   F168      1.0  0.43949  0.75569  0.84527  1.0000
  F   F169      1.0  0.68316  0.24438  0.35882  1.0000
  F   F170      1.0  0.68358  0.24579  0.85613  1.0000
  F   F171      1.0  0.69176  0.75319  0.34788  1.0000
  F   F172      1.0  0.67386  0.74162  0.88399  1.0000
  F   F173      1.0  0.92715  0.24912  0.36530  1.0000
  F   F174      1.0  0.93498  0.25754  0.84496  1.0000
  F   F175      1.0  0.92588  0.74492  0.38474  1.0000
  F   F176      1.0  0.94216  0.73497  0.85453  1.0000
  F   F177      1.0  0.12761  0.11972  0.39312  1.0000
  F   F178      1.0  0.12551  0.12882  0.89321  1.0000
  F   F179      1.0  0.12516  0.62743  0.39780  1.0000
  F   F180      1.0  0.12253  0.62307  0.90322  1.0000
  F   F181      1.0  0.37159  0.13465  0.39933  1.0000
  F   F182      1.0  0.37558  0.12827  0.90261  1.0000
  F   F183      1.0  0.37199  0.62291  0.40117  1.0000
  F   F184      1.0  0.37579  0.62623  0.90371  1.0000
  F   F185      1.0  0.62846  0.12482  0.39648  1.0000
  F   F186      1.0  0.62648  0.14511  0.89145  1.0000
  F   F187      1.0  0.62556  0.62472  0.39787  1.0000
  F   F188      1.0  0.62785  0.63140  0.87146  1.0000
  F   F189      1.0  0.87439  0.12840  0.39081  1.0000
  F   F190      1.0  0.87801  0.14663  0.87933  1.0000
  F   F191      1.0  0.87473  0.62957  0.39742  1.0000
  F   F192      1.0  0.87992  0.61454  0.90377  1.0000
  F   F193      1.0  0.00542  0.34356  0.08987  1.0000
  F   F194      1.0  0.00895  0.37083  0.55437  1.0000
  F   F195      1.0  0.00998  0.85033  0.05962  1.0000
  F   F196      1.0  0.01024  0.87705  0.56190  1.0000
  F   F197      1.0  0.25749  0.34841  0.08211  1.0000
  F   F198      1.0  0.24995  0.34989  0.60623  1.0000
  F   F199      1.0  0.25718  0.85906  0.08151  1.0000
  F   F200      1.0  0.26238  0.86012  0.55536  1.0000
  F   F201      1.0  0.50895  0.36286  0.08005  1.0000
  F   F202      1.0  0.50528  0.36708  0.58487  1.0000
  F   F203      1.0  0.50351  0.86111  0.08042  1.0000
  F   F204      1.0  0.51602  0.86794  0.56696  1.0000
  F   F205      1.0  0.75490  0.36999  0.08570  1.0000
  F   F206      1.0  0.75385  0.34936  0.58657  1.0000
  F   F207      1.0  0.75637  0.86946  0.05488  1.0000
  F   F208      1.0  0.75994  0.86002  0.57501  1.0000
  F   F209      1.0  0.06699  0.48560  0.18058  1.0000
  F   F210      1.0  0.07679  0.48498  0.65163  1.0000
  F   F211      1.0  0.07264  0.99421  0.14986  1.0000
  F   F212      1.0  0.06889  0.96998  0.68751  1.0000
  F   F213      1.0  0.32114  0.49883  0.15968  1.0000
  F   F214      1.0  0.31849  0.49268  0.67157  1.0000
  F   F215      1.0  0.31085  0.97417  0.19872  1.0000
  F   F216      1.0  0.31507  0.98992  0.68101  1.0000
  F   F217      1.0  0.56439  0.48851  0.18123  1.0000
  F   F218      1.0  0.56919  0.49655  0.67120  1.0000
  F   F219      1.0  0.58241  0.97853  0.17198  1.0000
  F   F220      1.0  0.57720  0.98872  0.66360  1.0000
  F   F221      1.0  0.82529  0.47762  0.17775  1.0000
  F   F222      1.0  0.81377  0.48724  0.68478  1.0000
  F   F223      1.0  0.81895  0.98179  0.17349  1.0000
  F   F224      1.0  0.81565  0.97809  0.68488  1.0000
  F   F225      1.0  0.23977  0.13814  0.42853  1.0000
  F   F226      1.0  0.24487  0.14244  0.91628  1.0000
  F   F227      1.0  0.24583  0.62632  0.42833  1.0000
  F   F228      1.0  0.23812  0.64516  0.92862  1.0000
  F   F229      1.0  0.48719  0.12630  0.43476  1.0000
  F   F230      1.0  0.48995  0.14680  0.93451  1.0000
  F   F231      1.0  0.49211  0.64164  0.43538  1.0000
  F   F232      1.0  0.49549  0.63246  0.92664  1.0000
  F   F233      1.0  0.74070  0.14398  0.42679  1.0000
  F   F234      1.0  0.74426  0.14062  0.92276  1.0000
  F   F235      1.0  0.74370  0.63308  0.43522  1.0000
  F   F236      1.0  0.74280  0.64397  0.91681  1.0000
  F   F237      1.0  0.99025  0.14214  0.41544  1.0000
  F   F238      1.0  0.99812  0.13466  0.91201  1.0000
  F   F239      1.0  0.99263  0.64441  0.42313  1.0000
  F   F240      1.0  0.99581  0.63524  0.92115  1.0000
  F   F241      1.0  0.17948  0.01249  0.30483  1.0000
  F   F242      1.0  0.17872  0.01738  0.82848  1.0000
  F   F243      1.0  0.17749  0.51579  0.32893  1.0000
  F   F244      1.0  0.18253  0.51722  0.81577  1.0000
  F   F245      1.0  0.43330  0.01030  0.32475  1.0000
  F   F246      1.0  0.42191  0.01081  0.83336  1.0000
  F   F247      1.0  0.42948  0.52506  0.32130  1.0000
  F   F248      1.0  0.43066  0.52383  0.82347  1.0000
  F   F249      1.0  0.68668  0.02293  0.30914  1.0000
  F   F250      1.0  0.67995  0.01958  0.82062  1.0000
  F   F251      1.0  0.68443  0.53780  0.30451  1.0000
  F   F252      1.0  0.69635  0.51172  0.80377  1.0000
  F   F253      1.0  0.93203  0.00917  0.31064  1.0000
  F   F254      1.0  0.93286  0.01427  0.83162  1.0000
  F   F255      1.0  0.93489  0.51328  0.32914  1.0000
  F   F256      1.0  0.93222  0.50858  0.82009  1.0000
  F   F257      1.0  0.99709  0.25058  0.99598  1.0000
  F   F258      1.0  0.00222  0.24788  0.48652  1.0000
  F   F259      1.0  0.00201  0.74509  0.00089  1.0000
  F   F260      1.0  0.99958  0.76488  0.47981  1.0000
  F   F261      1.0  0.25401  0.25254  0.99868  1.0000
  F   F262      1.0  0.25492  0.27163  0.48893  1.0000
  F   F263      1.0  0.25197  0.74752  0.99901  1.0000
  F   F264      1.0  0.24848  0.74178  0.50062  1.0000
  F   F265      1.0  0.49844  0.26254  0.00652  1.0000
  F   F266      1.0  0.50120  0.25105  0.49252  1.0000
  F   F267      1.0  0.49926  0.74852  0.99937  1.0000
  F   F268      1.0  0.50257  0.76647  0.48394  1.0000
  F   F269      1.0  0.75523  0.26134  0.00355  1.0000
  F   F270      1.0  0.74781  0.23905  0.51527  1.0000
  F   F271      1.0  0.75264  0.73604  0.00851  1.0000
  F   F272      1.0  0.75039  0.75582  0.48965  1.0000
  F   F273      1.0  0.11396  0.99140  0.25314  1.0000
  F   F274      1.0  0.12685  0.00275  0.75063  1.0000
  F   F275      1.0  0.13094  0.51358  0.23406  1.0000
  F   F276      1.0  0.12681  0.50022  0.74437  1.0000
  F   F277      1.0  0.37004  0.99677  0.25966  1.0000
  F   F278      1.0  0.37355  0.99292  0.75016  1.0000
  F   F279      1.0  0.38160  0.50644  0.23884  1.0000
  F   F280      1.0  0.37789  0.50790  0.74124  1.0000
  F   F281      1.0  0.62395  0.00707  0.24874  1.0000
  F   F282      1.0  0.62724  0.01066  0.75045  1.0000
  F   F283      1.0  0.62469  0.49731  0.25205  1.0000
  F   F284      1.0  0.62664  0.50016  0.75187  1.0000
  F   F285      1.0  0.87332  0.99845  0.24403  1.0000
  F   F286      1.0  0.87398  0.98870  0.75297  1.0000
  F   F287      1.0  0.87952  0.50434  0.24174  1.0000
  F   F288      1.0  0.86887  0.49829  0.76540  1.0000
  F   F289      1.0  0.04500  0.03487  0.00312  1.0000
  F   F290      1.0  0.04418  0.04069  0.52159  1.0000
  F   F291      1.0  0.04085  0.53396  0.03032  1.0000
  F   F292      1.0  0.04086  0.53337  0.50967  1.0000
  F   F293      1.0  0.29736  0.02347  0.01909  1.0000
  F   F294      1.0  0.29508  0.04118  0.51918  1.0000
  F   F295      1.0  0.28556  0.53362  0.02787  1.0000
  F   F296      1.0  0.29129  0.53168  0.53752  1.0000
  F   F297      1.0  0.55003  0.02819  0.02544  1.0000
  F   F298      1.0  0.53596  0.03836  0.53690  1.0000
  F   F299      1.0  0.55173  0.52768  0.01732  1.0000
  F   F300      1.0  0.53789  0.53668  0.53039  1.0000
  F   F301      1.0  0.79727  0.02912  0.01544  1.0000
  F   F302      1.0  0.78598  0.03702  0.53340  1.0000
  F   F303      1.0  0.78974  0.53128  0.03068  1.0000
  F   F304      1.0  0.79145  0.52580  0.53138  1.0000
  F   F305      1.0  0.23531  0.42252  0.22726  1.0000
  F   F306      1.0  0.23554  0.41533  0.72967  1.0000
  F   F307      1.0  0.23212  0.90689  0.22656  1.0000
  F   F308      1.0  0.23793  0.90930  0.73031  1.0000
  F   F309      1.0  0.48496  0.43123  0.22121  1.0000
  F   F310      1.0  0.47524  0.43868  0.72323  1.0000
  F   F311      1.0  0.48883  0.92097  0.22531  1.0000
  F   F312      1.0  0.48382  0.92052  0.72639  1.0000
  F   F313      1.0  0.73414  0.42533  0.22646  1.0000
  F   F314      1.0  0.73707  0.39674  0.74388  1.0000
  F   F315      1.0  0.73366  0.92819  0.21363  1.0000
  F   F316      1.0  0.73989  0.91709  0.73504  1.0000
  F   F317      1.0  0.98312  0.40892  0.22759  1.0000
  F   F318      1.0  0.98859  0.42172  0.71292  1.0000
  F   F319      1.0  0.98519  0.91195  0.21121  1.0000
  F   F320      1.0  0.98507  0.92815  0.71953  1.0000
  F   F321      1.0  0.21265  0.45494  0.46806  1.0000
  F   F322      1.0  0.20471  0.46702  0.97675  1.0000
  F   F323      1.0  0.21035  0.96950  0.46690  1.0000
  F   F324      1.0  0.21334  0.97295  0.97420  1.0000
  F   F325      1.0  0.46374  0.46010  0.46559  1.0000
  F   F326      1.0  0.46105  0.46559  0.97909  1.0000
  F   F327      1.0  0.45246  0.96656  0.48429  1.0000
  F   F328      1.0  0.46139  0.97423  0.96847  1.0000
  F   F329      1.0  0.70015  0.46802  0.48673  1.0000
  F   F330      1.0  0.70761  0.45855  0.97156  1.0000
  F   F331      1.0  0.70644  0.95375  0.48522  1.0000
  F   F332      1.0  0.70230  0.97446  0.96875  1.0000
  F   F333      1.0  0.95586  0.47011  0.49118  1.0000
  F   F334      1.0  0.95189  0.45482  0.99480  1.0000
  F   F335      1.0  0.96214  0.96716  0.46101  1.0000
  F   F336      1.0  0.95831  0.96191  0.98303  1.0000
  F   F337      1.0  0.02207  0.08808  0.26766  1.0000
  F   F338      1.0  0.01683  0.09220  0.76602  1.0000
  F   F339      1.0  0.01654  0.57942  0.28557  1.0000
  F   F340      1.0  0.02425  0.56594  0.76645  1.0000
  F   F341      1.0  0.26492  0.08380  0.28253  1.0000
  F   F342      1.0  0.26440  0.09877  0.75554  1.0000
  F   F343      1.0  0.26711  0.59239  0.26816  1.0000
  F   F344      1.0  0.26173  0.59664  0.77475  1.0000
  F   F345      1.0  0.52026  0.09349  0.27306  1.0000
  F   F346      1.0  0.51195  0.08460  0.77190  1.0000
  F   F347      1.0  0.51301  0.57675  0.28816  1.0000
  F   F348      1.0  0.51564  0.59767  0.77064  1.0000
  F   F349      1.0  0.76287  0.07262  0.29072  1.0000
  F   F350      1.0  0.76457  0.09714  0.77447  1.0000
  F   F351      1.0  0.76919  0.56941  0.28134  1.0000
  F   F352      1.0  0.77088  0.57345  0.79027  1.0000
  F   F353      1.0  0.10286  0.41696  0.45684  1.0000
  F   F354      1.0  0.09795  0.40785  0.95788  1.0000
  F   F355      1.0  0.10117  0.90795  0.46257  1.0000
  F   F356      1.0  0.10710  0.91122  0.95608  1.0000
  F   F357      1.0  0.34564  0.40751  0.47088  1.0000
  F   F358      1.0  0.35116  0.41565  0.96577  1.0000
  F   F359      1.0  0.35115  0.90793  0.46579  1.0000
  F   F360      1.0  0.35178  0.89332  0.96708  1.0000
  F   F361      1.0  0.60351  0.39216  0.45119  1.0000
  F   F362      1.0  0.60293  0.40055  0.95948  1.0000
  F   F363      1.0  0.61063  0.91405  0.45827  1.0000
  F   F364      1.0  0.60383  0.89968  0.96162  1.0000
  F   F365      1.0  0.84805  0.41436  0.46747  1.0000
  F   F366      1.0  0.85377  0.40920  0.97046  1.0000
  F   F367      1.0  0.84789  0.90696  0.46599  1.0000
  F   F368      1.0  0.85023  0.89042  0.95894  1.0000
  F   F369      1.0  0.04429  0.29458  0.28939  1.0000
  F   F370      1.0  0.04120  0.30961  0.78706  1.0000
  F   F371      1.0  0.04917  0.80529  0.27212  1.0000
  F   F372      1.0  0.04813  0.79943  0.78412  1.0000
  F   F373      1.0  0.29148  0.29481  0.29281  1.0000
  F   F374      1.0  0.30603  0.29586  0.79990  1.0000
  F   F375      1.0  0.29582  0.80012  0.30643  1.0000
  F   F376      1.0  0.29969  0.80554  0.78791  1.0000
  F   F377      1.0  0.53733  0.29565  0.29719  1.0000
  F   F378      1.0  0.53807  0.32059  0.78492  1.0000
  F   F379      1.0  0.55036  0.80257  0.29517  1.0000
  F   F380      1.0  0.54358  0.79608  0.77927  1.0000
  F   F381      1.0  0.78936  0.29695  0.29266  1.0000
  F   F382      1.0  0.80009  0.29281  0.78944  1.0000
  F   F383      1.0  0.79132  0.80528  0.28169  1.0000
  F   F384      1.0  0.79302  0.80342  0.79482  1.0000
