data_image0
_chemical_formula_structural       Hf96F384
_chemical_formula_sum              "Hf96 F384"
_cell_length_a       31.0423
_cell_length_b       15.5161
_cell_length_c       15.5091
_cell_angle_alpha    63.342
_cell_angle_beta     63.342
_cell_angle_gamma    80.1625

_space_group_name_H-M_alt    "P 1"
_space_group_IT_number       1

loop_
  _space_group_symop_operation_xyz
  'x, y, z'

loop_
  _atom_site_type_symbol
  _atom_site_label
  _atom_site_symmetry_multiplicity
  _atom_site_fract_x
  _atom_site_fract_y
  _atom_site_fract_z
  _atom_site_occupancy
  Hf  Hf1       1.0  0.19657  0.10182  0.37699  1.0000
  Hf  Hf2       1.0  0.19871  0.10276  0.86965  1.0000
  Hf  Hf3       1.0  0.19644  0.60732  0.37243  1.0000
  Hf  Hf4       1.0  0.19493  0.60525  0.87154  1.0000
  Hf  Hf5       1.0  0.44953  0.10906  0.36699  1.0000
  Hf  Hf6       1.0  0.44523  0.10610  0.88064  1.0000
  Hf  Hf7       1.0  0.44347  0.59914  0.39508  1.0000
  Hf  Hf8       1.0  0.45270  0.60222  0.87528  1.0000
  Hf  Hf9       1.0  0.69674  0.11414  0.36616  1.0000
  Hf  Hf10      1.0  0.69489  0.10909  0.87734  1.0000
  Hf  Hf11      1.0  0.69813  0.60399  0.37774  1.0000
  Hf  Hf12      1.0  0.69996  0.61416  0.86571  1.0000
  Hf  Hf13      1.0  0.94587  0.11034  0.37658  1.0000
  Hf  Hf14      1.0  0.94491  0.10417  0.87503  1.0000
  Hf  Hf15      1.0  0.94733  0.61207  0.37254  1.0000
  Hf  Hf16      1.0  0.94365  0.61216  0.87537  1.0000
  Hf  Hf17      1.0  0.05166  0.38781  0.13773  1.0000
  Hf  Hf18      1.0  0.05652  0.38610  0.63633  1.0000
  Hf  Hf19      1.0  0.05443  0.89121  0.12518  1.0000
  Hf  Hf20      1.0  0.04831  0.88542  0.62784  1.0000
  Hf  Hf21      1.0  0.30522  0.39612  0.12102  1.0000
  Hf  Hf22      1.0  0.30283  0.39070  0.62099  1.0000
  Hf  Hf23      1.0  0.30718  0.89430  0.12071  1.0000
  Hf  Hf24      1.0  0.30179  0.88284  0.63290  1.0000
  Hf  Hf25      1.0  0.55627  0.39299  0.12362  1.0000
  Hf  Hf26      1.0  0.55545  0.38688  0.62108  1.0000
  Hf  Hf27      1.0  0.55388  0.89278  0.12649  1.0000
  Hf  Hf28      1.0  0.55175  0.88612  0.62788  1.0000
  Hf  Hf29      1.0  0.80574  0.39643  0.12073  1.0000
  Hf  Hf30      1.0  0.80221  0.39808  0.62803  1.0000
  Hf  Hf31      1.0  0.79695  0.89541  0.13617  1.0000
  Hf  Hf32      1.0  0.80400  0.90774  0.62090  1.0000
  Hf  Hf33      1.0  0.05817  0.17627  0.41401  1.0000
  Hf  Hf34      1.0  0.05483  0.17427  0.92121  1.0000
  Hf  Hf35      1.0  0.05838  0.68140  0.41078  1.0000
  Hf  Hf36      1.0  0.05248  0.67856  0.93111  1.0000
  Hf  Hf37      1.0  0.30538  0.17946  0.42284  1.0000
  Hf  Hf38      1.0  0.30633  0.18022  0.92069  1.0000
  Hf  Hf39      1.0  0.30501  0.68241  0.41873  1.0000
  Hf  Hf40      1.0  0.30966  0.67949  0.91307  1.0000
  Hf  Hf41      1.0  0.55753  0.17963  0.41621  1.0000
  Hf  Hf42      1.0  0.55408  0.17897  0.91679  1.0000
  Hf  Hf43      1.0  0.55475  0.67089  0.42275  1.0000
  Hf  Hf44      1.0  0.56069  0.69014  0.91049  1.0000
  Hf  Hf45      1.0  0.80345  0.18802  0.41755  1.0000
  Hf  Hf46      1.0  0.80690  0.18819  0.92006  1.0000
  Hf  Hf47      1.0  0.80667  0.68364  0.41114  1.0000
  Hf  Hf48      1.0  0.80901  0.68743  0.90725  1.0000
  Hf  Hf49      1.0  0.16082  0.38556  0.33325  1.0000
  Hf  Hf50      1.0  0.15304  0.37753  0.84582  1.0000
  Hf  Hf51      1.0  0.15521  0.88401  0.33762  1.0000
  Hf  Hf52      1.0  0.15304  0.88195  0.83513  1.0000
  Hf  Hf53      1.0  0.40956  0.38863  0.33405  1.0000
  Hf  Hf54      1.0  0.40802  0.38363  0.83980  1.0000
  Hf  Hf55      1.0  0.40883  0.88811  0.33341  1.0000
  Hf  Hf56      1.0  0.41080  0.88896  0.83308  1.0000
  Hf  Hf57      1.0  0.65933  0.39569  0.32731  1.0000
  Hf  Hf58      1.0  0.65790  0.38902  0.83007  1.0000
  Hf  Hf59      1.0  0.65490  0.88538  0.33447  1.0000
  Hf  Hf60      1.0  0.65863  0.89517  0.83304  1.0000
  Hf  Hf61      1.0  0.90741  0.39538  0.33120  1.0000
  Hf  Hf62      1.0  0.91111  0.39383  0.83260  1.0000
  Hf  Hf63      1.0  0.90936  0.89374  0.33181  1.0000
  Hf  Hf64      1.0  0.90134  0.87822  0.85214  1.0000
  Hf  Hf65      1.0  0.19174  0.31095  0.08856  1.0000
  Hf  Hf66      1.0  0.19698  0.31632  0.58087  1.0000
  Hf  Hf67      1.0  0.19717  0.82325  0.07077  1.0000
  Hf  Hf68      1.0  0.18840  0.81681  0.58485  1.0000
  Hf  Hf69      1.0  0.44377  0.31630  0.08430  1.0000
  Hf  Hf70      1.0  0.44157  0.31278  0.58766  1.0000
  Hf  Hf71      1.0  0.44523  0.81506  0.08384  1.0000
  Hf  Hf72      1.0  0.44521  0.82107  0.57898  1.0000
  Hf  Hf73      1.0  0.69703  0.33097  0.07974  1.0000
  Hf  Hf74      1.0  0.69256  0.31755  0.58229  1.0000
  Hf  Hf75      1.0  0.69435  0.81666  0.07902  1.0000
  Hf  Hf76      1.0  0.69849  0.82520  0.57002  1.0000
  Hf  Hf77      1.0  0.94594  0.32472  0.07595  1.0000
  Hf  Hf78      1.0  0.94645  0.31845  0.57860  1.0000
  Hf  Hf79      1.0  0.94374  0.83171  0.08067  1.0000
  Hf  Hf80      1.0  0.94649  0.81754  0.57514  1.0000
  Hf  Hf81      1.0  0.09124  0.10422  0.16425  1.0000
  Hf  Hf82      1.0  0.09003  0.10810  0.66092  1.0000
  Hf  Hf83      1.0  0.09550  0.60857  0.16552  1.0000
  Hf  Hf84      1.0  0.08818  0.60931  0.67438  1.0000
  Hf  Hf85      1.0  0.33876  0.10816  0.17850  1.0000
  Hf  Hf86      1.0  0.34271  0.10477  0.66558  1.0000
  Hf  Hf87      1.0  0.34356  0.61173  0.16535  1.0000
  Hf  Hf88      1.0  0.33739  0.60015  0.67826  1.0000
  Hf  Hf89      1.0  0.59121  0.11112  0.16710  1.0000
  Hf  Hf90      1.0  0.59221  0.11468  0.65670  1.0000
  Hf  Hf91      1.0  0.58613  0.61140  0.17160  1.0000
  Hf  Hf92      1.0  0.59472  0.61114  0.66370  1.0000
  Hf  Hf93      1.0  0.84142  0.11659  0.16373  1.0000
  Hf  Hf94      1.0  0.84293  0.12384  0.66336  1.0000
  Hf  Hf95      1.0  0.84099  0.61554  0.15981  1.0000
  Hf  Hf96      1.0  0.84611  0.62018  0.66197  1.0000
  F   F1        1.0  0.07987  0.11852  0.30745  1.0000
  F   F2        1.0  0.07830  0.11668  0.81368  1.0000
  F   F3        1.0  0.08322  0.62682  0.30286  1.0000
  F   F4        1.0  0.07368  0.62383  0.81456  1.0000
  F   F5        1.0  0.32126  0.11152  0.31901  1.0000
  F   F6        1.0  0.32948  0.15023  0.78994  1.0000
  F   F7        1.0  0.33991  0.64059  0.29183  1.0000
  F   F8        1.0  0.32777  0.60657  0.81326  1.0000
  F   F9        1.0  0.58540  0.13978  0.29521  1.0000
  F   F10       1.0  0.57228  0.12287  0.80919  1.0000
  F   F11       1.0  0.56774  0.58493  0.33412  1.0000
  F   F12       1.0  0.58456  0.63769  0.79758  1.0000
  F   F13       1.0  0.83038  0.14475  0.29779  1.0000
  F   F14       1.0  0.82408  0.13318  0.80145  1.0000
  F   F15       1.0  0.83414  0.63282  0.30049  1.0000
  F   F16       1.0  0.83110  0.63551  0.79391  1.0000
  F   F17       1.0  0.19411  0.35043  0.43787  1.0000
  F   F18       1.0  0.17894  0.33438  0.95758  1.0000
  F   F19       1.0  0.17865  0.83436  0.45334  1.0000
  F   F20       1.0  0.18696  0.86162  0.93589  1.0000
  F   F21       1.0  0.43395  0.33909  0.44292  1.0000
  F   F22       1.0  0.42468  0.32721  0.96193  1.0000
  F   F23       1.0  0.44046  0.84566  0.44005  1.0000
  F   F24       1.0  0.43467  0.84037  0.94191  1.0000
  F   F25       1.0  0.68643  0.35205  0.43803  1.0000
  F   F26       1.0  0.69032  0.34321  0.94927  1.0000
  F   F27       1.0  0.68788  0.84998  0.43375  1.0000
  F   F28       1.0  0.68772  0.84678  0.93882  1.0000
  F   F29       1.0  0.93598  0.33859  0.44111  1.0000
  F   F30       1.0  0.92832  0.33924  0.95760  1.0000
  F   F31       1.0  0.93578  0.84409  0.44078  1.0000
  F   F32       1.0  0.93804  0.84612  0.95190  1.0000
  F   F33       1.0  0.18167  0.38444  0.18823  1.0000
  F   F34       1.0  0.17794  0.36727  0.69484  1.0000
  F   F35       1.0  0.17259  0.87891  0.19281  1.0000
  F   F36       1.0  0.16698  0.87646  0.69247  1.0000
  F   F37       1.0  0.41975  0.37031  0.19830  1.0000
  F   F38       1.0  0.41420  0.35922  0.70194  1.0000
  F   F39       1.0  0.41694  0.86042  0.21184  1.0000
  F   F40       1.0  0.42097  0.85905  0.70109  1.0000
  F   F41       1.0  0.67239  0.38431  0.19078  1.0000
  F   F42       1.0  0.67078  0.37814  0.69335  1.0000
  F   F43       1.0  0.67176  0.86918  0.19186  1.0000
  F   F44       1.0  0.66704  0.85829  0.70022  1.0000
  F   F45       1.0  0.92543  0.39843  0.17595  1.0000
  F   F46       1.0  0.92303  0.38037  0.68182  1.0000
  F   F47       1.0  0.91954  0.88939  0.19492  1.0000
  F   F48       1.0  0.91409  0.85508  0.70990  1.0000
  F   F49       1.0  0.05599  0.15431  0.07034  1.0000
  F   F50       1.0  0.05959  0.15262  0.55829  1.0000
  F   F51       1.0  0.07444  0.66848  0.04731  1.0000
  F   F52       1.0  0.06061  0.66433  0.54886  1.0000
  F   F53       1.0  0.31324  0.15231  0.06451  1.0000
  F   F54       1.0  0.31785  0.14591  0.55316  1.0000
  F   F55       1.0  0.31938  0.66262  0.05022  1.0000
  F   F56       1.0  0.30918  0.65202  0.56714  1.0000
  F   F57       1.0  0.56030  0.14674  0.05881  1.0000
  F   F58       1.0  0.56013  0.14991  0.55815  1.0000
  F   F59       1.0  0.56688  0.66269  0.05138  1.0000
  F   F60       1.0  0.56404  0.65426  0.55517  1.0000
  F   F61       1.0  0.82770  0.17784  0.03016  1.0000
  F   F62       1.0  0.81161  0.16768  0.55700  1.0000
  F   F63       1.0  0.81286  0.66237  0.04599  1.0000
  F   F64       1.0  0.82036  0.67489  0.54637  1.0000
  F   F65       1.0  0.19976  0.20062  0.21406  1.0000
  F   F66       1.0  0.19891  0.19439  0.70500  1.0000
  F   F67       1.0  0.19409  0.70825  0.20822  1.0000
  F   F68       1.0  0.20412  0.69891  0.71997  1.0000
  F   F69       1.0  0.45854  0.20674  0.20971  1.0000
  F   F70       1.0  0.44861  0.19476  0.70424  1.0000
  F   F71       1.0  0.44592  0.69802  0.20641  1.0000
  F   F72       1.0  0.46131  0.70011  0.71607  1.0000
  F   F73       1.0  0.69794  0.20823  0.20876  1.0000
  F   F74       1.0  0.70159  0.20355  0.70554  1.0000
  F   F75       1.0  0.69842  0.69522  0.22229  1.0000
  F   F76       1.0  0.70378  0.69918  0.70035  1.0000
  F   F77       1.0  0.94180  0.20482  0.21588  1.0000
  F   F78       1.0  0.95329  0.19752  0.70778  1.0000
  F   F79       1.0  0.93965  0.70924  0.21449  1.0000
  F   F80       1.0  0.96441  0.70989  0.69601  1.0000
  F   F81       1.0  0.14718  0.07564  0.03776  1.0000
  F   F82       1.0  0.14419  0.07438  0.53855  1.0000
  F   F83       1.0  0.15039  0.58344  0.03772  1.0000
  F   F84       1.0  0.14826  0.61794  0.54653  1.0000
  F   F85       1.0  0.40421  0.10442  0.03629  1.0000
  F   F86       1.0  0.40162  0.08877  0.53954  1.0000
  F   F87       1.0  0.41225  0.59040  0.02735  1.0000
  F   F88       1.0  0.39965  0.60712  0.54170  1.0000
  F   F89       1.0  0.64801  0.06562  0.04080  1.0000
  F   F90       1.0  0.65082  0.09961  0.53498  1.0000
  F   F91       1.0  0.64420  0.60553  0.04195  1.0000
  F   F92       1.0  0.65311  0.60133  0.52871  1.0000
  F   F93       1.0  0.89876  0.08269  0.02684  1.0000
  F   F94       1.0  0.89971  0.09802  0.53634  1.0000
  F   F95       1.0  0.89791  0.58414  0.02777  1.0000
  F   F96       1.0  0.91029  0.60882  0.53647  1.0000
  F   F97       1.0  0.15343  0.18593  0.12609  1.0000
  F   F98       1.0  0.15482  0.19142  0.61115  1.0000
  F   F99       1.0  0.14698  0.71479  0.10935  1.0000
  F   F100      1.0  0.15004  0.69795  0.65311  1.0000
  F   F101      1.0  0.40081  0.20252  0.13802  1.0000
  F   F102      1.0  0.40247  0.19900  0.59627  1.0000
  F   F103      1.0  0.40363  0.70026  0.10478  1.0000
  F   F104      1.0  0.40278  0.70642  0.64644  1.0000
  F   F105      1.0  0.65212  0.17887  0.11062  1.0000
  F   F106      1.0  0.64481  0.19647  0.62725  1.0000
  F   F107      1.0  0.63795  0.69724  0.15029  1.0000
  F   F108      1.0  0.65015  0.71363  0.61675  1.0000
  F   F109      1.0  0.89722  0.19288  0.11895  1.0000
  F   F110      1.0  0.90718  0.20121  0.61345  1.0000
  F   F111      1.0  0.90068  0.69806  0.10444  1.0000
  F   F112      1.0  0.90090  0.70347  0.64000  1.0000
  F   F113      1.0  0.10092  0.29295  0.35801  1.0000
  F   F114      1.0  0.09570  0.29479  0.88725  1.0000
  F   F115      1.0  0.09823  0.80190  0.36566  1.0000
  F   F116      1.0  0.09615  0.80318  0.87429  1.0000
  F   F117      1.0  0.34786  0.31112  0.37984  1.0000
  F   F118      1.0  0.34653  0.30909  0.88536  1.0000
  F   F119      1.0  0.34927  0.79229  0.38831  1.0000
  F   F120      1.0  0.34353  0.80379  0.88027  1.0000
  F   F121      1.0  0.59360  0.30333  0.37729  1.0000
  F   F122      1.0  0.59821  0.29724  0.89763  1.0000
  F   F123      1.0  0.59755  0.79783  0.38254  1.0000
  F   F124      1.0  0.59601  0.80874  0.88426  1.0000
  F   F125      1.0  0.84572  0.30260  0.37441  1.0000
  F   F126      1.0  0.84686  0.31549  0.86136  1.0000
  F   F127      1.0  0.85244  0.81590  0.36645  1.0000
  F   F128      1.0  0.84333  0.80224  0.88956  1.0000
  F   F129      1.0  0.07283  0.25825  0.12489  1.0000
  F   F130      1.0  0.06882  0.25595  0.63795  1.0000
  F   F131      1.0  0.05894  0.74020  0.16349  1.0000
  F   F132      1.0  0.07005  0.75089  0.62876  1.0000
  F   F133      1.0  0.31825  0.24853  0.13853  1.0000
  F   F134      1.0  0.30982  0.25175  0.63562  1.0000
  F   F135      1.0  0.31599  0.74909  0.14654  1.0000
  F   F136      1.0  0.32369  0.74995  0.63620  1.0000
  F   F137      1.0  0.56786  0.24874  0.12890  1.0000
  F   F138      1.0  0.56895  0.24934  0.62672  1.0000
  F   F139      1.0  0.55686  0.75132  0.15272  1.0000
  F   F140      1.0  0.56189  0.74134  0.65610  1.0000
  F   F141      1.0  0.80649  0.26087  0.14474  1.0000
  F   F142      1.0  0.82148  0.26715  0.62747  1.0000
  F   F143      1.0  0.81134  0.74779  0.15168  1.0000
  F   F144      1.0  0.82114  0.76924  0.63333  1.0000
  F   F145      1.0  0.12507  0.36311  0.12225  1.0000
  F   F146      1.0  0.12531  0.37270  0.60964  1.0000
  F   F147      1.0  0.12664  0.88597  0.09385  1.0000
  F   F148      1.0  0.11999  0.87868  0.60198  1.0000
  F   F149      1.0  0.37642  0.37604  0.10393  1.0000
  F   F150      1.0  0.37149  0.35829  0.61299  1.0000
  F   F151      1.0  0.37947  0.88485  0.10056  1.0000
  F   F152      1.0  0.37431  0.88143  0.59490  1.0000
  F   F153      1.0  0.62381  0.35735  0.11871  1.0000
  F   F154      1.0  0.62388  0.36571  0.60471  1.0000
  F   F155      1.0  0.62646  0.87211  0.09482  1.0000
  F   F156      1.0  0.62390  0.87994  0.60414  1.0000
  F   F157      1.0  0.87405  0.35694  0.12844  1.0000
  F   F158      1.0  0.87456  0.38607  0.59204  1.0000
  F   F159      1.0  0.87123  0.87053  0.11215  1.0000
  F   F160      1.0  0.87793  0.88366  0.58831  1.0000
  F   F161      1.0  0.18874  0.25257  0.35320  1.0000
  F   F162      1.0  0.18237  0.24115  0.86590  1.0000
  F   F163      1.0  0.18043  0.74810  0.36070  1.0000
  F   F164      1.0  0.16961  0.74422  0.88062  1.0000
  F   F165      1.0  0.44522  0.25372  0.34050  1.0000
  F   F166      1.0  0.44214  0.25206  0.84714  1.0000
  F   F167      1.0  0.43516  0.74995  0.35500  1.0000
  F   F168      1.0  0.42957  0.74773  0.86062  1.0000
  F   F169      1.0  0.68480  0.26361  0.34681  1.0000
  F   F170      1.0  0.68554  0.25131  0.85554  1.0000
  F   F171      1.0  0.67916  0.75120  0.36345  1.0000
  F   F172      1.0  0.68969  0.75078  0.85374  1.0000
  F   F173      1.0  0.92885  0.25166  0.36959  1.0000
  F   F174      1.0  0.92579  0.25400  0.86230  1.0000
  F   F175      1.0  0.93616  0.76121  0.34386  1.0000
  F   F176      1.0  0.93088  0.75110  0.87250  1.0000
  F   F177      1.0  0.12701  0.12969  0.38672  1.0000
  F   F178      1.0  0.12233  0.12506  0.90337  1.0000
  F   F179      1.0  0.12340  0.60581  0.41376  1.0000
  F   F180      1.0  0.12495  0.62689  0.88574  1.0000
  F   F181      1.0  0.37653  0.14697  0.38748  1.0000
  F   F182      1.0  0.37852  0.13589  0.88688  1.0000
  F   F183      1.0  0.36746  0.61608  0.42043  1.0000
  F   F184      1.0  0.37512  0.61790  0.89295  1.0000
  F   F185      1.0  0.62632  0.12359  0.39335  1.0000
  F   F186      1.0  0.62396  0.13277  0.88480  1.0000
  F   F187      1.0  0.62368  0.62069  0.39899  1.0000
  F   F188      1.0  0.62975  0.63423  0.88646  1.0000
  F   F189      1.0  0.86972  0.12261  0.40836  1.0000
  F   F190      1.0  0.87905  0.13129  0.87748  1.0000
  F   F191      1.0  0.87098  0.62761  0.40539  1.0000
  F   F192      1.0  0.88433  0.65162  0.85791  1.0000
  F   F193      1.0  0.01381  0.36769  0.05993  1.0000
  F   F194      1.0  0.00748  0.35748  0.59314  1.0000
  F   F195      1.0  0.00852  0.85779  0.07714  1.0000
  F   F196      1.0  0.00872  0.86629  0.55246  1.0000
  F   F197      1.0  0.25724  0.34881  0.07958  1.0000
  F   F198      1.0  0.25627  0.37216  0.55965  1.0000
  F   F199      1.0  0.25524  0.85510  0.08053  1.0000
  F   F200      1.0  0.25262  0.86013  0.57543  1.0000
  F   F201      1.0  0.51089  0.35818  0.07986  1.0000
  F   F202      1.0  0.50724  0.35315  0.58335  1.0000
  F   F203      1.0  0.50031  0.86279  0.09187  1.0000
  F   F204      1.0  0.50958  0.84947  0.58483  1.0000
  F   F205      1.0  0.75496  0.38673  0.07418  1.0000
  F   F206      1.0  0.75310  0.35055  0.59167  1.0000
  F   F207      1.0  0.75306  0.85495  0.08654  1.0000
  F   F208      1.0  0.75609  0.86490  0.58646  1.0000
  F   F209      1.0  0.07127  0.48182  0.17989  1.0000
  F   F210      1.0  0.07049  0.48184  0.68328  1.0000
  F   F211      1.0  0.06963  0.98557  0.17161  1.0000
  F   F212      1.0  0.06286  0.97888  0.68146  1.0000
  F   F213      1.0  0.33025  0.49261  0.16283  1.0000
  F   F214      1.0  0.31920  0.48140  0.66282  1.0000
  F   F215      1.0  0.31362  0.98522  0.19481  1.0000
  F   F216      1.0  0.31625  0.97178  0.68881  1.0000
  F   F217      1.0  0.57038  0.48094  0.17635  1.0000
  F   F218      1.0  0.57709  0.47759  0.66673  1.0000
  F   F219      1.0  0.56814  0.97869  0.18094  1.0000
  F   F220      1.0  0.56409  0.98004  0.68436  1.0000
  F   F221      1.0  0.82400  0.49262  0.15445  1.0000
  F   F222      1.0  0.82541  0.49130  0.66865  1.0000
  F   F223      1.0  0.81263  0.98575  0.17283  1.0000
  F   F224      1.0  0.81762  0.99531  0.68300  1.0000
  F   F225      1.0  0.23970  0.12086  0.44415  1.0000
  F   F226      1.0  0.24326  0.12582  0.92997  1.0000
  F   F227      1.0  0.24619  0.64578  0.40130  1.0000
  F   F228      1.0  0.24279  0.64367  0.90347  1.0000
  F   F229      1.0  0.49449  0.14210  0.41736  1.0000
  F   F230      1.0  0.49331  0.13309  0.93007  1.0000
  F   F231      1.0  0.48757  0.62475  0.45814  1.0000
  F   F232      1.0  0.49708  0.64489  0.91841  1.0000
  F   F233      1.0  0.74142  0.15902  0.40719  1.0000
  F   F234      1.0  0.74358  0.15960  0.92099  1.0000
  F   F235      1.0  0.74198  0.64551  0.42369  1.0000
  F   F236      1.0  0.74442  0.63647  0.92335  1.0000
  F   F237      1.0  0.99174  0.14199  0.42676  1.0000
  F   F238      1.0  0.99204  0.14071  0.92137  1.0000
  F   F239      1.0  0.99435  0.63289  0.42859  1.0000
  F   F240      1.0  0.99319  0.64723  0.91684  1.0000
  F   F241      1.0  0.18149  0.00682  0.31883  1.0000
  F   F242      1.0  0.17584  0.01704  0.82749  1.0000
  F   F243      1.0  0.18659  0.51574  0.31482  1.0000
  F   F244      1.0  0.18350  0.50512  0.81517  1.0000
  F   F245      1.0  0.42529  0.02390  0.33256  1.0000
  F   F246      1.0  0.43131  0.01984  0.81571  1.0000
  F   F247      1.0  0.42218  0.51335  0.33551  1.0000
  F   F248      1.0  0.43552  0.50020  0.83119  1.0000
  F   F249      1.0  0.68122  0.01580  0.32753  1.0000
  F   F250      1.0  0.67634  0.01462  0.84022  1.0000
  F   F251      1.0  0.68022  0.51528  0.33167  1.0000
  F   F252      1.0  0.68173  0.51597  0.82472  1.0000
  F   F253      1.0  0.93013  0.02002  0.32252  1.0000
  F   F254      1.0  0.93586  0.00267  0.83005  1.0000
  F   F255      1.0  0.92989  0.52726  0.31819  1.0000
  F   F256      1.0  0.92905  0.51586  0.82961  1.0000
  F   F257      1.0  0.99917  0.24454  0.00612  1.0000
  F   F258      1.0  0.00614  0.26674  0.48427  1.0000
  F   F259      1.0  0.99757  0.72992  0.02133  1.0000
  F   F260      1.0  0.99981  0.75986  0.47968  1.0000
  F   F261      1.0  0.24662  0.22649  0.01519  1.0000
  F   F262      1.0  0.25247  0.24535  0.50308  1.0000
  F   F263      1.0  0.24771  0.74038  0.00289  1.0000
  F   F264      1.0  0.24771  0.75560  0.49315  1.0000
  F   F265      1.0  0.49725  0.24743  0.99825  1.0000
  F   F266      1.0  0.50410  0.26032  0.48703  1.0000
  F   F267      1.0  0.50023  0.76375  0.99207  1.0000
  F   F268      1.0  0.50234  0.75347  0.49447  1.0000
  F   F269      1.0  0.74935  0.23382  0.02508  1.0000
  F   F270      1.0  0.74531  0.24527  0.50896  1.0000
  F   F271      1.0  0.75169  0.74862  0.99406  1.0000
  F   F272      1.0  0.75405  0.76316  0.49082  1.0000
  F   F273      1.0  0.12462  0.99299  0.24689  1.0000
  F   F274      1.0  0.12561  0.99525  0.73716  1.0000
  F   F275      1.0  0.13326  0.50189  0.23997  1.0000
  F   F276      1.0  0.11860  0.48398  0.76050  1.0000
  F   F277      1.0  0.37587  0.99877  0.25307  1.0000
  F   F278      1.0  0.37087  0.99177  0.76579  1.0000
  F   F279      1.0  0.38200  0.50476  0.24492  1.0000
  F   F280      1.0  0.37555  0.50043  0.75281  1.0000
  F   F281      1.0  0.62731  0.00093  0.24621  1.0000
  F   F282      1.0  0.62775  0.00751  0.74048  1.0000
  F   F283      1.0  0.62306  0.49826  0.24465  1.0000
  F   F284      1.0  0.62240  0.50047  0.75596  1.0000
  F   F285      1.0  0.87078  0.00798  0.25447  1.0000
  F   F286      1.0  0.87813  0.00631  0.75642  1.0000
  F   F287      1.0  0.86683  0.49915  0.25385  1.0000
  F   F288      1.0  0.87569  0.51331  0.74557  1.0000
  F   F289      1.0  0.03757  0.02706  0.02647  1.0000
  F   F290      1.0  0.04144  0.02801  0.52333  1.0000
  F   F291      1.0  0.03847  0.53285  0.04541  1.0000
  F   F292      1.0  0.04143  0.52125  0.53492  1.0000
  F   F293      1.0  0.29899  0.02826  0.01434  1.0000
  F   F294      1.0  0.30223  0.02133  0.52111  1.0000
  F   F295      1.0  0.29120  0.54180  0.02318  1.0000
  F   F296      1.0  0.28354  0.53700  0.51122  1.0000
  F   F297      1.0  0.54669  0.02091  0.02440  1.0000
  F   F298      1.0  0.54501  0.02409  0.52779  1.0000
  F   F299      1.0  0.54616  0.53543  0.02163  1.0000
  F   F300      1.0  0.54195  0.52576  0.53555  1.0000
  F   F301      1.0  0.78946  0.04381  0.02558  1.0000
  F   F302      1.0  0.78143  0.05034  0.53211  1.0000
  F   F303      1.0  0.80288  0.53915  0.99956  1.0000
  F   F304      1.0  0.78655  0.54130  0.53354  1.0000
  F   F305      1.0  0.24246  0.41493  0.22567  1.0000
  F   F306      1.0  0.24254  0.39325  0.73498  1.0000
  F   F307      1.0  0.23925  0.90603  0.22379  1.0000
  F   F308      1.0  0.23148  0.89789  0.73347  1.0000
  F   F309      1.0  0.48710  0.41856  0.22408  1.0000
  F   F310      1.0  0.48179  0.41176  0.73207  1.0000
  F   F311      1.0  0.48466  0.91461  0.22602  1.0000
  F   F312      1.0  0.48443  0.91440  0.72863  1.0000
  F   F313      1.0  0.73348  0.42816  0.22194  1.0000
  F   F314      1.0  0.73254  0.42007  0.72760  1.0000
  F   F315      1.0  0.73079  0.91084  0.24131  1.0000
  F   F316      1.0  0.73010  0.92529  0.72103  1.0000
  F   F317      1.0  0.98427  0.41115  0.22989  1.0000
  F   F318      1.0  0.98491  0.39819  0.75231  1.0000
  F   F319      1.0  0.98588  0.91397  0.24195  1.0000
  F   F320      1.0  0.97900  0.88512  0.74125  1.0000
  F   F321      1.0  0.20629  0.47470  0.48430  1.0000
  F   F322      1.0  0.21091  0.45619  0.98252  1.0000
  F   F323      1.0  0.20782  0.95958  0.47046  1.0000
  F   F324      1.0  0.21533  0.96745  0.95698  1.0000
  F   F325      1.0  0.45335  0.46095  0.49303  1.0000
  F   F326      1.0  0.46643  0.46024  0.96961  1.0000
  F   F327      1.0  0.45609  0.97602  0.49232  1.0000
  F   F328      1.0  0.46289  0.96560  0.96379  1.0000
  F   F329      1.0  0.71640  0.46353  0.47242  1.0000
  F   F330      1.0  0.70376  0.47616  0.98953  1.0000
  F   F331      1.0  0.70575  0.97427  0.48075  1.0000
  F   F332      1.0  0.70609  0.96755  0.98724  1.0000
  F   F333      1.0  0.96176  0.47030  0.46405  1.0000
  F   F334      1.0  0.96205  0.46550  0.95874  1.0000
  F   F335      1.0  0.95827  0.98509  0.47623  1.0000
  F   F336      1.0  0.96734  0.97414  0.97166  1.0000
  F   F337      1.0  0.01323  0.09154  0.26524  1.0000
  F   F338      1.0  0.01569  0.10682  0.75512  1.0000
  F   F339      1.0  0.01791  0.59609  0.25968  1.0000
  F   F340      1.0  0.01228  0.58106  0.77269  1.0000
  F   F341      1.0  0.26179  0.10374  0.26676  1.0000
  F   F342      1.0  0.26336  0.09791  0.76408  1.0000
  F   F343      1.0  0.26554  0.58567  0.27050  1.0000
  F   F344      1.0  0.26501  0.58579  0.76522  1.0000
  F   F345      1.0  0.51777  0.07957  0.27767  1.0000
  F   F346      1.0  0.51154  0.09223  0.77417  1.0000
  F   F347      1.0  0.50399  0.59259  0.27532  1.0000
  F   F348      1.0  0.51726  0.56621  0.77664  1.0000
  F   F349      1.0  0.76632  0.08881  0.25999  1.0000
  F   F350      1.0  0.76385  0.11035  0.77033  1.0000
  F   F351      1.0  0.76789  0.57658  0.26541  1.0000
  F   F352      1.0  0.76821  0.59117  0.77118  1.0000
  F   F353      1.0  0.10242  0.39426  0.45805  1.0000
  F   F354      1.0  0.10014  0.41624  0.95813  1.0000
  F   F355      1.0  0.09964  0.90903  0.46293  1.0000
  F   F356      1.0  0.09711  0.89781  0.96903  1.0000
  F   F357      1.0  0.35154  0.41005  0.46714  1.0000
  F   F358      1.0  0.34842  0.41436  0.96610  1.0000
  F   F359      1.0  0.34969  0.89822  0.46374  1.0000
  F   F360      1.0  0.35404  0.89986  0.97048  1.0000
  F   F361      1.0  0.59828  0.39975  0.45978  1.0000
  F   F362      1.0  0.60662  0.41531  0.96176  1.0000
  F   F363      1.0  0.60374  0.90609  0.45130  1.0000
  F   F364      1.0  0.60038  0.91363  0.96169  1.0000
  F   F365      1.0  0.84968  0.42032  0.44869  1.0000
  F   F366      1.0  0.85268  0.40479  0.97302  1.0000
  F   F367      1.0  0.84240  0.93336  0.45979  1.0000
  F   F368      1.0  0.84605  0.90389  0.96985  1.0000
  F   F369      1.0  0.04093  0.28914  0.29346  1.0000
  F   F370      1.0  0.04942  0.29547  0.79590  1.0000
  F   F371      1.0  0.04690  0.79896  0.29016  1.0000
  F   F372      1.0  0.04875  0.79051  0.79152  1.0000
  F   F373      1.0  0.30666  0.28713  0.28431  1.0000
  F   F374      1.0  0.29976  0.29182  0.80916  1.0000
  F   F375      1.0  0.30030  0.79760  0.27958  1.0000
  F   F376      1.0  0.30226  0.78607  0.78258  1.0000
  F   F377      1.0  0.55004  0.30198  0.27893  1.0000
  F   F378      1.0  0.55195  0.29627  0.78439  1.0000
  F   F379      1.0  0.54966  0.78877  0.29581  1.0000
  F   F380      1.0  0.55019  0.80025  0.77978  1.0000
  F   F381      1.0  0.79233  0.30710  0.28543  1.0000
  F   F382      1.0  0.79423  0.31084  0.78773  1.0000
  F   F383      1.0  0.79729  0.80083  0.29262  1.0000
  F   F384      1.0  0.80304  0.80662  0.78554  1.0000
