data_image0
_chemical_formula_structural       Hf96F384
_chemical_formula_sum              "Hf96 F384"
_cell_length_a       31.0284
_cell_length_b       15.511
_cell_length_c       15.5045
_cell_angle_alpha    63.342
_cell_angle_beta     63.342
_cell_angle_gamma    80.1625

_space_group_name_H-M_alt    "P 1"
_space_group_IT_number       1

loop_
  _space_group_symop_operation_xyz
  'x, y, z'

loop_
  _atom_site_type_symbol
  _atom_site_label
  _atom_site_symmetry_multiplicity
  _atom_site_fract_x
  _atom_site_fract_y
  _atom_site_fract_z
  _atom_site_occupancy
  Hf  Hf1       1.0  0.19234  0.09942  0.38353  1.0000
  Hf  Hf2       1.0  0.19523  0.10358  0.88211  1.0000
  Hf  Hf3       1.0  0.19459  0.60572  0.37725  1.0000
  Hf  Hf4       1.0  0.19802  0.60778  0.87024  1.0000
  Hf  Hf5       1.0  0.44657  0.09741  0.38348  1.0000
  Hf  Hf6       1.0  0.44899  0.10914  0.87759  1.0000
  Hf  Hf7       1.0  0.44510  0.60476  0.37672  1.0000
  Hf  Hf8       1.0  0.44179  0.60284  0.88436  1.0000
  Hf  Hf9       1.0  0.69010  0.10657  0.38736  1.0000
  Hf  Hf10      1.0  0.69451  0.11048  0.88390  1.0000
  Hf  Hf11      1.0  0.69783  0.60825  0.37975  1.0000
  Hf  Hf12      1.0  0.69517  0.60579  0.88120  1.0000
  Hf  Hf13      1.0  0.94631  0.10474  0.38170  1.0000
  Hf  Hf14      1.0  0.94989  0.10840  0.87706  1.0000
  Hf  Hf15      1.0  0.95099  0.61289  0.36202  1.0000
  Hf  Hf16      1.0  0.94733  0.61464  0.87448  1.0000
  Hf  Hf17      1.0  0.05338  0.38783  0.12512  1.0000
  Hf  Hf18      1.0  0.05369  0.38986  0.62456  1.0000
  Hf  Hf19      1.0  0.05094  0.88089  0.13202  1.0000
  Hf  Hf20      1.0  0.05472  0.88858  0.62795  1.0000
  Hf  Hf21      1.0  0.30196  0.39070  0.13006  1.0000
  Hf  Hf22      1.0  0.30754  0.39239  0.62255  1.0000
  Hf  Hf23      1.0  0.30172  0.89348  0.12846  1.0000
  Hf  Hf24      1.0  0.30424  0.89148  0.62481  1.0000
  Hf  Hf25      1.0  0.55313  0.39998  0.11953  1.0000
  Hf  Hf26      1.0  0.54901  0.39830  0.63206  1.0000
  Hf  Hf27      1.0  0.55687  0.89355  0.11337  1.0000
  Hf  Hf28      1.0  0.55272  0.90236  0.61784  1.0000
  Hf  Hf29      1.0  0.79982  0.39025  0.13253  1.0000
  Hf  Hf30      1.0  0.80237  0.39604  0.62524  1.0000
  Hf  Hf31      1.0  0.80489  0.90635  0.11327  1.0000
  Hf  Hf32      1.0  0.80663  0.89110  0.61685  1.0000
  Hf  Hf33      1.0  0.05435  0.18551  0.41490  1.0000
  Hf  Hf34      1.0  0.05656  0.18185  0.91885  1.0000
  Hf  Hf35      1.0  0.05528  0.67822  0.41561  1.0000
  Hf  Hf36      1.0  0.05839  0.67914  0.91560  1.0000
  Hf  Hf37      1.0  0.30407  0.17451  0.42178  1.0000
  Hf  Hf38      1.0  0.30683  0.17372  0.91762  1.0000
  Hf  Hf39      1.0  0.30886  0.68543  0.41514  1.0000
  Hf  Hf40      1.0  0.30701  0.68099  0.91248  1.0000
  Hf  Hf41      1.0  0.55598  0.18029  0.41832  1.0000
  Hf  Hf42      1.0  0.55551  0.18627  0.91262  1.0000
  Hf  Hf43      1.0  0.55955  0.68692  0.41290  1.0000
  Hf  Hf44      1.0  0.55465  0.69484  0.91579  1.0000
  Hf  Hf45      1.0  0.80447  0.18072  0.41300  1.0000
  Hf  Hf46      1.0  0.80656  0.18604  0.91196  1.0000
  Hf  Hf47      1.0  0.80961  0.68043  0.41440  1.0000
  Hf  Hf48      1.0  0.80828  0.68543  0.91468  1.0000
  Hf  Hf49      1.0  0.15607  0.37957  0.33682  1.0000
  Hf  Hf50      1.0  0.16139  0.38844  0.83394  1.0000
  Hf  Hf51      1.0  0.15446  0.88322  0.33517  1.0000
  Hf  Hf52      1.0  0.15936  0.88574  0.83821  1.0000
  Hf  Hf53      1.0  0.41032  0.38053  0.33547  1.0000
  Hf  Hf54      1.0  0.40744  0.38658  0.83640  1.0000
  Hf  Hf55      1.0  0.41297  0.88516  0.32997  1.0000
  Hf  Hf56      1.0  0.41145  0.90122  0.82697  1.0000
  Hf  Hf57      1.0  0.65610  0.39090  0.33711  1.0000
  Hf  Hf58      1.0  0.65718  0.38763  0.83505  1.0000
  Hf  Hf59      1.0  0.66092  0.89051  0.32795  1.0000
  Hf  Hf60      1.0  0.66536  0.89202  0.82319  1.0000
  Hf  Hf61      1.0  0.90761  0.39219  0.32512  1.0000
  Hf  Hf62      1.0  0.91051  0.39224  0.82697  1.0000
  Hf  Hf63      1.0  0.91076  0.88805  0.33339  1.0000
  Hf  Hf64      1.0  0.91035  0.89192  0.82494  1.0000
  Hf  Hf65      1.0  0.19913  0.31505  0.08359  1.0000
  Hf  Hf66      1.0  0.19562  0.32252  0.58491  1.0000
  Hf  Hf67      1.0  0.19429  0.81179  0.08219  1.0000
  Hf  Hf68      1.0  0.19415  0.81483  0.58066  1.0000
  Hf  Hf69      1.0  0.44270  0.31728  0.08259  1.0000
  Hf  Hf70      1.0  0.44572  0.31567  0.58508  1.0000
  Hf  Hf71      1.0  0.44093  0.81647  0.08705  1.0000
  Hf  Hf72      1.0  0.44482  0.81433  0.57926  1.0000
  Hf  Hf73      1.0  0.69447  0.32102  0.08632  1.0000
  Hf  Hf74      1.0  0.69445  0.31933  0.58119  1.0000
  Hf  Hf75      1.0  0.69428  0.81949  0.08501  1.0000
  Hf  Hf76      1.0  0.69384  0.81228  0.58949  1.0000
  Hf  Hf77      1.0  0.94535  0.31300  0.08324  1.0000
  Hf  Hf78      1.0  0.94000  0.31839  0.59006  1.0000
  Hf  Hf79      1.0  0.94018  0.81665  0.08044  1.0000
  Hf  Hf80      1.0  0.94615  0.81329  0.57941  1.0000
  Hf  Hf81      1.0  0.08888  0.10130  0.17318  1.0000
  Hf  Hf82      1.0  0.09289  0.10969  0.66909  1.0000
  Hf  Hf83      1.0  0.09365  0.60478  0.16142  1.0000
  Hf  Hf84      1.0  0.09376  0.61151  0.66204  1.0000
  Hf  Hf85      1.0  0.34336  0.10918  0.16332  1.0000
  Hf  Hf86      1.0  0.34246  0.11476  0.66531  1.0000
  Hf  Hf87      1.0  0.33911  0.61383  0.17105  1.0000
  Hf  Hf88      1.0  0.34124  0.60711  0.67062  1.0000
  Hf  Hf89      1.0  0.58859  0.11825  0.17119  1.0000
  Hf  Hf90      1.0  0.59070  0.11258  0.67104  1.0000
  Hf  Hf91      1.0  0.59103  0.61138  0.16597  1.0000
  Hf  Hf92      1.0  0.59171  0.61739  0.66407  1.0000
  Hf  Hf93      1.0  0.84330  0.11954  0.15750  1.0000
  Hf  Hf94      1.0  0.83367  0.10938  0.67311  1.0000
  Hf  Hf95      1.0  0.83921  0.62230  0.16703  1.0000
  Hf  Hf96      1.0  0.84035  0.61778  0.66375  1.0000
  F   F1        1.0  0.07621  0.14091  0.29619  1.0000
  F   F2        1.0  0.07981  0.13223  0.79939  1.0000
  F   F3        1.0  0.07319  0.62082  0.30820  1.0000
  F   F4        1.0  0.08465  0.64217  0.79126  1.0000
  F   F5        1.0  0.31640  0.11974  0.30323  1.0000
  F   F6        1.0  0.32813  0.12138  0.81299  1.0000
  F   F7        1.0  0.32157  0.62455  0.31308  1.0000
  F   F8        1.0  0.33003  0.61936  0.80800  1.0000
  F   F9        1.0  0.57587  0.12243  0.30689  1.0000
  F   F10       1.0  0.58342  0.13963  0.79806  1.0000
  F   F11       1.0  0.58021  0.62772  0.30146  1.0000
  F   F12       1.0  0.57972  0.64170  0.80291  1.0000
  F   F13       1.0  0.83248  0.12142  0.30095  1.0000
  F   F14       1.0  0.82954  0.12673  0.80770  1.0000
  F   F15       1.0  0.83279  0.61842  0.30745  1.0000
  F   F16       1.0  0.82875  0.62905  0.80160  1.0000
  F   F17       1.0  0.18251  0.34473  0.43845  1.0000
  F   F18       1.0  0.19121  0.34180  0.94127  1.0000
  F   F19       1.0  0.18647  0.83966  0.44438  1.0000
  F   F20       1.0  0.19506  0.83859  0.93817  1.0000
  F   F21       1.0  0.43901  0.33082  0.44622  1.0000
  F   F22       1.0  0.42897  0.34127  0.95350  1.0000
  F   F23       1.0  0.44981  0.84930  0.42629  1.0000
  F   F24       1.0  0.43058  0.83436  0.94671  1.0000
  F   F25       1.0  0.68661  0.34992  0.43893  1.0000
  F   F26       1.0  0.68453  0.34847  0.94632  1.0000
  F   F27       1.0  0.68528  0.84971  0.44439  1.0000
  F   F28       1.0  0.68612  0.85334  0.94173  1.0000
  F   F29       1.0  0.93149  0.34309  0.44680  1.0000
  F   F30       1.0  0.93407  0.34562  0.94700  1.0000
  F   F31       1.0  0.93553  0.83852  0.44455  1.0000
  F   F32       1.0  0.92702  0.83763  0.95118  1.0000
  F   F33       1.0  0.17299  0.37179  0.19417  1.0000
  F   F34       1.0  0.17063  0.37419  0.69924  1.0000
  F   F35       1.0  0.16957  0.87583  0.19081  1.0000
  F   F36       1.0  0.16996  0.87933  0.69298  1.0000
  F   F37       1.0  0.41435  0.36450  0.20290  1.0000
  F   F38       1.0  0.41660  0.37183  0.70152  1.0000
  F   F39       1.0  0.41578  0.86321  0.20166  1.0000
  F   F40       1.0  0.42029  0.87896  0.69655  1.0000
  F   F41       1.0  0.66661  0.37202  0.19975  1.0000
  F   F42       1.0  0.67147  0.38943  0.68885  1.0000
  F   F43       1.0  0.66989  0.87484  0.18968  1.0000
  F   F44       1.0  0.67556  0.87534  0.69059  1.0000
  F   F45       1.0  0.91922  0.37633  0.19535  1.0000
  F   F46       1.0  0.91657  0.37983  0.69365  1.0000
  F   F47       1.0  0.91516  0.86119  0.20396  1.0000
  F   F48       1.0  0.91679  0.86698  0.69336  1.0000
  F   F49       1.0  0.06430  0.14272  0.06675  1.0000
  F   F50       1.0  0.06248  0.16017  0.55846  1.0000
  F   F51       1.0  0.05661  0.64500  0.06341  1.0000
  F   F52       1.0  0.06977  0.66014  0.53946  1.0000
  F   F53       1.0  0.31761  0.16297  0.04509  1.0000
  F   F54       1.0  0.31249  0.15215  0.55836  1.0000
  F   F55       1.0  0.31993  0.65643  0.04535  1.0000
  F   F56       1.0  0.31681  0.65250  0.55977  1.0000
  F   F57       1.0  0.56162  0.16221  0.05884  1.0000
  F   F58       1.0  0.57186  0.15439  0.54421  1.0000
  F   F59       1.0  0.56992  0.65808  0.04674  1.0000
  F   F60       1.0  0.57222  0.66685  0.54313  1.0000
  F   F61       1.0  0.81694  0.16939  0.03835  1.0000
  F   F62       1.0  0.80396  0.14663  0.55764  1.0000
  F   F63       1.0  0.81057  0.66425  0.05685  1.0000
  F   F64       1.0  0.81055  0.66179  0.55626  1.0000
  F   F65       1.0  0.20376  0.20038  0.22661  1.0000
  F   F66       1.0  0.20208  0.20018  0.72676  1.0000
  F   F67       1.0  0.19788  0.70917  0.21965  1.0000
  F   F68       1.0  0.20413  0.71014  0.70676  1.0000
  F   F69       1.0  0.45687  0.20196  0.20353  1.0000
  F   F70       1.0  0.45556  0.20160  0.71541  1.0000
  F   F71       1.0  0.44598  0.70236  0.21390  1.0000
  F   F72       1.0  0.44683  0.69805  0.70459  1.0000
  F   F73       1.0  0.70920  0.21198  0.21096  1.0000
  F   F74       1.0  0.69757  0.20895  0.71288  1.0000
  F   F75       1.0  0.70304  0.70639  0.22450  1.0000
  F   F76       1.0  0.70216  0.70008  0.72131  1.0000
  F   F77       1.0  0.95288  0.19392  0.20556  1.0000
  F   F78       1.0  0.95745  0.21775  0.71593  1.0000
  F   F79       1.0  0.94936  0.70090  0.21139  1.0000
  F   F80       1.0  0.95386  0.69297  0.69863  1.0000
  F   F81       1.0  0.15021  0.07781  0.04102  1.0000
  F   F82       1.0  0.14742  0.08048  0.55349  1.0000
  F   F83       1.0  0.15383  0.58179  0.04323  1.0000
  F   F84       1.0  0.14724  0.58161  0.54264  1.0000
  F   F85       1.0  0.39847  0.09923  0.03930  1.0000
  F   F86       1.0  0.40174  0.09070  0.53518  1.0000
  F   F87       1.0  0.40141  0.58309  0.03504  1.0000
  F   F88       1.0  0.40194  0.58300  0.53866  1.0000
  F   F89       1.0  0.65305  0.10261  0.03548  1.0000
  F   F90       1.0  0.65330  0.07809  0.54375  1.0000
  F   F91       1.0  0.64881  0.59576  0.04181  1.0000
  F   F92       1.0  0.65357  0.58154  0.53660  1.0000
  F   F93       1.0  0.90020  0.09687  0.04124  1.0000
  F   F94       1.0  0.89660  0.09862  0.55551  1.0000
  F   F95       1.0  0.90115  0.61063  0.02423  1.0000
  F   F96       1.0  0.89228  0.59790  0.54146  1.0000
  F   F97       1.0  0.14888  0.19135  0.12448  1.0000
  F   F98       1.0  0.15788  0.19513  0.62388  1.0000
  F   F99       1.0  0.15311  0.69927  0.11558  1.0000
  F   F100      1.0  0.15414  0.68944  0.61550  1.0000
  F   F101      1.0  0.39961  0.19379  0.12988  1.0000
  F   F102      1.0  0.39933  0.19020  0.63458  1.0000
  F   F103      1.0  0.39715  0.69176  0.11301  1.0000
  F   F104      1.0  0.40194  0.70049  0.60388  1.0000
  F   F105      1.0  0.65149  0.21016  0.13074  1.0000
  F   F106      1.0  0.65693  0.19419  0.60648  1.0000
  F   F107      1.0  0.65522  0.70748  0.11945  1.0000
  F   F108      1.0  0.65720  0.68289  0.62210  1.0000
  F   F109      1.0  0.89385  0.20522  0.12065  1.0000
  F   F110      1.0  0.89557  0.20740  0.64971  1.0000
  F   F111      1.0  0.89826  0.69194  0.13699  1.0000
  F   F112      1.0  0.90075  0.70059  0.61575  1.0000
  F   F113      1.0  0.09972  0.30194  0.35524  1.0000
  F   F114      1.0  0.09585  0.29629  0.87981  1.0000
  F   F115      1.0  0.09399  0.80853  0.36585  1.0000
  F   F116      1.0  0.09875  0.78546  0.88752  1.0000
  F   F117      1.0  0.34770  0.30295  0.39332  1.0000
  F   F118      1.0  0.34981  0.29280  0.87979  1.0000
  F   F119      1.0  0.34681  0.80793  0.37229  1.0000
  F   F120      1.0  0.35447  0.81282  0.89409  1.0000
  F   F121      1.0  0.59319  0.31407  0.39545  1.0000
  F   F122      1.0  0.59356  0.31277  0.85094  1.0000
  F   F123      1.0  0.59858  0.80720  0.36962  1.0000
  F   F124      1.0  0.59815  0.81266  0.86071  1.0000
  F   F125      1.0  0.84979  0.29899  0.36510  1.0000
  F   F126      1.0  0.84979  0.30700  0.85219  1.0000
  F   F127      1.0  0.84534  0.80491  0.38328  1.0000
  F   F128      1.0  0.85415  0.81047  0.87460  1.0000
  F   F129      1.0  0.06194  0.24868  0.13531  1.0000
  F   F130      1.0  0.06770  0.25182  0.63360  1.0000
  F   F131      1.0  0.07482  0.74406  0.12291  1.0000
  F   F132      1.0  0.06751  0.74963  0.64539  1.0000
  F   F133      1.0  0.31509  0.24574  0.14248  1.0000
  F   F134      1.0  0.31572  0.25619  0.63177  1.0000
  F   F135      1.0  0.31121  0.75179  0.14788  1.0000
  F   F136      1.0  0.31336  0.75052  0.65149  1.0000
  F   F137      1.0  0.56220  0.25525  0.15077  1.0000
  F   F138      1.0  0.55961  0.24080  0.65055  1.0000
  F   F139      1.0  0.56924  0.74685  0.13970  1.0000
  F   F140      1.0  0.56403  0.75493  0.63988  1.0000
  F   F141      1.0  0.81130  0.25326  0.14298  1.0000
  F   F142      1.0  0.81618  0.24298  0.63482  1.0000
  F   F143      1.0  0.81018  0.75478  0.14919  1.0000
  F   F144      1.0  0.80529  0.74765  0.66231  1.0000
  F   F145      1.0  0.12726  0.36910  0.10486  1.0000
  F   F146      1.0  0.12694  0.36877  0.60669  1.0000
  F   F147      1.0  0.12311  0.87192  0.11094  1.0000
  F   F148      1.0  0.12455  0.86647  0.61443  1.0000
  F   F149      1.0  0.36916  0.39412  0.10403  1.0000
  F   F150      1.0  0.37603  0.35897  0.61651  1.0000
  F   F151      1.0  0.37381  0.87237  0.11242  1.0000
  F   F152      1.0  0.37683  0.85609  0.61819  1.0000
  F   F153      1.0  0.62352  0.38341  0.10119  1.0000
  F   F154      1.0  0.62317  0.35933  0.62300  1.0000
  F   F155      1.0  0.62312  0.85570  0.11187  1.0000
  F   F156      1.0  0.62471  0.85666  0.62011  1.0000
  F   F157      1.0  0.87144  0.36283  0.11432  1.0000
  F   F158      1.0  0.87336  0.38636  0.58746  1.0000
  F   F159      1.0  0.87357  0.88015  0.10508  1.0000
  F   F160      1.0  0.87405  0.86175  0.60729  1.0000
  F   F161      1.0  0.18007  0.24298  0.37277  1.0000
  F   F162      1.0  0.17914  0.24685  0.86718  1.0000
  F   F163      1.0  0.18033  0.74939  0.36531  1.0000
  F   F164      1.0  0.18456  0.74994  0.85626  1.0000
  F   F165      1.0  0.43953  0.24701  0.34616  1.0000
  F   F166      1.0  0.43726  0.24514  0.85695  1.0000
  F   F167      1.0  0.42599  0.74338  0.37173  1.0000
  F   F168      1.0  0.44911  0.75697  0.83577  1.0000
  F   F169      1.0  0.67816  0.24514  0.37347  1.0000
  F   F170      1.0  0.68614  0.25511  0.85877  1.0000
  F   F171      1.0  0.68679  0.75087  0.36071  1.0000
  F   F172      1.0  0.68550  0.74550  0.87224  1.0000
  F   F173      1.0  0.93767  0.25093  0.35763  1.0000
  F   F174      1.0  0.92985  0.25507  0.86034  1.0000
  F   F175      1.0  0.94586  0.75511  0.34000  1.0000
  F   F176      1.0  0.94834  0.75782  0.83436  1.0000
  F   F177      1.0  0.12406  0.13352  0.38603  1.0000
  F   F178      1.0  0.12339  0.11896  0.89955  1.0000
  F   F179      1.0  0.12388  0.62777  0.38375  1.0000
  F   F180      1.0  0.12819  0.61897  0.89598  1.0000
  F   F181      1.0  0.37310  0.14090  0.37786  1.0000
  F   F182      1.0  0.37511  0.12590  0.89822  1.0000
  F   F183      1.0  0.37543  0.62395  0.38967  1.0000
  F   F184      1.0  0.37828  0.66061  0.87371  1.0000
  F   F185      1.0  0.62506  0.14058  0.38414  1.0000
  F   F186      1.0  0.62309  0.12406  0.90546  1.0000
  F   F187      1.0  0.62587  0.63001  0.39524  1.0000
  F   F188      1.0  0.62406  0.64818  0.88867  1.0000
  F   F189      1.0  0.87608  0.12204  0.39437  1.0000
  F   F190      1.0  0.87791  0.12052  0.89725  1.0000
  F   F191      1.0  0.88178  0.63719  0.38444  1.0000
  F   F192      1.0  0.88114  0.65079  0.87573  1.0000
  F   F193      1.0  0.00695  0.36111  0.06791  1.0000
  F   F194      1.0  0.00649  0.37373  0.57569  1.0000
  F   F195      1.0  0.00366  0.85396  0.08111  1.0000
  F   F196      1.0  0.00822  0.86748  0.56768  1.0000
  F   F197      1.0  0.25761  0.35127  0.07860  1.0000
  F   F198      1.0  0.25895  0.36718  0.57485  1.0000
  F   F199      1.0  0.25432  0.86193  0.06601  1.0000
  F   F200      1.0  0.25863  0.87030  0.56749  1.0000
  F   F201      1.0  0.50552  0.36560  0.07752  1.0000
  F   F202      1.0  0.50360  0.36637  0.58482  1.0000
  F   F203      1.0  0.50578  0.84714  0.08192  1.0000
  F   F204      1.0  0.51136  0.86128  0.56355  1.0000
  F   F205      1.0  0.75960  0.38134  0.06424  1.0000
  F   F206      1.0  0.75692  0.36315  0.58683  1.0000
  F   F207      1.0  0.76049  0.85911  0.06911  1.0000
  F   F208      1.0  0.75927  0.86171  0.56529  1.0000
  F   F209      1.0  0.07394  0.47689  0.17097  1.0000
  F   F210      1.0  0.06942  0.48504  0.68385  1.0000
  F   F211      1.0  0.07009  0.97921  0.17229  1.0000
  F   F212      1.0  0.07141  0.98569  0.65869  1.0000
  F   F213      1.0  0.31458  0.48330  0.19203  1.0000
  F   F214      1.0  0.32103  0.48394  0.67649  1.0000
  F   F215      1.0  0.32093  0.99591  0.15393  1.0000
  F   F216      1.0  0.32160  0.98819  0.66156  1.0000
  F   F217      1.0  0.56781  0.49181  0.17723  1.0000
  F   F218      1.0  0.56776  0.49089  0.67108  1.0000
  F   F219      1.0  0.56849  0.98646  0.17016  1.0000
  F   F220      1.0  0.57171  0.98486  0.66238  1.0000
  F   F221      1.0  0.81980  0.48504  0.17025  1.0000
  F   F222      1.0  0.81546  0.48966  0.67930  1.0000
  F   F223      1.0  0.81327  0.98543  0.18046  1.0000
  F   F224      1.0  0.82007  0.98196  0.67358  1.0000
  F   F225      1.0  0.24024  0.13143  0.42994  1.0000
  F   F226      1.0  0.24221  0.14101  0.91953  1.0000
  F   F227      1.0  0.23562  0.64166  0.42964  1.0000
  F   F228      1.0  0.23980  0.64573  0.92112  1.0000
  F   F229      1.0  0.49394  0.13777  0.42295  1.0000
  F   F230      1.0  0.48975  0.13206  0.93502  1.0000
  F   F231      1.0  0.49224  0.63657  0.41972  1.0000
  F   F232      1.0  0.48924  0.63702  0.93801  1.0000
  F   F233      1.0  0.74218  0.14783  0.42826  1.0000
  F   F234      1.0  0.74031  0.13452  0.93790  1.0000
  F   F235      1.0  0.74353  0.63391  0.43853  1.0000
  F   F236      1.0  0.74363  0.63421  0.92980  1.0000
  F   F237      1.0  0.99535  0.13420  0.43012  1.0000
  F   F238      1.0  0.98855  0.14287  0.93365  1.0000
  F   F239      1.0  0.99237  0.63505  0.43093  1.0000
  F   F240      1.0  0.99620  0.62730  0.92442  1.0000
  F   F241      1.0  0.17482  0.00434  0.34564  1.0000
  F   F242      1.0  0.18281  0.01789  0.81371  1.0000
  F   F243      1.0  0.18754  0.51175  0.31357  1.0000
  F   F244      1.0  0.18307  0.52074  0.81976  1.0000
  F   F245      1.0  0.43196  0.02150  0.33089  1.0000
  F   F246      1.0  0.43595  0.01794  0.82332  1.0000
  F   F247      1.0  0.43011  0.50773  0.33160  1.0000
  F   F248      1.0  0.41984  0.50804  0.85196  1.0000
  F   F249      1.0  0.68013  0.02007  0.32135  1.0000
  F   F250      1.0  0.68238  0.01667  0.84206  1.0000
  F   F251      1.0  0.67813  0.51913  0.32830  1.0000
  F   F252      1.0  0.66971  0.51834  0.83944  1.0000
  F   F253      1.0  0.93429  0.01111  0.32597  1.0000
  F   F254      1.0  0.94239  0.01072  0.81987  1.0000
  F   F255      1.0  0.92794  0.51402  0.32635  1.0000
  F   F256      1.0  0.92968  0.52027  0.82266  1.0000
  F   F257      1.0  0.00455  0.23934  0.01061  1.0000
  F   F258      1.0  0.99725  0.26546  0.49927  1.0000
  F   F259      1.0  0.99383  0.74649  0.99436  1.0000
  F   F260      1.0  0.00658  0.76074  0.48314  1.0000
  F   F261      1.0  0.25282  0.25008  0.00559  1.0000
  F   F262      1.0  0.24577  0.25179  0.50291  1.0000
  F   F263      1.0  0.25472  0.74323  0.00244  1.0000
  F   F264      1.0  0.24984  0.73299  0.51247  1.0000
  F   F265      1.0  0.50095  0.24990  0.99847  1.0000
  F   F266      1.0  0.50034  0.24949  0.50099  1.0000
  F   F267      1.0  0.49658  0.74489  0.00848  1.0000
  F   F268      1.0  0.50200  0.74166  0.50945  1.0000
  F   F269      1.0  0.74911  0.25146  0.99427  1.0000
  F   F270      1.0  0.75247  0.26472  0.50031  1.0000
  F   F271      1.0  0.74760  0.74164  0.01092  1.0000
  F   F272      1.0  0.74782  0.74236  0.50189  1.0000
  F   F273      1.0  0.12268  0.00595  0.25672  1.0000
  F   F274      1.0  0.12317  0.00141  0.75212  1.0000
  F   F275      1.0  0.12496  0.49120  0.25160  1.0000
  F   F276      1.0  0.12454  0.50370  0.75842  1.0000
  F   F277      1.0  0.38223  0.00133  0.23954  1.0000
  F   F278      1.0  0.37068  0.00444  0.74582  1.0000
  F   F279      1.0  0.37479  0.49483  0.25773  1.0000
  F   F280      1.0  0.38118  0.50644  0.74261  1.0000
  F   F281      1.0  0.62450  0.00977  0.24198  1.0000
  F   F282      1.0  0.62453  0.99507  0.74767  1.0000
  F   F283      1.0  0.62949  0.50603  0.24188  1.0000
  F   F284      1.0  0.61997  0.50378  0.75556  1.0000
  F   F285      1.0  0.88409  0.00232  0.23579  1.0000
  F   F286      1.0  0.87916  0.00139  0.74052  1.0000
  F   F287      1.0  0.87561  0.50635  0.24191  1.0000
  F   F288      1.0  0.87626  0.50868  0.74902  1.0000
  F   F289      1.0  0.04282  0.02158  0.01923  1.0000
  F   F290      1.0  0.04813  0.03779  0.50958  1.0000
  F   F291      1.0  0.04873  0.52427  0.01764  1.0000
  F   F292      1.0  0.03920  0.53064  0.53206  1.0000
  F   F293      1.0  0.29030  0.03103  0.01952  1.0000
  F   F294      1.0  0.29581  0.02419  0.51755  1.0000
  F   F295      1.0  0.29916  0.53033  0.02053  1.0000
  F   F296      1.0  0.29074  0.53184  0.53216  1.0000
  F   F297      1.0  0.54184  0.03229  0.01819  1.0000
  F   F298      1.0  0.54598  0.03800  0.50695  1.0000
  F   F299      1.0  0.55298  0.53568  0.01197  1.0000
  F   F300      1.0  0.52884  0.53416  0.53885  1.0000
  F   F301      1.0  0.79001  0.03087  0.02571  1.0000
  F   F302      1.0  0.79606  0.02077  0.50718  1.0000
  F   F303      1.0  0.80449  0.53343  0.01302  1.0000
  F   F304      1.0  0.80074  0.53468  0.51183  1.0000
  F   F305      1.0  0.23723  0.39490  0.23747  1.0000
  F   F306      1.0  0.23712  0.39235  0.73128  1.0000
  F   F307      1.0  0.23474  0.91960  0.21547  1.0000
  F   F308      1.0  0.23669  0.90676  0.72929  1.0000
  F   F309      1.0  0.48426  0.42095  0.22302  1.0000
  F   F310      1.0  0.47970  0.42738  0.73854  1.0000
  F   F311      1.0  0.48443  0.90851  0.22785  1.0000
  F   F312      1.0  0.48896  0.93588  0.71048  1.0000
  F   F313      1.0  0.73075  0.42785  0.22326  1.0000
  F   F314      1.0  0.72964  0.41227  0.75279  1.0000
  F   F315      1.0  0.73373  0.91527  0.22268  1.0000
  F   F316      1.0  0.73767  0.90021  0.73683  1.0000
  F   F317      1.0  0.98607  0.40822  0.22161  1.0000
  F   F318      1.0  0.98106  0.41505  0.73648  1.0000
  F   F319      1.0  0.98368  0.91756  0.22045  1.0000
  F   F320      1.0  0.98427  0.92420  0.71060  1.0000
  F   F321      1.0  0.21420  0.46065  0.46812  1.0000
  F   F322      1.0  0.21475  0.47392  0.96451  1.0000
  F   F323      1.0  0.21247  0.96586  0.47270  1.0000
  F   F324      1.0  0.20851  0.96281  0.96449  1.0000
  F   F325      1.0  0.45583  0.45862  0.48051  1.0000
  F   F326      1.0  0.46325  0.45790  0.97107  1.0000
  F   F327      1.0  0.45634  0.96841  0.48106  1.0000
  F   F328      1.0  0.45410  0.96709  0.97774  1.0000
  F   F329      1.0  0.71088  0.46605  0.46800  1.0000
  F   F330      1.0  0.70433  0.46923  0.98527  1.0000
  F   F331      1.0  0.71009  0.97169  0.46593  1.0000
  F   F332      1.0  0.70681  0.97362  0.97717  1.0000
  F   F333      1.0  0.95470  0.46943  0.46682  1.0000
  F   F334      1.0  0.95595  0.46828  0.98116  1.0000
  F   F335      1.0  0.94734  0.96600  0.49225  1.0000
  F   F336      1.0  0.95743  0.97063  0.98086  1.0000
  F   F337      1.0  0.01317  0.07616  0.26986  1.0000
  F   F338      1.0  0.01833  0.08342  0.77472  1.0000
  F   F339      1.0  0.01146  0.58067  0.26659  1.0000
  F   F340      1.0  0.01682  0.59589  0.76679  1.0000
  F   F341      1.0  0.25564  0.08176  0.26816  1.0000
  F   F342      1.0  0.26849  0.09152  0.77040  1.0000
  F   F343      1.0  0.26337  0.60359  0.25435  1.0000
  F   F344      1.0  0.26865  0.59066  0.77216  1.0000
  F   F345      1.0  0.51498  0.08105  0.27926  1.0000
  F   F346      1.0  0.52082  0.07040  0.78246  1.0000
  F   F347      1.0  0.51458  0.58611  0.26969  1.0000
  F   F348      1.0  0.51071  0.60423  0.76698  1.0000
  F   F349      1.0  0.76778  0.09292  0.26778  1.0000
  F   F350      1.0  0.76679  0.06885  0.78816  1.0000
  F   F351      1.0  0.76406  0.58284  0.27892  1.0000
  F   F352      1.0  0.76273  0.58133  0.78190  1.0000
  F   F353      1.0  0.09908  0.41343  0.45397  1.0000
  F   F354      1.0  0.10712  0.40175  0.96120  1.0000
  F   F355      1.0  0.09756  0.89260  0.46542  1.0000
  F   F356      1.0  0.10151  0.90504  0.95793  1.0000
  F   F357      1.0  0.34877  0.41426  0.46621  1.0000
  F   F358      1.0  0.34194  0.40716  0.95431  1.0000
  F   F359      1.0  0.35859  0.89358  0.46936  1.0000
  F   F360      1.0  0.35188  0.93190  0.96342  1.0000
  F   F361      1.0  0.59566  0.42253  0.47140  1.0000
  F   F362      1.0  0.59607  0.38811  0.95940  1.0000
  F   F363      1.0  0.59974  0.91875  0.45187  1.0000
  F   F364      1.0  0.60040  0.91465  0.95777  1.0000
  F   F365      1.0  0.84364  0.40095  0.45552  1.0000
  F   F366      1.0  0.85244  0.40541  0.95341  1.0000
  F   F367      1.0  0.85199  0.90052  0.46193  1.0000
  F   F368      1.0  0.84808  0.91766  0.95869  1.0000
  F   F369      1.0  0.03820  0.29264  0.29012  1.0000
  F   F370      1.0  0.04744  0.30389  0.77671  1.0000
  F   F371      1.0  0.03983  0.78691  0.28656  1.0000
  F   F372      1.0  0.04310  0.80817  0.79596  1.0000
  F   F373      1.0  0.30308  0.28945  0.29115  1.0000
  F   F374      1.0  0.29964  0.29504  0.78405  1.0000
  F   F375      1.0  0.29605  0.81174  0.28938  1.0000
  F   F376      1.0  0.30417  0.80765  0.79137  1.0000
  F   F377      1.0  0.55239  0.29718  0.29184  1.0000
  F   F378      1.0  0.53420  0.29754  0.79184  1.0000
  F   F379      1.0  0.54160  0.78955  0.29670  1.0000
  F   F380      1.0  0.54223  0.80997  0.79191  1.0000
  F   F381      1.0  0.78957  0.28572  0.29151  1.0000
  F   F382      1.0  0.78834  0.29282  0.78173  1.0000
  F   F383      1.0  0.79481  0.79247  0.30154  1.0000
  F   F384      1.0  0.80010  0.79759  0.79729  1.0000
