data_image0
_chemical_formula_structural       Hf96F384
_chemical_formula_sum              "Hf96 F384"
_cell_length_a       31.0516
_cell_length_b       15.5262
_cell_length_c       15.5144
_cell_angle_alpha    63.342
_cell_angle_beta     63.342
_cell_angle_gamma    80.1625

_space_group_name_H-M_alt    "P 1"
_space_group_IT_number       1

loop_
  _space_group_symop_operation_xyz
  'x, y, z'

loop_
  _atom_site_type_symbol
  _atom_site_label
  _atom_site_symmetry_multiplicity
  _atom_site_fract_x
  _atom_site_fract_y
  _atom_site_fract_z
  _atom_site_occupancy
  Hf  Hf1       1.0  0.19908  0.10614  0.36891  1.0000
  Hf  Hf2       1.0  0.19912  0.11888  0.86403  1.0000
  Hf  Hf3       1.0  0.19271  0.61022  0.37113  1.0000
  Hf  Hf4       1.0  0.19973  0.61060  0.86889  1.0000
  Hf  Hf5       1.0  0.44270  0.09990  0.38664  1.0000
  Hf  Hf6       1.0  0.44632  0.10782  0.87309  1.0000
  Hf  Hf7       1.0  0.44478  0.60897  0.37277  1.0000
  Hf  Hf8       1.0  0.44678  0.60753  0.87976  1.0000
  Hf  Hf9       1.0  0.69645  0.11596  0.36871  1.0000
  Hf  Hf10      1.0  0.69668  0.10034  0.87395  1.0000
  Hf  Hf11      1.0  0.70061  0.60634  0.37430  1.0000
  Hf  Hf12      1.0  0.69922  0.60964  0.86653  1.0000
  Hf  Hf13      1.0  0.93990  0.10633  0.38554  1.0000
  Hf  Hf14      1.0  0.95023  0.09918  0.88165  1.0000
  Hf  Hf15      1.0  0.94389  0.60699  0.38454  1.0000
  Hf  Hf16      1.0  0.94667  0.60742  0.88139  1.0000
  Hf  Hf17      1.0  0.05401  0.40176  0.11838  1.0000
  Hf  Hf18      1.0  0.05404  0.38895  0.62697  1.0000
  Hf  Hf19      1.0  0.04897  0.89545  0.12295  1.0000
  Hf  Hf20      1.0  0.05322  0.89964  0.61921  1.0000
  Hf  Hf21      1.0  0.30422  0.40138  0.11723  1.0000
  Hf  Hf22      1.0  0.30393  0.39705  0.61747  1.0000
  Hf  Hf23      1.0  0.30183  0.90081  0.12020  1.0000
  Hf  Hf24      1.0  0.30559  0.89711  0.61751  1.0000
  Hf  Hf25      1.0  0.55186  0.38456  0.13104  1.0000
  Hf  Hf26      1.0  0.55378  0.39946  0.61618  1.0000
  Hf  Hf27      1.0  0.55641  0.88810  0.11415  1.0000
  Hf  Hf28      1.0  0.55231  0.88545  0.63415  1.0000
  Hf  Hf29      1.0  0.80279  0.38576  0.12661  1.0000
  Hf  Hf30      1.0  0.80446  0.37961  0.63471  1.0000
  Hf  Hf31      1.0  0.80574  0.89779  0.12223  1.0000
  Hf  Hf32      1.0  0.80790  0.88852  0.62776  1.0000
  Hf  Hf33      1.0  0.05453  0.18115  0.41413  1.0000
  Hf  Hf34      1.0  0.05745  0.18550  0.92003  1.0000
  Hf  Hf35      1.0  0.05321  0.68512  0.42207  1.0000
  Hf  Hf36      1.0  0.05815  0.69030  0.90750  1.0000
  Hf  Hf37      1.0  0.30472  0.19613  0.40876  1.0000
  Hf  Hf38      1.0  0.30695  0.18720  0.91908  1.0000
  Hf  Hf39      1.0  0.30498  0.68637  0.40735  1.0000
  Hf  Hf40      1.0  0.30803  0.69059  0.90655  1.0000
  Hf  Hf41      1.0  0.55499  0.18157  0.41588  1.0000
  Hf  Hf42      1.0  0.55432  0.17640  0.91943  1.0000
  Hf  Hf43      1.0  0.55570  0.68557  0.41787  1.0000
  Hf  Hf44      1.0  0.55398  0.67540  0.92151  1.0000
  Hf  Hf45      1.0  0.80311  0.18219  0.42511  1.0000
  Hf  Hf46      1.0  0.80430  0.17865  0.92063  1.0000
  Hf  Hf47      1.0  0.80683  0.67561  0.42570  1.0000
  Hf  Hf48      1.0  0.80565  0.67391  0.92267  1.0000
  Hf  Hf49      1.0  0.15525  0.39480  0.32356  1.0000
  Hf  Hf50      1.0  0.16063  0.39392  0.83146  1.0000
  Hf  Hf51      1.0  0.16051  0.89227  0.33424  1.0000
  Hf  Hf52      1.0  0.16096  0.89504  0.82412  1.0000
  Hf  Hf53      1.0  0.40862  0.39291  0.33521  1.0000
  Hf  Hf54      1.0  0.41098  0.39722  0.82426  1.0000
  Hf  Hf55      1.0  0.41304  0.89127  0.32326  1.0000
  Hf  Hf56      1.0  0.40835  0.88905  0.83862  1.0000
  Hf  Hf57      1.0  0.66096  0.39188  0.32541  1.0000
  Hf  Hf58      1.0  0.65595  0.37749  0.83919  1.0000
  Hf  Hf59      1.0  0.65770  0.88546  0.33318  1.0000
  Hf  Hf60      1.0  0.66077  0.87465  0.83996  1.0000
  Hf  Hf61      1.0  0.90765  0.39264  0.33634  1.0000
  Hf  Hf62      1.0  0.91537  0.38680  0.83151  1.0000
  Hf  Hf63      1.0  0.90972  0.88366  0.34288  1.0000
  Hf  Hf64      1.0  0.90729  0.88951  0.83424  1.0000
  Hf  Hf65      1.0  0.19654  0.32530  0.07940  1.0000
  Hf  Hf66      1.0  0.19195  0.31837  0.58314  1.0000
  Hf  Hf67      1.0  0.19407  0.82497  0.07731  1.0000
  Hf  Hf68      1.0  0.19302  0.82041  0.58470  1.0000
  Hf  Hf69      1.0  0.44330  0.30678  0.08851  1.0000
  Hf  Hf70      1.0  0.44619  0.31931  0.57814  1.0000
  Hf  Hf71      1.0  0.44301  0.81837  0.08029  1.0000
  Hf  Hf72      1.0  0.44236  0.81428  0.58512  1.0000
  Hf  Hf73      1.0  0.69164  0.31551  0.08250  1.0000
  Hf  Hf74      1.0  0.69457  0.32326  0.57628  1.0000
  Hf  Hf75      1.0  0.69638  0.81088  0.08516  1.0000
  Hf  Hf76      1.0  0.69696  0.82315  0.57712  1.0000
  Hf  Hf77      1.0  0.94536  0.31267  0.08558  1.0000
  Hf  Hf78      1.0  0.94597  0.31205  0.58826  1.0000
  Hf  Hf79      1.0  0.93980  0.80979  0.09425  1.0000
  Hf  Hf80      1.0  0.94598  0.81873  0.58804  1.0000
  Hf  Hf81      1.0  0.08548  0.11389  0.17073  1.0000
  Hf  Hf82      1.0  0.09305  0.11653  0.66533  1.0000
  Hf  Hf83      1.0  0.08638  0.61599  0.16799  1.0000
  Hf  Hf84      1.0  0.09061  0.61670  0.66739  1.0000
  Hf  Hf85      1.0  0.34343  0.11780  0.15816  1.0000
  Hf  Hf86      1.0  0.34166  0.11779  0.66218  1.0000
  Hf  Hf87      1.0  0.33694  0.61463  0.16519  1.0000
  Hf  Hf88      1.0  0.34034  0.60181  0.66992  1.0000
  Hf  Hf89      1.0  0.59023  0.10641  0.16529  1.0000
  Hf  Hf90      1.0  0.59331  0.11412  0.66356  1.0000
  Hf  Hf91      1.0  0.58949  0.60082  0.17498  1.0000
  Hf  Hf92      1.0  0.59426  0.61093  0.67287  1.0000
  Hf  Hf93      1.0  0.84387  0.10767  0.17272  1.0000
  Hf  Hf94      1.0  0.84041  0.10383  0.67412  1.0000
  Hf  Hf95      1.0  0.83825  0.61199  0.16915  1.0000
  Hf  Hf96      1.0  0.84662  0.61089  0.66776  1.0000
  F   F1        1.0  0.07652  0.13169  0.30237  1.0000
  F   F2        1.0  0.08554  0.13915  0.79896  1.0000
  F   F3        1.0  0.08231  0.64606  0.28629  1.0000
  F   F4        1.0  0.08209  0.63095  0.80429  1.0000
  F   F5        1.0  0.32519  0.14404  0.30286  1.0000
  F   F6        1.0  0.33238  0.14582  0.79143  1.0000
  F   F7        1.0  0.32735  0.63478  0.29743  1.0000
  F   F8        1.0  0.32944  0.62122  0.80247  1.0000
  F   F9        1.0  0.58115  0.12195  0.30475  1.0000
  F   F10       1.0  0.57473  0.13374  0.80197  1.0000
  F   F11       1.0  0.57864  0.62781  0.29971  1.0000
  F   F12       1.0  0.58121  0.61339  0.81681  1.0000
  F   F13       1.0  0.82921  0.12542  0.30616  1.0000
  F   F14       1.0  0.83204  0.10474  0.81250  1.0000
  F   F15       1.0  0.83126  0.63483  0.30445  1.0000
  F   F16       1.0  0.83302  0.60879  0.81972  1.0000
  F   F17       1.0  0.18984  0.34790  0.43088  1.0000
  F   F18       1.0  0.18721  0.35338  0.94052  1.0000
  F   F19       1.0  0.16934  0.83249  0.46813  1.0000
  F   F20       1.0  0.19018  0.86962  0.93372  1.0000
  F   F21       1.0  0.43979  0.35877  0.43365  1.0000
  F   F22       1.0  0.43846  0.33216  0.94099  1.0000
  F   F23       1.0  0.43901  0.84107  0.43523  1.0000
  F   F24       1.0  0.44305  0.83866  0.94162  1.0000
  F   F25       1.0  0.69296  0.34206  0.43681  1.0000
  F   F26       1.0  0.67912  0.33481  0.95917  1.0000
  F   F27       1.0  0.68346  0.82880  0.45789  1.0000
  F   F28       1.0  0.68971  0.82974  0.95180  1.0000
  F   F29       1.0  0.92935  0.34009  0.45475  1.0000
  F   F30       1.0  0.94437  0.34519  0.94481  1.0000
  F   F31       1.0  0.93299  0.83177  0.46238  1.0000
  F   F32       1.0  0.93350  0.84556  0.95305  1.0000
  F   F33       1.0  0.17527  0.37899  0.18990  1.0000
  F   F34       1.0  0.17527  0.37612  0.69388  1.0000
  F   F35       1.0  0.17402  0.89215  0.18467  1.0000
  F   F36       1.0  0.17223  0.89257  0.67964  1.0000
  F   F37       1.0  0.42332  0.36181  0.20323  1.0000
  F   F38       1.0  0.41943  0.36521  0.69240  1.0000
  F   F39       1.0  0.42519  0.87199  0.18441  1.0000
  F   F40       1.0  0.41703  0.86915  0.69475  1.0000
  F   F41       1.0  0.67742  0.37309  0.18770  1.0000
  F   F42       1.0  0.65916  0.35719  0.70645  1.0000
  F   F43       1.0  0.66906  0.86713  0.19955  1.0000
  F   F44       1.0  0.67031  0.86482  0.70175  1.0000
  F   F45       1.0  0.92333  0.37809  0.18923  1.0000
  F   F46       1.0  0.91904  0.36829  0.70262  1.0000
  F   F47       1.0  0.92146  0.87852  0.19204  1.0000
  F   F48       1.0  0.92147  0.86210  0.71007  1.0000
  F   F49       1.0  0.04993  0.13951  0.07333  1.0000
  F   F50       1.0  0.06620  0.16426  0.53769  1.0000
  F   F51       1.0  0.05620  0.67222  0.05360  1.0000
  F   F52       1.0  0.07238  0.64230  0.54752  1.0000
  F   F53       1.0  0.31162  0.16754  0.05607  1.0000
  F   F54       1.0  0.31489  0.16413  0.55684  1.0000
  F   F55       1.0  0.31721  0.66149  0.04659  1.0000
  F   F56       1.0  0.30358  0.63765  0.56693  1.0000
  F   F57       1.0  0.55824  0.14629  0.05723  1.0000
  F   F58       1.0  0.57795  0.17036  0.53635  1.0000
  F   F59       1.0  0.55294  0.65083  0.07031  1.0000
  F   F60       1.0  0.56127  0.64555  0.56684  1.0000
  F   F61       1.0  0.81658  0.15943  0.05918  1.0000
  F   F62       1.0  0.81434  0.16867  0.55740  1.0000
  F   F63       1.0  0.81655  0.66902  0.06026  1.0000
  F   F64       1.0  0.81898  0.66101  0.55154  1.0000
  F   F65       1.0  0.21404  0.20692  0.20455  1.0000
  F   F66       1.0  0.20238  0.19806  0.71486  1.0000
  F   F67       1.0  0.19679  0.70562  0.19708  1.0000
  F   F68       1.0  0.22262  0.70879  0.69362  1.0000
  F   F69       1.0  0.45572  0.19866  0.21778  1.0000
  F   F70       1.0  0.45745  0.20382  0.70835  1.0000
  F   F71       1.0  0.44590  0.70179  0.21864  1.0000
  F   F72       1.0  0.46271  0.70883  0.70355  1.0000
  F   F73       1.0  0.70020  0.19997  0.21643  1.0000
  F   F74       1.0  0.70289  0.18251  0.72533  1.0000
  F   F75       1.0  0.70276  0.69146  0.22523  1.0000
  F   F76       1.0  0.70982  0.69477  0.70770  1.0000
  F   F77       1.0  0.96099  0.20479  0.20271  1.0000
  F   F78       1.0  0.95815  0.19273  0.70161  1.0000
  F   F79       1.0  0.95239  0.69953  0.21286  1.0000
  F   F80       1.0  0.95562  0.69853  0.72198  1.0000
  F   F81       1.0  0.14524  0.12666  0.04221  1.0000
  F   F82       1.0  0.14787  0.08685  0.54527  1.0000
  F   F83       1.0  0.14188  0.60174  0.03514  1.0000
  F   F84       1.0  0.14969  0.59436  0.53317  1.0000
  F   F85       1.0  0.39913  0.10471  0.03389  1.0000
  F   F86       1.0  0.40289  0.08049  0.54119  1.0000
  F   F87       1.0  0.39249  0.58174  0.04033  1.0000
  F   F88       1.0  0.39860  0.60002  0.53090  1.0000
  F   F89       1.0  0.65327  0.08615  0.03993  1.0000
  F   F90       1.0  0.65326  0.10426  0.52801  1.0000
  F   F91       1.0  0.65049  0.59052  0.05356  1.0000
  F   F92       1.0  0.65429  0.57430  0.55345  1.0000
  F   F93       1.0  0.90565  0.09575  0.05104  1.0000
  F   F94       1.0  0.89333  0.06442  0.53437  1.0000
  F   F95       1.0  0.89689  0.58662  0.05791  1.0000
  F   F96       1.0  0.90949  0.59320  0.53780  1.0000
  F   F97       1.0  0.15113  0.20295  0.14962  1.0000
  F   F98       1.0  0.15483  0.20196  0.62027  1.0000
  F   F99       1.0  0.14474  0.70175  0.10956  1.0000
  F   F100      1.0  0.15486  0.69083  0.64689  1.0000
  F   F101      1.0  0.40386  0.17686  0.14765  1.0000
  F   F102      1.0  0.40507  0.18833  0.61183  1.0000
  F   F103      1.0  0.40306  0.69499  0.11389  1.0000
  F   F104      1.0  0.40267  0.69079  0.62171  1.0000
  F   F105      1.0  0.64982  0.18615  0.12948  1.0000
  F   F106      1.0  0.65278  0.20767  0.61809  1.0000
  F   F107      1.0  0.64892  0.69926  0.13836  1.0000
  F   F108      1.0  0.65269  0.69036  0.63920  1.0000
  F   F109      1.0  0.89874  0.20325  0.13387  1.0000
  F   F110      1.0  0.89958  0.18478  0.61530  1.0000
  F   F111      1.0  0.89906  0.69640  0.12183  1.0000
  F   F112      1.0  0.89962  0.69183  0.64900  1.0000
  F   F113      1.0  0.10304  0.30129  0.35438  1.0000
  F   F114      1.0  0.09717  0.30191  0.87579  1.0000
  F   F115      1.0  0.09937  0.81064  0.37603  1.0000
  F   F116      1.0  0.10142  0.80815  0.85737  1.0000
  F   F117      1.0  0.34717  0.31435  0.37208  1.0000
  F   F118      1.0  0.34460  0.30973  0.86966  1.0000
  F   F119      1.0  0.34849  0.80029  0.36488  1.0000
  F   F120      1.0  0.34180  0.81115  0.88338  1.0000
  F   F121      1.0  0.59573  0.30780  0.35628  1.0000
  F   F122      1.0  0.59641  0.29973  0.88595  1.0000
  F   F123      1.0  0.59690  0.79512  0.37933  1.0000
  F   F124      1.0  0.60421  0.78972  0.87691  1.0000
  F   F125      1.0  0.84659  0.31540  0.37699  1.0000
  F   F126      1.0  0.83939  0.29073  0.87819  1.0000
  F   F127      1.0  0.85125  0.80031  0.38192  1.0000
  F   F128      1.0  0.84353  0.79739  0.87824  1.0000
  F   F129      1.0  0.06964  0.25445  0.11926  1.0000
  F   F130      1.0  0.07042  0.25029  0.63344  1.0000
  F   F131      1.0  0.06205  0.76340  0.13939  1.0000
  F   F132      1.0  0.06833  0.75667  0.62478  1.0000
  F   F133      1.0  0.31648  0.25918  0.13032  1.0000
  F   F134      1.0  0.31729  0.25486  0.63688  1.0000
  F   F135      1.0  0.31471  0.76357  0.12310  1.0000
  F   F136      1.0  0.31177  0.74202  0.64860  1.0000
  F   F137      1.0  0.56435  0.24154  0.13488  1.0000
  F   F138      1.0  0.55980  0.24822  0.65428  1.0000
  F   F139      1.0  0.56648  0.74947  0.14160  1.0000
  F   F140      1.0  0.55946  0.74472  0.65306  1.0000
  F   F141      1.0  0.81244  0.25024  0.14428  1.0000
  F   F142      1.0  0.80554  0.23766  0.66993  1.0000
  F   F143      1.0  0.81507  0.75006  0.15804  1.0000
  F   F144      1.0  0.81572  0.74591  0.64193  1.0000
  F   F145      1.0  0.12254  0.37274  0.10891  1.0000
  F   F146      1.0  0.12804  0.38662  0.59517  1.0000
  F   F147      1.0  0.12532  0.85936  0.11157  1.0000
  F   F148      1.0  0.12066  0.87298  0.61086  1.0000
  F   F149      1.0  0.36994  0.35689  0.12877  1.0000
  F   F150      1.0  0.37586  0.36622  0.59833  1.0000
  F   F151      1.0  0.37378  0.85722  0.11176  1.0000
  F   F152      1.0  0.37408  0.87737  0.59224  1.0000
  F   F153      1.0  0.62304  0.34550  0.13286  1.0000
  F   F154      1.0  0.63150  0.38771  0.58914  1.0000
  F   F155      1.0  0.62996  0.87342  0.08857  1.0000
  F   F156      1.0  0.62292  0.85381  0.62123  1.0000
  F   F157      1.0  0.87136  0.36971  0.10345  1.0000
  F   F158      1.0  0.87539  0.34268  0.62335  1.0000
  F   F159      1.0  0.87498  0.87913  0.11303  1.0000
  F   F160      1.0  0.87232  0.86264  0.63228  1.0000
  F   F161      1.0  0.18569  0.24318  0.35355  1.0000
  F   F162      1.0  0.17917  0.25229  0.86376  1.0000
  F   F163      1.0  0.19081  0.75958  0.34207  1.0000
  F   F164      1.0  0.18188  0.75896  0.85538  1.0000
  F   F165      1.0  0.43174  0.24067  0.37980  1.0000
  F   F166      1.0  0.42583  0.25508  0.85504  1.0000
  F   F167      1.0  0.43026  0.74988  0.35627  1.0000
  F   F168      1.0  0.43567  0.75490  0.85478  1.0000
  F   F169      1.0  0.68082  0.25075  0.35170  1.0000
  F   F170      1.0  0.68394  0.23947  0.86615  1.0000
  F   F171      1.0  0.68210  0.74813  0.36053  1.0000
  F   F172      1.0  0.68783  0.74557  0.86357  1.0000
  F   F173      1.0  0.93248  0.24965  0.35396  1.0000
  F   F174      1.0  0.93354  0.24662  0.87039  1.0000
  F   F175      1.0  0.93715  0.74586  0.35332  1.0000
  F   F176      1.0  0.92440  0.74610  0.87435  1.0000
  F   F177      1.0  0.12750  0.12682  0.38052  1.0000
  F   F178      1.0  0.12123  0.12604  0.91502  1.0000
  F   F179      1.0  0.12495  0.63911  0.38886  1.0000
  F   F180      1.0  0.12691  0.63593  0.87750  1.0000
  F   F181      1.0  0.37472  0.13397  0.39283  1.0000
  F   F182      1.0  0.37701  0.13387  0.88582  1.0000
  F   F183      1.0  0.37319  0.62427  0.39330  1.0000
  F   F184      1.0  0.37703  0.64043  0.87899  1.0000
  F   F185      1.0  0.62608  0.12904  0.38118  1.0000
  F   F186      1.0  0.62025  0.11130  0.90795  1.0000
  F   F187      1.0  0.62438  0.61440  0.41628  1.0000
  F   F188      1.0  0.62733  0.61647  0.90589  1.0000
  F   F189      1.0  0.87449  0.14110  0.37516  1.0000
  F   F190      1.0  0.88149  0.11472  0.90102  1.0000
  F   F191      1.0  0.87629  0.62822  0.40633  1.0000
  F   F192      1.0  0.87604  0.60804  0.91019  1.0000
  F   F193      1.0  0.01123  0.36358  0.07471  1.0000
  F   F194      1.0  0.00860  0.35862  0.57730  1.0000
  F   F195      1.0  0.00270  0.86118  0.08208  1.0000
  F   F196      1.0  0.00550  0.86684  0.58204  1.0000
  F   F197      1.0  0.26269  0.37349  0.06191  1.0000
  F   F198      1.0  0.25481  0.35303  0.58116  1.0000
  F   F199      1.0  0.25327  0.87053  0.08332  1.0000
  F   F200      1.0  0.26257  0.86142  0.56649  1.0000
  F   F201      1.0  0.50946  0.35550  0.08505  1.0000
  F   F202      1.0  0.50943  0.36642  0.56005  1.0000
  F   F203      1.0  0.50990  0.85442  0.06109  1.0000
  F   F204      1.0  0.50437  0.87187  0.57925  1.0000
  F   F205      1.0  0.75795  0.36327  0.06296  1.0000
  F   F206      1.0  0.75736  0.36178  0.57445  1.0000
  F   F207      1.0  0.75552  0.85891  0.08460  1.0000
  F   F208      1.0  0.76040  0.87563  0.57352  1.0000
  F   F209      1.0  0.06450  0.48686  0.18727  1.0000
  F   F210      1.0  0.06571  0.48853  0.67952  1.0000
  F   F211      1.0  0.06936  0.97290  0.17600  1.0000
  F   F212      1.0  0.06849  0.00313  0.65547  1.0000
  F   F213      1.0  0.31228  0.48955  0.18465  1.0000
  F   F214      1.0  0.32176  0.47753  0.67933  1.0000
  F   F215      1.0  0.32047  0.99335  0.16170  1.0000
  F   F216      1.0  0.31400  0.99384  0.67330  1.0000
  F   F217      1.0  0.56894  0.48251  0.16890  1.0000
  F   F218      1.0  0.56940  0.48705  0.66845  1.0000
  F   F219      1.0  0.56665  0.98515  0.18055  1.0000
  F   F220      1.0  0.57190  0.97963  0.68545  1.0000
  F   F221      1.0  0.81294  0.48435  0.17783  1.0000
  F   F222      1.0  0.82946  0.47182  0.67183  1.0000
  F   F223      1.0  0.81582  0.98701  0.17918  1.0000
  F   F224      1.0  0.81316  0.97453  0.68938  1.0000
  F   F225      1.0  0.23963  0.15191  0.42228  1.0000
  F   F226      1.0  0.24532  0.14982  0.91041  1.0000
  F   F227      1.0  0.24177  0.63175  0.42963  1.0000
  F   F228      1.0  0.24317  0.64456  0.91745  1.0000
  F   F229      1.0  0.49710  0.12666  0.42186  1.0000
  F   F230      1.0  0.49038  0.14728  0.90902  1.0000
  F   F231      1.0  0.49447  0.63414  0.42499  1.0000
  F   F232      1.0  0.49207  0.63437  0.93288  1.0000
  F   F233      1.0  0.74069  0.14066  0.43161  1.0000
  F   F234      1.0  0.74471  0.13091  0.92457  1.0000
  F   F235      1.0  0.74440  0.63645  0.43216  1.0000
  F   F236      1.0  0.74214  0.64033  0.91341  1.0000
  F   F237      1.0  0.98418  0.15619  0.42420  1.0000
  F   F238      1.0  0.99427  0.14046  0.92373  1.0000
  F   F239      1.0  0.99648  0.64825  0.41827  1.0000
  F   F240      1.0  0.99111  0.64482  0.92449  1.0000
  F   F241      1.0  0.18363  0.02131  0.31362  1.0000
  F   F242      1.0  0.17820  0.02830  0.80350  1.0000
  F   F243      1.0  0.16912  0.52294  0.32555  1.0000
  F   F244      1.0  0.18044  0.51884  0.82835  1.0000
  F   F245      1.0  0.43179  0.01493  0.31880  1.0000
  F   F246      1.0  0.43395  0.01424  0.81823  1.0000
  F   F247      1.0  0.43172  0.52518  0.30548  1.0000
  F   F248      1.0  0.43938  0.51891  0.81022  1.0000
  F   F249      1.0  0.67980  0.01204  0.31932  1.0000
  F   F250      1.0  0.68187  0.99539  0.84070  1.0000
  F   F251      1.0  0.68069  0.50849  0.32783  1.0000
  F   F252      1.0  0.68001  0.50018  0.83291  1.0000
  F   F253      1.0  0.92841  0.00631  0.33378  1.0000
  F   F254      1.0  0.93149  0.01467  0.81820  1.0000
  F   F255      1.0  0.93543  0.50312  0.33427  1.0000
  F   F256      1.0  0.93833  0.51020  0.81173  1.0000
  F   F257      1.0  0.99672  0.24079  0.01150  1.0000
  F   F258      1.0  0.00321  0.27021  0.48141  1.0000
  F   F259      1.0  0.99688  0.76864  0.98341  1.0000
  F   F260      1.0  0.00275  0.74920  0.51417  1.0000
  F   F261      1.0  0.25095  0.26647  0.98525  1.0000
  F   F262      1.0  0.25227  0.25640  0.50165  1.0000
  F   F263      1.0  0.25172  0.75505  0.98890  1.0000
  F   F264      1.0  0.24601  0.76676  0.47434  1.0000
  F   F265      1.0  0.49629  0.24585  0.00223  1.0000
  F   F266      1.0  0.50116  0.24168  0.51175  1.0000
  F   F267      1.0  0.50247  0.75375  0.99091  1.0000
  F   F268      1.0  0.49901  0.74868  0.49501  1.0000
  F   F269      1.0  0.74512  0.23370  0.00664  1.0000
  F   F270      1.0  0.74779  0.24570  0.50631  1.0000
  F   F271      1.0  0.74191  0.71758  0.01595  1.0000
  F   F272      1.0  0.75387  0.75467  0.50238  1.0000
  F   F273      1.0  0.12426  0.00756  0.25215  1.0000
  F   F274      1.0  0.11167  0.99821  0.76676  1.0000
  F   F275      1.0  0.11846  0.49597  0.25837  1.0000
  F   F276      1.0  0.11930  0.49650  0.75329  1.0000
  F   F277      1.0  0.36757  0.00149  0.25002  1.0000
  F   F278      1.0  0.37611  0.00086  0.75206  1.0000
  F   F279      1.0  0.36852  0.49627  0.25517  1.0000
  F   F280      1.0  0.38355  0.50216  0.73056  1.0000
  F   F281      1.0  0.62301  0.98325  0.25409  1.0000
  F   F282      1.0  0.63575  0.01164  0.73600  1.0000
  F   F283      1.0  0.62785  0.50166  0.25159  1.0000
  F   F284      1.0  0.62349  0.48907  0.74946  1.0000
  F   F285      1.0  0.86918  0.98516  0.27651  1.0000
  F   F286      1.0  0.87329  0.98953  0.75031  1.0000
  F   F287      1.0  0.87746  0.49136  0.24931  1.0000
  F   F288      1.0  0.87171  0.48568  0.76476  1.0000
  F   F289      1.0  0.04153  0.01691  0.01224  1.0000
  F   F290      1.0  0.03707  0.03395  0.50995  1.0000
  F   F291      1.0  0.04000  0.54556  0.02438  1.0000
  F   F292      1.0  0.04445  0.52329  0.51895  1.0000
  F   F293      1.0  0.29050  0.04513  0.01834  1.0000
  F   F294      1.0  0.29594  0.03593  0.51166  1.0000
  F   F295      1.0  0.29988  0.53956  0.00745  1.0000
  F   F296      1.0  0.29725  0.52083  0.51678  1.0000
  F   F297      1.0  0.53661  0.01133  0.02836  1.0000
  F   F298      1.0  0.54718  0.03229  0.53187  1.0000
  F   F299      1.0  0.53740  0.52280  0.03572  1.0000
  F   F300      1.0  0.54523  0.52920  0.50787  1.0000
  F   F301      1.0  0.79625  0.02457  0.01712  1.0000
  F   F302      1.0  0.79113  0.03593  0.53685  1.0000
  F   F303      1.0  0.79927  0.52187  0.01339  1.0000
  F   F304      1.0  0.79671  0.52632  0.52994  1.0000
  F   F305      1.0  0.23597  0.43088  0.21603  1.0000
  F   F306      1.0  0.23469  0.43708  0.71599  1.0000
  F   F307      1.0  0.23536  0.91668  0.23572  1.0000
  F   F308      1.0  0.23665  0.89915  0.73126  1.0000
  F   F309      1.0  0.48646  0.41159  0.23141  1.0000
  F   F310      1.0  0.48936  0.40987  0.71802  1.0000
  F   F311      1.0  0.48231  0.91227  0.21534  1.0000
  F   F312      1.0  0.48395  0.91408  0.73152  1.0000
  F   F313      1.0  0.73453  0.42920  0.22030  1.0000
  F   F314      1.0  0.73781  0.40141  0.72896  1.0000
  F   F315      1.0  0.73872  0.90832  0.22515  1.0000
  F   F316      1.0  0.73194  0.90906  0.73069  1.0000
  F   F317      1.0  0.98748  0.40562  0.23003  1.0000
  F   F318      1.0  0.98997  0.41708  0.72778  1.0000
  F   F319      1.0  0.98305  0.90110  0.23986  1.0000
  F   F320      1.0  0.98395  0.91941  0.71965  1.0000
  F   F321      1.0  0.20556  0.47684  0.46254  1.0000
  F   F322      1.0  0.20368  0.47953  0.98136  1.0000
  F   F323      1.0  0.20673  0.96344  0.47203  1.0000
  F   F324      1.0  0.19624  0.98960  0.98093  1.0000
  F   F325      1.0  0.45143  0.47676  0.48344  1.0000
  F   F326      1.0  0.45420  0.46468  0.97557  1.0000
  F   F327      1.0  0.45131  0.95972  0.47621  1.0000
  F   F328      1.0  0.44569  0.97379  0.98501  1.0000
  F   F329      1.0  0.71267  0.46372  0.47905  1.0000
  F   F330      1.0  0.69630  0.46799  0.98429  1.0000
  F   F331      1.0  0.69846  0.96020  0.48094  1.0000
  F   F332      1.0  0.71432  0.95698  0.97373  1.0000
  F   F333      1.0  0.95916  0.47104  0.49662  1.0000
  F   F334      1.0  0.96286  0.48069  0.97209  1.0000
  F   F335      1.0  0.95839  0.95701  0.48660  1.0000
  F   F336      1.0  0.95820  0.96689  0.98002  1.0000
  F   F337      1.0  0.00810  0.06563  0.29720  1.0000
  F   F338      1.0  0.01660  0.07888  0.77794  1.0000
  F   F339      1.0  0.01057  0.59642  0.27125  1.0000
  F   F340      1.0  0.01857  0.58919  0.77282  1.0000
  F   F341      1.0  0.26678  0.09013  0.27014  1.0000
  F   F342      1.0  0.26652  0.07972  0.78688  1.0000
  F   F343      1.0  0.26054  0.59821  0.26564  1.0000
  F   F344      1.0  0.26571  0.56450  0.79013  1.0000
  F   F345      1.0  0.51423  0.09069  0.27424  1.0000
  F   F346      1.0  0.51908  0.09610  0.76367  1.0000
  F   F347      1.0  0.51728  0.58235  0.26789  1.0000
  F   F348      1.0  0.51642  0.58192  0.79165  1.0000
  F   F349      1.0  0.76202  0.08567  0.28864  1.0000
  F   F350      1.0  0.76406  0.07623  0.78152  1.0000
  F   F351      1.0  0.76445  0.59078  0.28019  1.0000
  F   F352      1.0  0.77398  0.57744  0.75646  1.0000
  F   F353      1.0  0.10027  0.39734  0.46140  1.0000
  F   F354      1.0  0.09873  0.40460  0.96044  1.0000
  F   F355      1.0  0.09352  0.92658  0.46089  1.0000
  F   F356      1.0  0.10171  0.89142  0.96647  1.0000
  F   F357      1.0  0.35254  0.40670  0.46409  1.0000
  F   F358      1.0  0.35951  0.41092  0.95308  1.0000
  F   F359      1.0  0.35397  0.91189  0.44745  1.0000
  F   F360      1.0  0.34877  0.91867  0.95897  1.0000
  F   F361      1.0  0.60199  0.39361  0.47012  1.0000
  F   F362      1.0  0.59714  0.38961  0.98036  1.0000
  F   F363      1.0  0.60373  0.90754  0.47030  1.0000
  F   F364      1.0  0.60188  0.89102  0.95941  1.0000
  F   F365      1.0  0.84849  0.42212  0.45931  1.0000
  F   F366      1.0  0.85297  0.39994  0.95335  1.0000
  F   F367      1.0  0.85107  0.89495  0.48101  1.0000
  F   F368      1.0  0.84979  0.89831  0.96160  1.0000
  F   F369      1.0  0.05109  0.29993  0.27023  1.0000
  F   F370      1.0  0.04504  0.29666  0.79241  1.0000
  F   F371      1.0  0.04461  0.79883  0.29792  1.0000
  F   F372      1.0  0.04253  0.79754  0.79302  1.0000
  F   F373      1.0  0.29375  0.31327  0.28799  1.0000
  F   F374      1.0  0.28992  0.30877  0.78400  1.0000
  F   F375      1.0  0.28998  0.79859  0.28192  1.0000
  F   F376      1.0  0.30387  0.80919  0.77119  1.0000
  F   F377      1.0  0.53798  0.29852  0.28943  1.0000
  F   F378      1.0  0.54635  0.29397  0.79731  1.0000
  F   F379      1.0  0.54374  0.81467  0.27811  1.0000
  F   F380      1.0  0.54501  0.78689  0.80401  1.0000
  F   F381      1.0  0.80205  0.29788  0.28939  1.0000
  F   F382      1.0  0.78603  0.29940  0.80008  1.0000
  F   F383      1.0  0.79899  0.79387  0.30029  1.0000
  F   F384      1.0  0.79968  0.77747  0.79013  1.0000
