data_image0
_chemical_formula_structural       Hf96F384
_chemical_formula_sum              "Hf96 F384"
_cell_length_a       31.0036
_cell_length_b       15.5043
_cell_length_c       15.4975
_cell_angle_alpha    63.342
_cell_angle_beta     63.342
_cell_angle_gamma    80.1625

_space_group_name_H-M_alt    "P 1"
_space_group_IT_number       1

loop_
  _space_group_symop_operation_xyz
  'x, y, z'

loop_
  _atom_site_type_symbol
  _atom_site_label
  _atom_site_symmetry_multiplicity
  _atom_site_fract_x
  _atom_site_fract_y
  _atom_site_fract_z
  _atom_site_occupancy
  Hf  Hf1       1.0  0.19911  0.10838  0.37011  1.0000
  Hf  Hf2       1.0  0.19472  0.10584  0.87707  1.0000
  Hf  Hf3       1.0  0.19738  0.61076  0.37819  1.0000
  Hf  Hf4       1.0  0.19518  0.61510  0.87872  1.0000
  Hf  Hf5       1.0  0.44540  0.10056  0.37722  1.0000
  Hf  Hf6       1.0  0.44504  0.10987  0.87310  1.0000
  Hf  Hf7       1.0  0.44659  0.61016  0.36938  1.0000
  Hf  Hf8       1.0  0.44938  0.60924  0.87522  1.0000
  Hf  Hf9       1.0  0.69979  0.10689  0.36938  1.0000
  Hf  Hf10      1.0  0.69849  0.10790  0.87448  1.0000
  Hf  Hf11      1.0  0.69508  0.60233  0.38115  1.0000
  Hf  Hf12      1.0  0.69593  0.60717  0.87626  1.0000
  Hf  Hf13      1.0  0.94779  0.10430  0.37978  1.0000
  Hf  Hf14      1.0  0.94621  0.11302  0.87195  1.0000
  Hf  Hf15      1.0  0.94619  0.61458  0.37372  1.0000
  Hf  Hf16      1.0  0.94513  0.61048  0.87399  1.0000
  Hf  Hf17      1.0  0.05459  0.39777  0.12138  1.0000
  Hf  Hf18      1.0  0.05316  0.38726  0.62048  1.0000
  Hf  Hf19      1.0  0.05297  0.89142  0.13441  1.0000
  Hf  Hf20      1.0  0.05579  0.88880  0.62667  1.0000
  Hf  Hf21      1.0  0.30755  0.38951  0.12659  1.0000
  Hf  Hf22      1.0  0.30322  0.39358  0.62201  1.0000
  Hf  Hf23      1.0  0.30229  0.89145  0.13073  1.0000
  Hf  Hf24      1.0  0.30144  0.88569  0.63567  1.0000
  Hf  Hf25      1.0  0.55006  0.38935  0.12897  1.0000
  Hf  Hf26      1.0  0.55594  0.39587  0.61904  1.0000
  Hf  Hf27      1.0  0.55363  0.89489  0.12108  1.0000
  Hf  Hf28      1.0  0.55264  0.89502  0.63081  1.0000
  Hf  Hf29      1.0  0.80527  0.38505  0.12903  1.0000
  Hf  Hf30      1.0  0.80374  0.39301  0.62684  1.0000
  Hf  Hf31      1.0  0.80420  0.89364  0.12336  1.0000
  Hf  Hf32      1.0  0.80247  0.88973  0.62402  1.0000
  Hf  Hf33      1.0  0.05629  0.18474  0.41016  1.0000
  Hf  Hf34      1.0  0.05487  0.18043  0.91970  1.0000
  Hf  Hf35      1.0  0.05805  0.68708  0.41483  1.0000
  Hf  Hf36      1.0  0.05299  0.68308  0.92770  1.0000
  Hf  Hf37      1.0  0.30647  0.17651  0.41283  1.0000
  Hf  Hf38      1.0  0.30484  0.18109  0.91455  1.0000
  Hf  Hf39      1.0  0.30759  0.67587  0.41777  1.0000
  Hf  Hf40      1.0  0.30248  0.67962  0.92449  1.0000
  Hf  Hf41      1.0  0.55769  0.18429  0.41910  1.0000
  Hf  Hf42      1.0  0.55691  0.18070  0.91289  1.0000
  Hf  Hf43      1.0  0.55440  0.68878  0.41559  1.0000
  Hf  Hf44      1.0  0.55576  0.68398  0.91843  1.0000
  Hf  Hf45      1.0  0.80584  0.18576  0.41612  1.0000
  Hf  Hf46      1.0  0.80638  0.18345  0.92058  1.0000
  Hf  Hf47      1.0  0.80687  0.68602  0.41164  1.0000
  Hf  Hf48      1.0  0.80449  0.68117  0.92032  1.0000
  Hf  Hf49      1.0  0.15909  0.38836  0.33171  1.0000
  Hf  Hf50      1.0  0.16130  0.39019  0.82911  1.0000
  Hf  Hf51      1.0  0.16025  0.88954  0.33572  1.0000
  Hf  Hf52      1.0  0.15533  0.89008  0.83348  1.0000
  Hf  Hf53      1.0  0.40953  0.38253  0.33173  1.0000
  Hf  Hf54      1.0  0.41009  0.39593  0.82987  1.0000
  Hf  Hf55      1.0  0.40797  0.88779  0.33507  1.0000
  Hf  Hf56      1.0  0.40649  0.88826  0.83590  1.0000
  Hf  Hf57      1.0  0.66195  0.39041  0.33157  1.0000
  Hf  Hf58      1.0  0.65874  0.38131  0.83788  1.0000
  Hf  Hf59      1.0  0.65982  0.88247  0.33261  1.0000
  Hf  Hf60      1.0  0.65885  0.89372  0.83087  1.0000
  Hf  Hf61      1.0  0.90652  0.39245  0.32948  1.0000
  Hf  Hf62      1.0  0.90980  0.38972  0.83019  1.0000
  Hf  Hf63      1.0  0.90676  0.89617  0.33453  1.0000
  Hf  Hf64      1.0  0.90925  0.88461  0.83494  1.0000
  Hf  Hf65      1.0  0.19532  0.31972  0.08175  1.0000
  Hf  Hf66      1.0  0.19689  0.31801  0.57465  1.0000
  Hf  Hf67      1.0  0.19151  0.81687  0.07968  1.0000
  Hf  Hf68      1.0  0.19684  0.81101  0.58452  1.0000
  Hf  Hf69      1.0  0.44379  0.31268  0.08471  1.0000
  Hf  Hf70      1.0  0.43969  0.31932  0.58691  1.0000
  Hf  Hf71      1.0  0.44413  0.82323  0.07936  1.0000
  Hf  Hf72      1.0  0.44230  0.81116  0.58904  1.0000
  Hf  Hf73      1.0  0.69149  0.31289  0.09143  1.0000
  Hf  Hf74      1.0  0.69659  0.31611  0.58321  1.0000
  Hf  Hf75      1.0  0.69525  0.81698  0.08211  1.0000
  Hf  Hf76      1.0  0.69660  0.81845  0.58055  1.0000
  Hf  Hf77      1.0  0.94478  0.32168  0.08000  1.0000
  Hf  Hf78      1.0  0.94419  0.31975  0.56974  1.0000
  Hf  Hf79      1.0  0.94215  0.81958  0.08575  1.0000
  Hf  Hf80      1.0  0.94228  0.81850  0.58873  1.0000
  Hf  Hf81      1.0  0.09426  0.11787  0.15819  1.0000
  Hf  Hf82      1.0  0.09304  0.11789  0.65701  1.0000
  Hf  Hf83      1.0  0.09074  0.60946  0.17137  1.0000
  Hf  Hf84      1.0  0.08947  0.60524  0.67667  1.0000
  Hf  Hf85      1.0  0.34103  0.11372  0.16098  1.0000
  Hf  Hf86      1.0  0.33989  0.11382  0.66410  1.0000
  Hf  Hf87      1.0  0.34305  0.60979  0.17131  1.0000
  Hf  Hf88      1.0  0.33583  0.60433  0.67958  1.0000
  Hf  Hf89      1.0  0.59610  0.10815  0.16440  1.0000
  Hf  Hf90      1.0  0.59292  0.10968  0.66562  1.0000
  Hf  Hf91      1.0  0.58851  0.61078  0.16975  1.0000
  Hf  Hf92      1.0  0.59062  0.61470  0.66969  1.0000
  Hf  Hf93      1.0  0.84174  0.10746  0.16503  1.0000
  Hf  Hf94      1.0  0.84245  0.11306  0.66490  1.0000
  Hf  Hf95      1.0  0.84087  0.61653  0.16107  1.0000
  Hf  Hf96      1.0  0.84061  0.61030  0.66560  1.0000
  F   F1        1.0  0.07770  0.13080  0.29406  1.0000
  F   F2        1.0  0.08008  0.12683  0.80001  1.0000
  F   F3        1.0  0.07830  0.63155  0.30835  1.0000
  F   F4        1.0  0.07338  0.61154  0.82222  1.0000
  F   F5        1.0  0.32262  0.11942  0.31183  1.0000
  F   F6        1.0  0.32200  0.12560  0.80312  1.0000
  F   F7        1.0  0.33303  0.61174  0.31461  1.0000
  F   F8        1.0  0.33071  0.64978  0.79315  1.0000
  F   F9        1.0  0.57942  0.12384  0.31179  1.0000
  F   F10       1.0  0.57532  0.10856  0.81286  1.0000
  F   F11       1.0  0.58234  0.64265  0.28720  1.0000
  F   F12       1.0  0.58318  0.63359  0.80187  1.0000
  F   F13       1.0  0.83056  0.12726  0.30236  1.0000
  F   F14       1.0  0.82442  0.12362  0.80921  1.0000
  F   F15       1.0  0.83634  0.62871  0.29919  1.0000
  F   F16       1.0  0.81982  0.62058  0.81187  1.0000
  F   F17       1.0  0.18607  0.33698  0.44213  1.0000
  F   F18       1.0  0.18818  0.33833  0.94139  1.0000
  F   F19       1.0  0.18624  0.82999  0.45824  1.0000
  F   F20       1.0  0.17701  0.83489  0.95679  1.0000
  F   F21       1.0  0.42931  0.33018  0.45026  1.0000
  F   F22       1.0  0.43938  0.35034  0.93770  1.0000
  F   F23       1.0  0.43209  0.84408  0.45421  1.0000
  F   F24       1.0  0.43288  0.84390  0.94880  1.0000
  F   F25       1.0  0.68729  0.34356  0.44780  1.0000
  F   F26       1.0  0.68533  0.34678  0.94513  1.0000
  F   F27       1.0  0.69136  0.83936  0.43831  1.0000
  F   F28       1.0  0.68067  0.85289  0.94818  1.0000
  F   F29       1.0  0.94128  0.34804  0.43108  1.0000
  F   F30       1.0  0.93750  0.34306  0.93598  1.0000
  F   F31       1.0  0.92478  0.83141  0.46209  1.0000
  F   F32       1.0  0.93338  0.83797  0.95406  1.0000
  F   F33       1.0  0.17390  0.38367  0.18457  1.0000
  F   F34       1.0  0.16512  0.35953  0.69861  1.0000
  F   F35       1.0  0.16730  0.85861  0.20791  1.0000
  F   F36       1.0  0.16272  0.86167  0.70474  1.0000
  F   F37       1.0  0.42157  0.37152  0.19960  1.0000
  F   F38       1.0  0.41886  0.37692  0.70182  1.0000
  F   F39       1.0  0.42407  0.86857  0.20135  1.0000
  F   F40       1.0  0.42053  0.88092  0.68403  1.0000
  F   F41       1.0  0.66951  0.36352  0.20327  1.0000
  F   F42       1.0  0.67164  0.37908  0.69270  1.0000
  F   F43       1.0  0.66797  0.86249  0.19449  1.0000
  F   F44       1.0  0.66965  0.87073  0.69156  1.0000
  F   F45       1.0  0.92135  0.36854  0.19669  1.0000
  F   F46       1.0  0.91858  0.36326  0.69116  1.0000
  F   F47       1.0  0.91946  0.86991  0.19928  1.0000
  F   F48       1.0  0.92438  0.87755  0.69134  1.0000
  F   F49       1.0  0.06267  0.15500  0.05329  1.0000
  F   F50       1.0  0.07242  0.17135  0.53765  1.0000
  F   F51       1.0  0.05682  0.65425  0.07163  1.0000
  F   F52       1.0  0.06229  0.66155  0.55693  1.0000
  F   F53       1.0  0.30940  0.14479  0.06353  1.0000
  F   F54       1.0  0.31622  0.15505  0.54566  1.0000
  F   F55       1.0  0.31190  0.66698  0.05706  1.0000
  F   F56       1.0  0.31208  0.64670  0.55803  1.0000
  F   F57       1.0  0.57492  0.15643  0.04010  1.0000
  F   F58       1.0  0.56413  0.16448  0.54965  1.0000
  F   F59       1.0  0.55927  0.65430  0.05694  1.0000
  F   F60       1.0  0.56225  0.66330  0.55846  1.0000
  F   F61       1.0  0.81525  0.15591  0.05415  1.0000
  F   F62       1.0  0.81605  0.16194  0.54859  1.0000
  F   F63       1.0  0.81807  0.66742  0.04310  1.0000
  F   F64       1.0  0.81844  0.65011  0.54753  1.0000
  F   F65       1.0  0.21002  0.20298  0.19154  1.0000
  F   F66       1.0  0.20343  0.20263  0.70458  1.0000
  F   F67       1.0  0.20891  0.68925  0.21435  1.0000
  F   F68       1.0  0.21146  0.70247  0.71321  1.0000
  F   F69       1.0  0.45570  0.19159  0.19845  1.0000
  F   F70       1.0  0.44955  0.20748  0.71056  1.0000
  F   F71       1.0  0.45606  0.70729  0.20750  1.0000
  F   F72       1.0  0.45764  0.70432  0.70646  1.0000
  F   F73       1.0  0.70092  0.19942  0.21081  1.0000
  F   F74       1.0  0.70410  0.20481  0.72506  1.0000
  F   F75       1.0  0.70389  0.70094  0.21629  1.0000
  F   F76       1.0  0.70895  0.70951  0.72092  1.0000
  F   F77       1.0  0.95099  0.19918  0.21120  1.0000
  F   F78       1.0  0.95009  0.19398  0.70413  1.0000
  F   F79       1.0  0.95633  0.71230  0.20352  1.0000
  F   F80       1.0  0.95996  0.71454  0.72186  1.0000
  F   F81       1.0  0.15354  0.08100  0.03541  1.0000
  F   F82       1.0  0.15039  0.09417  0.52498  1.0000
  F   F83       1.0  0.14597  0.60229  0.03361  1.0000
  F   F84       1.0  0.15067  0.58997  0.54184  1.0000
  F   F85       1.0  0.39502  0.08204  0.03984  1.0000
  F   F86       1.0  0.39750  0.08212  0.53344  1.0000
  F   F87       1.0  0.39899  0.62187  0.03224  1.0000
  F   F88       1.0  0.39186  0.58840  0.54318  1.0000
  F   F89       1.0  0.65059  0.09050  0.04353  1.0000
  F   F90       1.0  0.64591  0.08373  0.54612  1.0000
  F   F91       1.0  0.63734  0.59528  0.05089  1.0000
  F   F92       1.0  0.65251  0.59391  0.54395  1.0000
  F   F93       1.0  0.90096  0.08500  0.03019  1.0000
  F   F94       1.0  0.90217  0.08125  0.53937  1.0000
  F   F95       1.0  0.89455  0.58463  0.04006  1.0000
  F   F96       1.0  0.90421  0.60243  0.53327  1.0000
  F   F97       1.0  0.15784  0.18894  0.10834  1.0000
  F   F98       1.0  0.15285  0.19694  0.61191  1.0000
  F   F99       1.0  0.15179  0.69140  0.13601  1.0000
  F   F100      1.0  0.14921  0.69139  0.63285  1.0000
  F   F101      1.0  0.39669  0.19611  0.11747  1.0000
  F   F102      1.0  0.40024  0.18969  0.63184  1.0000
  F   F103      1.0  0.40498  0.70803  0.12105  1.0000
  F   F104      1.0  0.40404  0.68806  0.62199  1.0000
  F   F105      1.0  0.64899  0.19580  0.12794  1.0000
  F   F106      1.0  0.65764  0.19290  0.62330  1.0000
  F   F107      1.0  0.65132  0.70656  0.11753  1.0000
  F   F108      1.0  0.65563  0.70377  0.62787  1.0000
  F   F109      1.0  0.90386  0.19659  0.09360  1.0000
  F   F110      1.0  0.90426  0.19439  0.61189  1.0000
  F   F111      1.0  0.90639  0.68659  0.11459  1.0000
  F   F112      1.0  0.90332  0.69434  0.65037  1.0000
  F   F113      1.0  0.10726  0.29928  0.35379  1.0000
  F   F114      1.0  0.10031  0.30551  0.88314  1.0000
  F   F115      1.0  0.09559  0.80256  0.37266  1.0000
  F   F116      1.0  0.09860  0.79664  0.90468  1.0000
  F   F117      1.0  0.35765  0.28510  0.37280  1.0000
  F   F118      1.0  0.34757  0.29924  0.87697  1.0000
  F   F119      1.0  0.35142  0.79594  0.36511  1.0000
  F   F120      1.0  0.34893  0.80174  0.86568  1.0000
  F   F121      1.0  0.60420  0.30867  0.37729  1.0000
  F   F122      1.0  0.59847  0.30288  0.87627  1.0000
  F   F123      1.0  0.59314  0.80591  0.36276  1.0000
  F   F124      1.0  0.59837  0.80823  0.87033  1.0000
  F   F125      1.0  0.84797  0.30034  0.37566  1.0000
  F   F126      1.0  0.85199  0.30138  0.89509  1.0000
  F   F127      1.0  0.84293  0.80228  0.38362  1.0000
  F   F128      1.0  0.84729  0.80208  0.86063  1.0000
  F   F129      1.0  0.06483  0.24986  0.13525  1.0000
  F   F130      1.0  0.05990  0.24965  0.64129  1.0000
  F   F131      1.0  0.06830  0.74911  0.13529  1.0000
  F   F132      1.0  0.06199  0.74328  0.65535  1.0000
  F   F133      1.0  0.31867  0.26229  0.12278  1.0000
  F   F134      1.0  0.32263  0.25755  0.62042  1.0000
  F   F135      1.0  0.31985  0.75614  0.14351  1.0000
  F   F136      1.0  0.30923  0.75122  0.63813  1.0000
  F   F137      1.0  0.56096  0.25049  0.15462  1.0000
  F   F138      1.0  0.57512  0.25288  0.63250  1.0000
  F   F139      1.0  0.55965  0.75349  0.13656  1.0000
  F   F140      1.0  0.56471  0.75248  0.64555  1.0000
  F   F141      1.0  0.82057  0.24518  0.13874  1.0000
  F   F142      1.0  0.81018  0.25243  0.64501  1.0000
  F   F143      1.0  0.81755  0.75411  0.14186  1.0000
  F   F144      1.0  0.82268  0.75027  0.62263  1.0000
  F   F145      1.0  0.12302  0.35712  0.11546  1.0000
  F   F146      1.0  0.12225  0.37591  0.59547  1.0000
  F   F147      1.0  0.12281  0.86845  0.10767  1.0000
  F   F148      1.0  0.12681  0.87448  0.60108  1.0000
  F   F149      1.0  0.37689  0.35698  0.12050  1.0000
  F   F150      1.0  0.37235  0.37576  0.60541  1.0000
  F   F151      1.0  0.37559  0.88378  0.10415  1.0000
  F   F152      1.0  0.36996  0.85706  0.61430  1.0000
  F   F153      1.0  0.62428  0.35875  0.11142  1.0000
  F   F154      1.0  0.62669  0.37188  0.60825  1.0000
  F   F155      1.0  0.62095  0.87794  0.10154  1.0000
  F   F156      1.0  0.62358  0.88489  0.60087  1.0000
  F   F157      1.0  0.87129  0.34773  0.13299  1.0000
  F   F158      1.0  0.87113  0.36763  0.59941  1.0000
  F   F159      1.0  0.87322  0.88174  0.09955  1.0000
  F   F160      1.0  0.87341  0.88517  0.60308  1.0000
  F   F161      1.0  0.19093  0.24391  0.34749  1.0000
  F   F162      1.0  0.18959  0.24553  0.84526  1.0000
  F   F163      1.0  0.18560  0.75016  0.36122  1.0000
  F   F164      1.0  0.18950  0.74612  0.86385  1.0000
  F   F165      1.0  0.44441  0.24257  0.33867  1.0000
  F   F166      1.0  0.43592  0.24689  0.86343  1.0000
  F   F167      1.0  0.43287  0.74110  0.37410  1.0000
  F   F168      1.0  0.44022  0.75537  0.83850  1.0000
  F   F169      1.0  0.68743  0.24630  0.35402  1.0000
  F   F170      1.0  0.69216  0.25012  0.85880  1.0000
  F   F171      1.0  0.68298  0.74429  0.36139  1.0000
  F   F172      1.0  0.67986  0.74922  0.88076  1.0000
  F   F173      1.0  0.93582  0.25884  0.34718  1.0000
  F   F174      1.0  0.93980  0.25094  0.84660  1.0000
  F   F175      1.0  0.92524  0.74731  0.36519  1.0000
  F   F176      1.0  0.91995  0.73912  0.88646  1.0000
  F   F177      1.0  0.12984  0.12859  0.37099  1.0000
  F   F178      1.0  0.11890  0.13197  0.89635  1.0000
  F   F179      1.0  0.12433  0.62090  0.39469  1.0000
  F   F180      1.0  0.12509  0.64537  0.88465  1.0000
  F   F181      1.0  0.37776  0.13276  0.37769  1.0000
  F   F182      1.0  0.37286  0.13924  0.88332  1.0000
  F   F183      1.0  0.37557  0.61823  0.39994  1.0000
  F   F184      1.0  0.37593  0.62203  0.90276  1.0000
  F   F185      1.0  0.62972  0.11874  0.39013  1.0000
  F   F186      1.0  0.62738  0.12784  0.88956  1.0000
  F   F187      1.0  0.62325  0.62293  0.39617  1.0000
  F   F188      1.0  0.62555  0.63188  0.90173  1.0000
  F   F189      1.0  0.87526  0.13491  0.38966  1.0000
  F   F190      1.0  0.87717  0.14597  0.88380  1.0000
  F   F191      1.0  0.87383  0.62023  0.39856  1.0000
  F   F192      1.0  0.87231  0.63357  0.88174  1.0000
  F   F193      1.0  0.00845  0.36611  0.06479  1.0000
  F   F194      1.0  0.00656  0.36628  0.57184  1.0000
  F   F195      1.0  0.00646  0.86103  0.08639  1.0000
  F   F196      1.0  0.01041  0.86527  0.58445  1.0000
  F   F197      1.0  0.26003  0.35649  0.06629  1.0000
  F   F198      1.0  0.25510  0.35671  0.58123  1.0000
  F   F199      1.0  0.25077  0.85426  0.09162  1.0000
  F   F200      1.0  0.25200  0.86942  0.58043  1.0000
  F   F201      1.0  0.50686  0.35491  0.07709  1.0000
  F   F202      1.0  0.50576  0.36657  0.57757  1.0000
  F   F203      1.0  0.50337  0.87018  0.07509  1.0000
  F   F204      1.0  0.51089  0.85745  0.57635  1.0000
  F   F205      1.0  0.75468  0.35437  0.08294  1.0000
  F   F206      1.0  0.75653  0.35748  0.57417  1.0000
  F   F207      1.0  0.75919  0.85710  0.07852  1.0000
  F   F208      1.0  0.75973  0.86280  0.56801  1.0000
  F   F209      1.0  0.07475  0.47261  0.17897  1.0000
  F   F210      1.0  0.06841  0.48458  0.68252  1.0000
  F   F211      1.0  0.07161  0.98593  0.17869  1.0000
  F   F212      1.0  0.06777  0.99302  0.67278  1.0000
  F   F213      1.0  0.31941  0.48705  0.17387  1.0000
  F   F214      1.0  0.30994  0.47629  0.68925  1.0000
  F   F215      1.0  0.31194  0.97853  0.19096  1.0000
  F   F216      1.0  0.31293  0.97383  0.68604  1.0000
  F   F217      1.0  0.56726  0.47567  0.17713  1.0000
  F   F218      1.0  0.57089  0.49276  0.66321  1.0000
  F   F219      1.0  0.57407  0.98917  0.17158  1.0000
  F   F220      1.0  0.56509  0.99012  0.68182  1.0000
  F   F221      1.0  0.81542  0.47898  0.18453  1.0000
  F   F222      1.0  0.82153  0.47600  0.68291  1.0000
  F   F223      1.0  0.81630  0.97941  0.19322  1.0000
  F   F224      1.0  0.81839  0.98527  0.67919  1.0000
  F   F225      1.0  0.23965  0.14862  0.42310  1.0000
  F   F226      1.0  0.24078  0.12731  0.93258  1.0000
  F   F227      1.0  0.23994  0.64064  0.42874  1.0000
  F   F228      1.0  0.23992  0.64135  0.93301  1.0000
  F   F229      1.0  0.48944  0.13740  0.44037  1.0000
  F   F230      1.0  0.49444  0.14075  0.92511  1.0000
  F   F231      1.0  0.48719  0.62877  0.43186  1.0000
  F   F232      1.0  0.49737  0.64758  0.90564  1.0000
  F   F233      1.0  0.74224  0.13818  0.43353  1.0000
  F   F234      1.0  0.74497  0.13394  0.93236  1.0000
  F   F235      1.0  0.74072  0.64493  0.42664  1.0000
  F   F236      1.0  0.73547  0.63609  0.94106  1.0000
  F   F237      1.0  0.98933  0.14116  0.43047  1.0000
  F   F238      1.0  0.99606  0.13389  0.92403  1.0000
  F   F239      1.0  0.99102  0.64648  0.42975  1.0000
  F   F240      1.0  0.98850  0.65152  0.92325  1.0000
  F   F241      1.0  0.18457  0.01495  0.32248  1.0000
  F   F242      1.0  0.17823  0.01654  0.82864  1.0000
  F   F243      1.0  0.18339  0.51145  0.32270  1.0000
  F   F244      1.0  0.18362  0.52454  0.82275  1.0000
  F   F245      1.0  0.42612  0.01304  0.33264  1.0000
  F   F246      1.0  0.42780  0.01807  0.83041  1.0000
  F   F247      1.0  0.43072  0.50894  0.32604  1.0000
  F   F248      1.0  0.43746  0.52255  0.80066  1.0000
  F   F249      1.0  0.68501  0.01918  0.31471  1.0000
  F   F250      1.0  0.68738  0.02107  0.80840  1.0000
  F   F251      1.0  0.68528  0.52613  0.31664  1.0000
  F   F252      1.0  0.68048  0.51285  0.82783  1.0000
  F   F253      1.0  0.93142  0.01742  0.33336  1.0000
  F   F254      1.0  0.92823  0.00724  0.83321  1.0000
  F   F255      1.0  0.93169  0.52957  0.31424  1.0000
  F   F256      1.0  0.93139  0.51536  0.82083  1.0000
  F   F257      1.0  0.99989  0.24863  0.99773  1.0000
  F   F258      1.0  0.00347  0.25621  0.49297  1.0000
  F   F259      1.0  0.99775  0.76722  0.99495  1.0000
  F   F260      1.0  0.99973  0.76307  0.49856  1.0000
  F   F261      1.0  0.25131  0.25841  0.98405  1.0000
  F   F262      1.0  0.25438  0.25363  0.48850  1.0000
  F   F263      1.0  0.25263  0.75895  0.99257  1.0000
  F   F264      1.0  0.25604  0.75436  0.48945  1.0000
  F   F265      1.0  0.50009  0.24945  0.99763  1.0000
  F   F266      1.0  0.49877  0.24233  0.50765  1.0000
  F   F267      1.0  0.49919  0.74692  0.00139  1.0000
  F   F268      1.0  0.49921  0.76391  0.49439  1.0000
  F   F269      1.0  0.75562  0.25747  0.99670  1.0000
  F   F270      1.0  0.75295  0.26489  0.48825  1.0000
  F   F271      1.0  0.75394  0.75618  0.99754  1.0000
  F   F272      1.0  0.75173  0.74456  0.51154  1.0000
  F   F273      1.0  0.12703  0.99933  0.24913  1.0000
  F   F274      1.0  0.12990  0.00755  0.73816  1.0000
  F   F275      1.0  0.12595  0.50710  0.25271  1.0000
  F   F276      1.0  0.12626  0.50187  0.75442  1.0000
  F   F277      1.0  0.37163  0.99845  0.25019  1.0000
  F   F278      1.0  0.37025  0.99472  0.75575  1.0000
  F   F279      1.0  0.38181  0.50358  0.23889  1.0000
  F   F280      1.0  0.36605  0.49606  0.76504  1.0000
  F   F281      1.0  0.62778  0.99829  0.24890  1.0000
  F   F282      1.0  0.62413  0.98982  0.74363  1.0000
  F   F283      1.0  0.62566  0.49771  0.25514  1.0000
  F   F284      1.0  0.61968  0.50076  0.76263  1.0000
  F   F285      1.0  0.87767  0.00598  0.24559  1.0000
  F   F286      1.0  0.87949  0.01012  0.74508  1.0000
  F   F287      1.0  0.87605  0.50136  0.24851  1.0000
  F   F288      1.0  0.87757  0.50048  0.73832  1.0000
  F   F289      1.0  0.03500  0.03196  0.03545  1.0000
  F   F290      1.0  0.04357  0.04336  0.51540  1.0000
  F   F291      1.0  0.03808  0.53357  0.02526  1.0000
  F   F292      1.0  0.03744  0.53336  0.53655  1.0000
  F   F293      1.0  0.29481  0.02691  0.02198  1.0000
  F   F294      1.0  0.29472  0.02503  0.52226  1.0000
  F   F295      1.0  0.29007  0.52776  0.02809  1.0000
  F   F296      1.0  0.28687  0.52381  0.52626  1.0000
  F   F297      1.0  0.53531  0.03560  0.03049  1.0000
  F   F298      1.0  0.54728  0.02695  0.51782  1.0000
  F   F299      1.0  0.53731  0.52634  0.02143  1.0000
  F   F300      1.0  0.53823  0.53612  0.53222  1.0000
  F   F301      1.0  0.79464  0.02730  0.02640  1.0000
  F   F302      1.0  0.78879  0.03109  0.52581  1.0000
  F   F303      1.0  0.79504  0.52212  0.03080  1.0000
  F   F304      1.0  0.78893  0.52622  0.53138  1.0000
  F   F305      1.0  0.24113  0.40124  0.22290  1.0000
  F   F306      1.0  0.23146  0.42355  0.71781  1.0000
  F   F307      1.0  0.23233  0.92035  0.23103  1.0000
  F   F308      1.0  0.22987  0.91460  0.72877  1.0000
  F   F309      1.0  0.48639  0.40920  0.23291  1.0000
  F   F310      1.0  0.48428  0.40553  0.72811  1.0000
  F   F311      1.0  0.48583  0.91482  0.23006  1.0000
  F   F312      1.0  0.48313  0.92638  0.72638  1.0000
  F   F313      1.0  0.73278  0.41752  0.22856  1.0000
  F   F314      1.0  0.73435  0.41020  0.73646  1.0000
  F   F315      1.0  0.73182  0.90949  0.22854  1.0000
  F   F316      1.0  0.73439  0.90584  0.72793  1.0000
  F   F317      1.0  0.98474  0.41611  0.23069  1.0000
  F   F318      1.0  0.98095  0.42076  0.71221  1.0000
  F   F319      1.0  0.98379  0.90174  0.24682  1.0000
  F   F320      1.0  0.98522  0.89497  0.74359  1.0000
  F   F321      1.0  0.21156  0.46947  0.46421  1.0000
  F   F322      1.0  0.20951  0.46881  0.97767  1.0000
  F   F323      1.0  0.20838  0.97063  0.47195  1.0000
  F   F324      1.0  0.21192  0.96041  0.96884  1.0000
  F   F325      1.0  0.45900  0.46238  0.47887  1.0000
  F   F326      1.0  0.45099  0.47292  0.98036  1.0000
  F   F327      1.0  0.45618  0.96509  0.48625  1.0000
  F   F328      1.0  0.45629  0.97777  0.97659  1.0000
  F   F329      1.0  0.70857  0.47220  0.46471  1.0000
  F   F330      1.0  0.69610  0.47848  0.99377  1.0000
  F   F331      1.0  0.70376  0.96554  0.48037  1.0000
  F   F332      1.0  0.70795  0.97109  0.97929  1.0000
  F   F333      1.0  0.95510  0.47458  0.47461  1.0000
  F   F334      1.0  0.95183  0.47185  0.98278  1.0000
  F   F335      1.0  0.96217  0.96317  0.47727  1.0000
  F   F336      1.0  0.96227  0.96546  0.97332  1.0000
  F   F337      1.0  0.01309  0.09438  0.26590  1.0000
  F   F338      1.0  0.01644  0.08193  0.76967  1.0000
  F   F339      1.0  0.01499  0.58560  0.27251  1.0000
  F   F340      1.0  0.01261  0.57284  0.78171  1.0000
  F   F341      1.0  0.26900  0.09095  0.26143  1.0000
  F   F342      1.0  0.26457  0.09485  0.75411  1.0000
  F   F343      1.0  0.27276  0.58702  0.27955  1.0000
  F   F344      1.0  0.26892  0.57729  0.79334  1.0000
  F   F345      1.0  0.51487  0.08574  0.27592  1.0000
  F   F346      1.0  0.51154  0.10010  0.76568  1.0000
  F   F347      1.0  0.51630  0.59196  0.26399  1.0000
  F   F348      1.0  0.51773  0.59266  0.77180  1.0000
  F   F349      1.0  0.76799  0.09208  0.27120  1.0000
  F   F350      1.0  0.76118  0.07936  0.77519  1.0000
  F   F351      1.0  0.76715  0.58822  0.27670  1.0000
  F   F352      1.0  0.76327  0.58632  0.76684  1.0000
  F   F353      1.0  0.10040  0.39639  0.45443  1.0000
  F   F354      1.0  0.10410  0.41799  0.95948  1.0000
  F   F355      1.0  0.10343  0.91537  0.45503  1.0000
  F   F356      1.0  0.10287  0.92799  0.95442  1.0000
  F   F357      1.0  0.34630  0.41649  0.44898  1.0000
  F   F358      1.0  0.35761  0.42885  0.95876  1.0000
  F   F359      1.0  0.34903  0.90091  0.46659  1.0000
  F   F360      1.0  0.35061  0.90672  0.95866  1.0000
  F   F361      1.0  0.59898  0.41881  0.45914  1.0000
  F   F362      1.0  0.59893  0.40235  0.96669  1.0000
  F   F363      1.0  0.60753  0.90529  0.44992  1.0000
  F   F364      1.0  0.60031  0.92699  0.94721  1.0000
  F   F365      1.0  0.85273  0.41023  0.45877  1.0000
  F   F366      1.0  0.85214  0.40933  0.97041  1.0000
  F   F367      1.0  0.84821  0.90982  0.45513  1.0000
  F   F368      1.0  0.84830  0.89412  0.95950  1.0000
  F   F369      1.0  0.04012  0.29386  0.28590  1.0000
  F   F370      1.0  0.04506  0.29998  0.78299  1.0000
  F   F371      1.0  0.04470  0.79722  0.29176  1.0000
  F   F372      1.0  0.05676  0.79944  0.78631  1.0000
  F   F373      1.0  0.29844  0.29596  0.28037  1.0000
  F   F374      1.0  0.28958  0.29967  0.79457  1.0000
  F   F375      1.0  0.29561  0.79116  0.28679  1.0000
  F   F376      1.0  0.28908  0.79221  0.78821  1.0000
  F   F377      1.0  0.54655  0.29380  0.29567  1.0000
  F   F378      1.0  0.54945  0.29575  0.77959  1.0000
  F   F379      1.0  0.53848  0.80141  0.29167  1.0000
  F   F380      1.0  0.54327  0.80419  0.78847  1.0000
  F   F381      1.0  0.79109  0.29881  0.29172  1.0000
  F   F382      1.0  0.80286  0.29606  0.78631  1.0000
  F   F383      1.0  0.79746  0.80051  0.28658  1.0000
  F   F384      1.0  0.79506  0.78353  0.78245  1.0000
