data_image0
_chemical_formula_structural       Hf96F384
_chemical_formula_sum              "Hf96 F384"
_cell_length_a       31.0253
_cell_length_b       15.5144
_cell_length_c       15.5041
_cell_angle_alpha    63.342
_cell_angle_beta     63.342
_cell_angle_gamma    80.1625

_space_group_name_H-M_alt    "P 1"
_space_group_IT_number       1

loop_
  _space_group_symop_operation_xyz
  'x, y, z'

loop_
  _atom_site_type_symbol
  _atom_site_label
  _atom_site_symmetry_multiplicity
  _atom_site_fract_x
  _atom_site_fract_y
  _atom_site_fract_z
  _atom_site_occupancy
  Hf  Hf1       1.0  0.19738  0.10101  0.37246  1.0000
  Hf  Hf2       1.0  0.19688  0.12509  0.85654  1.0000
  Hf  Hf3       1.0  0.19720  0.61131  0.36743  1.0000
  Hf  Hf4       1.0  0.19673  0.60813  0.87455  1.0000
  Hf  Hf5       1.0  0.45120  0.11279  0.36451  1.0000
  Hf  Hf6       1.0  0.44495  0.10540  0.88383  1.0000
  Hf  Hf7       1.0  0.44589  0.60637  0.37144  1.0000
  Hf  Hf8       1.0  0.44172  0.60881  0.87689  1.0000
  Hf  Hf9       1.0  0.69875  0.11483  0.36974  1.0000
  Hf  Hf10      1.0  0.69749  0.11186  0.87400  1.0000
  Hf  Hf11      1.0  0.69025  0.59818  0.39388  1.0000
  Hf  Hf12      1.0  0.69483  0.60884  0.87641  1.0000
  Hf  Hf13      1.0  0.94647  0.10314  0.36628  1.0000
  Hf  Hf14      1.0  0.94451  0.10868  0.87806  1.0000
  Hf  Hf15      1.0  0.94747  0.60666  0.37619  1.0000
  Hf  Hf16      1.0  0.94824  0.61174  0.87373  1.0000
  Hf  Hf17      1.0  0.05645  0.39601  0.12098  1.0000
  Hf  Hf18      1.0  0.05475  0.39119  0.62732  1.0000
  Hf  Hf19      1.0  0.05137  0.89193  0.12108  1.0000
  Hf  Hf20      1.0  0.05300  0.89334  0.62828  1.0000
  Hf  Hf21      1.0  0.30495  0.39423  0.11810  1.0000
  Hf  Hf22      1.0  0.30505  0.39733  0.61741  1.0000
  Hf  Hf23      1.0  0.30162  0.89341  0.12859  1.0000
  Hf  Hf24      1.0  0.29997  0.87958  0.64121  1.0000
  Hf  Hf25      1.0  0.54990  0.38355  0.13924  1.0000
  Hf  Hf26      1.0  0.55493  0.38879  0.62629  1.0000
  Hf  Hf27      1.0  0.55489  0.89372  0.12398  1.0000
  Hf  Hf28      1.0  0.55037  0.88949  0.64483  1.0000
  Hf  Hf29      1.0  0.80776  0.39143  0.11524  1.0000
  Hf  Hf30      1.0  0.80414  0.38187  0.62723  1.0000
  Hf  Hf31      1.0  0.80374  0.89403  0.12201  1.0000
  Hf  Hf32      1.0  0.80512  0.89928  0.61541  1.0000
  Hf  Hf33      1.0  0.05772  0.17053  0.41327  1.0000
  Hf  Hf34      1.0  0.05860  0.19075  0.91200  1.0000
  Hf  Hf35      1.0  0.05098  0.67440  0.42602  1.0000
  Hf  Hf36      1.0  0.05615  0.68029  0.91684  1.0000
  Hf  Hf37      1.0  0.30477  0.17962  0.42016  1.0000
  Hf  Hf38      1.0  0.30517  0.18710  0.91441  1.0000
  Hf  Hf39      1.0  0.30921  0.68220  0.41134  1.0000
  Hf  Hf40      1.0  0.30545  0.67930  0.91987  1.0000
  Hf  Hf41      1.0  0.55724  0.18100  0.42036  1.0000
  Hf  Hf42      1.0  0.55754  0.17632  0.91914  1.0000
  Hf  Hf43      1.0  0.55490  0.68354  0.41667  1.0000
  Hf  Hf44      1.0  0.55120  0.67075  0.93328  1.0000
  Hf  Hf45      1.0  0.81172  0.19092  0.40255  1.0000
  Hf  Hf46      1.0  0.80930  0.18685  0.90680  1.0000
  Hf  Hf47      1.0  0.80458  0.66370  0.42621  1.0000
  Hf  Hf48      1.0  0.80407  0.68171  0.91818  1.0000
  Hf  Hf49      1.0  0.16148  0.38571  0.32912  1.0000
  Hf  Hf50      1.0  0.16222  0.39619  0.82249  1.0000
  Hf  Hf51      1.0  0.15359  0.88234  0.33832  1.0000
  Hf  Hf52      1.0  0.15556  0.88740  0.83167  1.0000
  Hf  Hf53      1.0  0.41042  0.38793  0.33505  1.0000
  Hf  Hf54      1.0  0.40768  0.38654  0.83271  1.0000
  Hf  Hf55      1.0  0.41195  0.88571  0.33324  1.0000
  Hf  Hf56      1.0  0.40952  0.89877  0.83490  1.0000
  Hf  Hf57      1.0  0.65737  0.39355  0.33465  1.0000
  Hf  Hf58      1.0  0.65638  0.38462  0.84112  1.0000
  Hf  Hf59      1.0  0.65523  0.88827  0.33900  1.0000
  Hf  Hf60      1.0  0.65991  0.89130  0.83153  1.0000
  Hf  Hf61      1.0  0.91591  0.39893  0.31863  1.0000
  Hf  Hf62      1.0  0.90932  0.38994  0.83099  1.0000
  Hf  Hf63      1.0  0.90729  0.88394  0.33450  1.0000
  Hf  Hf64      1.0  0.90866  0.88774  0.83704  1.0000
  Hf  Hf65      1.0  0.19421  0.31853  0.07867  1.0000
  Hf  Hf66      1.0  0.19409  0.32197  0.57715  1.0000
  Hf  Hf67      1.0  0.19336  0.82701  0.07260  1.0000
  Hf  Hf68      1.0  0.19511  0.82236  0.57909  1.0000
  Hf  Hf69      1.0  0.44601  0.31802  0.08173  1.0000
  Hf  Hf70      1.0  0.44454  0.31526  0.58301  1.0000
  Hf  Hf71      1.0  0.44321  0.82170  0.08508  1.0000
  Hf  Hf72      1.0  0.44025  0.81937  0.58465  1.0000
  Hf  Hf73      1.0  0.69730  0.32053  0.07954  1.0000
  Hf  Hf74      1.0  0.69557  0.31226  0.58379  1.0000
  Hf  Hf75      1.0  0.69367  0.82336  0.07802  1.0000
  Hf  Hf76      1.0  0.69485  0.81742  0.58902  1.0000
  Hf  Hf77      1.0  0.94598  0.31817  0.08102  1.0000
  Hf  Hf78      1.0  0.94385  0.31830  0.58116  1.0000
  Hf  Hf79      1.0  0.94357  0.81653  0.08323  1.0000
  Hf  Hf80      1.0  0.94206  0.81958  0.58551  1.0000
  Hf  Hf81      1.0  0.09608  0.11838  0.15111  1.0000
  Hf  Hf82      1.0  0.08788  0.10948  0.67170  1.0000
  Hf  Hf83      1.0  0.09045  0.60645  0.17153  1.0000
  Hf  Hf84      1.0  0.08959  0.61530  0.66464  1.0000
  Hf  Hf85      1.0  0.34438  0.11178  0.16469  1.0000
  Hf  Hf86      1.0  0.33961  0.11117  0.66481  1.0000
  Hf  Hf87      1.0  0.33794  0.61065  0.16757  1.0000
  Hf  Hf88      1.0  0.33799  0.60746  0.67162  1.0000
  Hf  Hf89      1.0  0.59182  0.11204  0.17087  1.0000
  Hf  Hf90      1.0  0.59306  0.10444  0.66602  1.0000
  Hf  Hf91      1.0  0.58521  0.61281  0.17451  1.0000
  Hf  Hf92      1.0  0.59086  0.61851  0.66851  1.0000
  Hf  Hf93      1.0  0.84313  0.10916  0.16392  1.0000
  Hf  Hf94      1.0  0.84579  0.11606  0.66676  1.0000
  Hf  Hf95      1.0  0.83891  0.61429  0.16326  1.0000
  Hf  Hf96      1.0  0.83901  0.60620  0.67457  1.0000
  F   F1        1.0  0.07909  0.11071  0.30015  1.0000
  F   F2        1.0  0.07852  0.11386  0.81340  1.0000
  F   F3        1.0  0.08413  0.63114  0.29715  1.0000
  F   F4        1.0  0.07121  0.62626  0.80923  1.0000
  F   F5        1.0  0.32791  0.13225  0.29621  1.0000
  F   F6        1.0  0.33105  0.12901  0.80204  1.0000
  F   F7        1.0  0.32775  0.62726  0.30849  1.0000
  F   F8        1.0  0.32536  0.62512  0.80749  1.0000
  F   F9        1.0  0.57959  0.12761  0.31264  1.0000
  F   F10       1.0  0.58311  0.12234  0.80508  1.0000
  F   F11       1.0  0.58616  0.64694  0.29498  1.0000
  F   F12       1.0  0.57412  0.62496  0.81225  1.0000
  F   F13       1.0  0.83442  0.12238  0.30436  1.0000
  F   F14       1.0  0.83866  0.12784  0.79262  1.0000
  F   F15       1.0  0.82894  0.61083  0.31567  1.0000
  F   F16       1.0  0.82631  0.62437  0.80486  1.0000
  F   F17       1.0  0.18924  0.33604  0.44448  1.0000
  F   F18       1.0  0.20026  0.35709  0.92346  1.0000
  F   F19       1.0  0.17937  0.83967  0.44779  1.0000
  F   F20       1.0  0.18339  0.84838  0.94370  1.0000
  F   F21       1.0  0.43409  0.32483  0.45314  1.0000
  F   F22       1.0  0.42942  0.32561  0.95484  1.0000
  F   F23       1.0  0.43399  0.83927  0.44806  1.0000
  F   F24       1.0  0.42526  0.84580  0.96231  1.0000
  F   F25       1.0  0.68452  0.34019  0.44675  1.0000
  F   F26       1.0  0.69068  0.34321  0.94561  1.0000
  F   F27       1.0  0.68496  0.83953  0.44667  1.0000
  F   F28       1.0  0.68019  0.84367  0.95203  1.0000
  F   F29       1.0  0.94131  0.34485  0.43927  1.0000
  F   F30       1.0  0.93439  0.34332  0.94793  1.0000
  F   F31       1.0  0.92637  0.83709  0.45504  1.0000
  F   F32       1.0  0.94174  0.83356  0.94770  1.0000
  F   F33       1.0  0.17204  0.37097  0.19685  1.0000
  F   F34       1.0  0.17149  0.37906  0.68407  1.0000
  F   F35       1.0  0.16317  0.86099  0.20175  1.0000
  F   F36       1.0  0.16966  0.87298  0.69397  1.0000
  F   F37       1.0  0.42402  0.37512  0.19925  1.0000
  F   F38       1.0  0.42437  0.37330  0.70218  1.0000
  F   F39       1.0  0.42469  0.87659  0.19161  1.0000
  F   F40       1.0  0.41274  0.86627  0.70935  1.0000
  F   F41       1.0  0.66694  0.36798  0.19618  1.0000
  F   F42       1.0  0.67621  0.37488  0.68807  1.0000
  F   F43       1.0  0.67106  0.88292  0.18917  1.0000
  F   F44       1.0  0.66910  0.87264  0.70210  1.0000
  F   F45       1.0  0.92709  0.38281  0.17841  1.0000
  F   F46       1.0  0.92282  0.38058  0.68331  1.0000
  F   F47       1.0  0.92327  0.86978  0.20276  1.0000
  F   F48       1.0  0.92305  0.86820  0.69638  1.0000
  F   F49       1.0  0.07063  0.15905  0.03730  1.0000
  F   F50       1.0  0.06629  0.15583  0.55414  1.0000
  F   F51       1.0  0.06289  0.66553  0.06180  1.0000
  F   F52       1.0  0.05353  0.63932  0.57387  1.0000
  F   F53       1.0  0.31497  0.16471  0.04183  1.0000
  F   F54       1.0  0.31094  0.15390  0.55509  1.0000
  F   F55       1.0  0.30516  0.64528  0.06368  1.0000
  F   F56       1.0  0.31851  0.66126  0.54968  1.0000
  F   F57       1.0  0.56584  0.17058  0.05487  1.0000
  F   F58       1.0  0.56686  0.15963  0.55322  1.0000
  F   F59       1.0  0.55885  0.65342  0.06519  1.0000
  F   F60       1.0  0.56326  0.66752  0.55679  1.0000
  F   F61       1.0  0.82102  0.16227  0.04576  1.0000
  F   F62       1.0  0.82559  0.17207  0.53901  1.0000
  F   F63       1.0  0.80277  0.65196  0.05624  1.0000
  F   F64       1.0  0.80738  0.64565  0.57232  1.0000
  F   F65       1.0  0.19779  0.20019  0.21152  1.0000
  F   F66       1.0  0.19723  0.21265  0.71260  1.0000
  F   F67       1.0  0.20402  0.69423  0.21404  1.0000
  F   F68       1.0  0.20807  0.71590  0.71848  1.0000
  F   F69       1.0  0.46173  0.20433  0.21258  1.0000
  F   F70       1.0  0.45394  0.21251  0.71517  1.0000
  F   F71       1.0  0.46010  0.70160  0.21600  1.0000
  F   F72       1.0  0.45472  0.69809  0.72007  1.0000
  F   F73       1.0  0.70629  0.19310  0.21843  1.0000
  F   F74       1.0  0.71125  0.21095  0.70989  1.0000
  F   F75       1.0  0.69001  0.69885  0.20628  1.0000
  F   F76       1.0  0.70481  0.71593  0.71627  1.0000
  F   F77       1.0  0.94443  0.19303  0.20878  1.0000
  F   F78       1.0  0.93892  0.19961  0.72833  1.0000
  F   F79       1.0  0.95225  0.70469  0.20989  1.0000
  F   F80       1.0  0.95423  0.69794  0.71833  1.0000
  F   F81       1.0  0.15355  0.09161  0.01473  1.0000
  F   F82       1.0  0.14650  0.07037  0.53971  1.0000
  F   F83       1.0  0.14486  0.58778  0.03849  1.0000
  F   F84       1.0  0.14921  0.62510  0.53424  1.0000
  F   F85       1.0  0.39985  0.07986  0.04121  1.0000
  F   F86       1.0  0.39561  0.09927  0.52868  1.0000
  F   F87       1.0  0.39172  0.59929  0.03616  1.0000
  F   F88       1.0  0.40084  0.60684  0.53619  1.0000
  F   F89       1.0  0.65451  0.09702  0.03772  1.0000
  F   F90       1.0  0.65403  0.09438  0.54423  1.0000
  F   F91       1.0  0.64418  0.57552  0.02930  1.0000
  F   F92       1.0  0.64623  0.57817  0.55088  1.0000
  F   F93       1.0  0.90189  0.09719  0.03358  1.0000
  F   F94       1.0  0.90732  0.09886  0.53527  1.0000
  F   F95       1.0  0.89300  0.58968  0.02763  1.0000
  F   F96       1.0  0.90053  0.60431  0.54204  1.0000
  F   F97       1.0  0.15761  0.19889  0.09793  1.0000
  F   F98       1.0  0.14673  0.19915  0.61781  1.0000
  F   F99       1.0  0.14889  0.70369  0.12275  1.0000
  F   F100      1.0  0.14840  0.70186  0.65877  1.0000
  F   F101      1.0  0.40797  0.19404  0.13088  1.0000
  F   F102      1.0  0.40296  0.18837  0.62823  1.0000
  F   F103      1.0  0.40528  0.70690  0.12462  1.0000
  F   F104      1.0  0.39676  0.70343  0.63591  1.0000
  F   F105      1.0  0.65693  0.20087  0.12823  1.0000
  F   F106      1.0  0.65616  0.19037  0.63694  1.0000
  F   F107      1.0  0.64534  0.68615  0.11313  1.0000
  F   F108      1.0  0.64669  0.70314  0.63018  1.0000
  F   F109      1.0  0.89953  0.20059  0.11984  1.0000
  F   F110      1.0  0.90145  0.21199  0.61489  1.0000
  F   F111      1.0  0.89766  0.69282  0.11368  1.0000
  F   F112      1.0  0.90525  0.70226  0.63262  1.0000
  F   F113      1.0  0.09545  0.29728  0.37398  1.0000
  F   F114      1.0  0.10042  0.31466  0.86436  1.0000
  F   F115      1.0  0.09873  0.77942  0.39846  1.0000
  F   F116      1.0  0.09200  0.79897  0.86928  1.0000
  F   F117      1.0  0.34961  0.31500  0.38468  1.0000
  F   F118      1.0  0.34410  0.31635  0.86590  1.0000
  F   F119      1.0  0.35051  0.79585  0.35943  1.0000
  F   F120      1.0  0.34868  0.79476  0.88353  1.0000
  F   F121      1.0  0.59622  0.30722  0.38290  1.0000
  F   F122      1.0  0.60076  0.30645  0.86263  1.0000
  F   F123      1.0  0.60011  0.78691  0.37534  1.0000
  F   F124      1.0  0.60188  0.81481  0.88238  1.0000
  F   F125      1.0  0.85968  0.30499  0.34031  1.0000
  F   F126      1.0  0.85753  0.29858  0.85039  1.0000
  F   F127      1.0  0.85056  0.79018  0.39960  1.0000
  F   F128      1.0  0.84576  0.83098  0.87229  1.0000
  F   F129      1.0  0.07362  0.25513  0.12971  1.0000
  F   F130      1.0  0.06143  0.25088  0.64658  1.0000
  F   F131      1.0  0.05716  0.75181  0.15700  1.0000
  F   F132      1.0  0.06870  0.75080  0.64130  1.0000
  F   F133      1.0  0.32078  0.24744  0.13684  1.0000
  F   F134      1.0  0.31824  0.24867  0.65101  1.0000
  F   F135      1.0  0.31877  0.75417  0.12952  1.0000
  F   F136      1.0  0.31183  0.74653  0.64859  1.0000
  F   F137      1.0  0.55162  0.23888  0.17026  1.0000
  F   F138      1.0  0.57384  0.24594  0.63548  1.0000
  F   F139      1.0  0.55646  0.74424  0.15575  1.0000
  F   F140      1.0  0.56684  0.75968  0.63539  1.0000
  F   F141      1.0  0.81336  0.24724  0.15238  1.0000
  F   F142      1.0  0.80945  0.24257  0.65556  1.0000
  F   F143      1.0  0.81326  0.75184  0.14101  1.0000
  F   F144      1.0  0.80732  0.75210  0.64931  1.0000
  F   F145      1.0  0.12934  0.37996  0.09933  1.0000
  F   F146      1.0  0.12162  0.36768  0.60887  1.0000
  F   F147      1.0  0.12401  0.88688  0.09324  1.0000
  F   F148      1.0  0.12620  0.89491  0.59070  1.0000
  F   F149      1.0  0.38007  0.36266  0.11606  1.0000
  F   F150      1.0  0.37192  0.36204  0.63301  1.0000
  F   F151      1.0  0.36775  0.87148  0.13250  1.0000
  F   F152      1.0  0.37248  0.87959  0.59972  1.0000
  F   F153      1.0  0.62424  0.36984  0.10616  1.0000
  F   F154      1.0  0.62901  0.36057  0.60702  1.0000
  F   F155      1.0  0.61904  0.83526  0.12859  1.0000
  F   F156      1.0  0.62641  0.87726  0.59417  1.0000
  F   F157      1.0  0.87378  0.38057  0.09978  1.0000
  F   F158      1.0  0.87476  0.38305  0.59810  1.0000
  F   F159      1.0  0.87075  0.84624  0.14264  1.0000
  F   F160      1.0  0.87602  0.88093  0.60605  1.0000
  F   F161      1.0  0.18069  0.24815  0.35676  1.0000
  F   F162      1.0  0.18804  0.25856  0.85315  1.0000
  F   F163      1.0  0.18931  0.75027  0.35072  1.0000
  F   F164      1.0  0.17770  0.74613  0.87389  1.0000
  F   F165      1.0  0.43803  0.25032  0.35235  1.0000
  F   F166      1.0  0.43460  0.24907  0.85883  1.0000
  F   F167      1.0  0.43260  0.74917  0.36353  1.0000
  F   F168      1.0  0.43874  0.74400  0.86608  1.0000
  F   F169      1.0  0.68114  0.25347  0.35806  1.0000
  F   F170      1.0  0.68484  0.25475  0.85420  1.0000
  F   F171      1.0  0.68139  0.74167  0.35385  1.0000
  F   F172      1.0  0.69059  0.75723  0.85668  1.0000
  F   F173      1.0  0.94432  0.25501  0.33956  1.0000
  F   F174      1.0  0.93742  0.25411  0.84922  1.0000
  F   F175      1.0  0.94475  0.75339  0.34087  1.0000
  F   F176      1.0  0.93490  0.74952  0.86536  1.0000
  F   F177      1.0  0.12377  0.11872  0.39457  1.0000
  F   F178      1.0  0.12749  0.15049  0.87649  1.0000
  F   F179      1.0  0.12557  0.61805  0.40355  1.0000
  F   F180      1.0  0.13038  0.62438  0.88498  1.0000
  F   F181      1.0  0.37739  0.15967  0.36639  1.0000
  F   F182      1.0  0.37742  0.14655  0.88089  1.0000
  F   F183      1.0  0.37573  0.61727  0.39664  1.0000
  F   F184      1.0  0.37455  0.62973  0.88836  1.0000
  F   F185      1.0  0.62591  0.13729  0.39540  1.0000
  F   F186      1.0  0.62678  0.13695  0.89417  1.0000
  F   F187      1.0  0.62233  0.61819  0.40331  1.0000
  F   F188      1.0  0.62380  0.64987  0.87720  1.0000
  F   F189      1.0  0.87939  0.12081  0.39510  1.0000
  F   F190      1.0  0.86810  0.10733  0.91782  1.0000
  F   F191      1.0  0.87710  0.63072  0.38298  1.0000
  F   F192      1.0  0.87426  0.65939  0.88041  1.0000
  F   F193      1.0  0.00733  0.33812  0.11067  1.0000
  F   F194      1.0  0.01110  0.35726  0.57495  1.0000
  F   F195      1.0  0.00734  0.86452  0.06440  1.0000
  F   F196      1.0  0.00712  0.86399  0.58545  1.0000
  F   F197      1.0  0.25854  0.34995  0.06901  1.0000
  F   F198      1.0  0.25886  0.35932  0.56935  1.0000
  F   F199      1.0  0.25934  0.85476  0.07907  1.0000
  F   F200      1.0  0.26180  0.86629  0.56847  1.0000
  F   F201      1.0  0.50543  0.36818  0.07886  1.0000
  F   F202      1.0  0.50917  0.36169  0.56424  1.0000
  F   F203      1.0  0.50940  0.86936  0.06559  1.0000
  F   F204      1.0  0.50304  0.86400  0.60717  1.0000
  F   F205      1.0  0.75630  0.35857  0.08984  1.0000
  F   F206      1.0  0.76098  0.35076  0.57174  1.0000
  F   F207      1.0  0.75793  0.86468  0.07674  1.0000
  F   F208      1.0  0.75662  0.87799  0.56733  1.0000
  F   F209      1.0  0.06927  0.48071  0.18802  1.0000
  F   F210      1.0  0.07459  0.48244  0.67131  1.0000
  F   F211      1.0  0.06952  0.99228  0.16633  1.0000
  F   F212      1.0  0.06086  0.98577  0.68792  1.0000
  F   F213      1.0  0.32043  0.48029  0.17019  1.0000
  F   F214      1.0  0.32452  0.49745  0.65515  1.0000
  F   F215      1.0  0.31461  0.99390  0.18980  1.0000
  F   F216      1.0  0.31726  0.98337  0.68363  1.0000
  F   F217      1.0  0.56800  0.47918  0.18214  1.0000
  F   F218      1.0  0.56715  0.48685  0.66939  1.0000
  F   F219      1.0  0.57727  0.98238  0.16353  1.0000
  F   F220      1.0  0.57047  0.97896  0.68819  1.0000
  F   F221      1.0  0.81519  0.48034  0.18773  1.0000
  F   F222      1.0  0.82223  0.48579  0.67734  1.0000
  F   F223      1.0  0.81389  0.98179  0.17739  1.0000
  F   F224      1.0  0.82241  0.99680  0.66949  1.0000
  F   F225      1.0  0.24655  0.12976  0.42671  1.0000
  F   F226      1.0  0.24739  0.13191  0.92074  1.0000
  F   F227      1.0  0.24069  0.63306  0.42330  1.0000
  F   F228      1.0  0.24335  0.64216  0.92401  1.0000
  F   F229      1.0  0.49358  0.12964  0.41962  1.0000
  F   F230      1.0  0.49146  0.12617  0.94292  1.0000
  F   F231      1.0  0.48851  0.63815  0.42813  1.0000
  F   F232      1.0  0.48679  0.62525  0.94875  1.0000
  F   F233      1.0  0.74385  0.14105  0.42395  1.0000
  F   F234      1.0  0.74697  0.14365  0.91716  1.0000
  F   F235      1.0  0.73900  0.62420  0.44776  1.0000
  F   F236      1.0  0.74173  0.63521  0.92499  1.0000
  F   F237      1.0  0.99505  0.12057  0.43092  1.0000
  F   F238      1.0  0.99188  0.14926  0.93168  1.0000
  F   F239      1.0  0.99027  0.64329  0.42941  1.0000
  F   F240      1.0  0.98864  0.64201  0.92932  1.0000
  F   F241      1.0  0.17893  0.01025  0.32215  1.0000
  F   F242      1.0  0.17918  0.01503  0.82929  1.0000
  F   F243      1.0  0.18490  0.51775  0.30992  1.0000
  F   F244      1.0  0.18492  0.51544  0.82262  1.0000
  F   F245      1.0  0.43924  0.00887  0.32944  1.0000
  F   F246      1.0  0.42608  0.01248  0.84560  1.0000
  F   F247      1.0  0.43462  0.51338  0.31633  1.0000
  F   F248      1.0  0.42434  0.50947  0.84234  1.0000
  F   F249      1.0  0.67649  0.01692  0.33405  1.0000
  F   F250      1.0  0.68326  0.02747  0.81748  1.0000
  F   F251      1.0  0.68276  0.51272  0.32408  1.0000
  F   F252      1.0  0.67106  0.51014  0.84271  1.0000
  F   F253      1.0  0.93073  0.01137  0.31621  1.0000
  F   F254      1.0  0.93343  0.01197  0.82724  1.0000
  F   F255      1.0  0.93155  0.51728  0.32391  1.0000
  F   F256      1.0  0.92112  0.50849  0.85486  1.0000
  F   F257      1.0  0.00405  0.25958  0.00534  1.0000
  F   F258      1.0  0.99706  0.23313  0.51147  1.0000
  F   F259      1.0  0.99755  0.73574  0.00944  1.0000
  F   F260      1.0  0.00063  0.76665  0.49859  1.0000
  F   F261      1.0  0.24585  0.24578  0.99483  1.0000
  F   F262      1.0  0.25020  0.24342  0.50982  1.0000
  F   F263      1.0  0.24893  0.75664  0.99462  1.0000
  F   F264      1.0  0.24933  0.75445  0.49688  1.0000
  F   F265      1.0  0.49984  0.24726  0.99939  1.0000
  F   F266      1.0  0.50020  0.23860  0.50134  1.0000
  F   F267      1.0  0.49750  0.75307  0.99660  1.0000
  F   F268      1.0  0.50054  0.76159  0.50870  1.0000
  F   F269      1.0  0.75978  0.25311  0.99307  1.0000
  F   F270      1.0  0.75882  0.25516  0.48298  1.0000
  F   F271      1.0  0.74360  0.75054  0.99284  1.0000
  F   F272      1.0  0.74591  0.74021  0.51232  1.0000
  F   F273      1.0  0.13017  0.00190  0.23716  1.0000
  F   F274      1.0  0.12080  0.98825  0.75556  1.0000
  F   F275      1.0  0.13136  0.50725  0.23171  1.0000
  F   F276      1.0  0.13740  0.50783  0.72113  1.0000
  F   F277      1.0  0.37802  0.00426  0.24788  1.0000
  F   F278      1.0  0.38108  0.00316  0.74115  1.0000
  F   F279      1.0  0.37298  0.50522  0.24268  1.0000
  F   F280      1.0  0.37454  0.49158  0.75117  1.0000
  F   F281      1.0  0.61769  0.99802  0.25901  1.0000
  F   F282      1.0  0.62719  0.99967  0.75721  1.0000
  F   F283      1.0  0.61896  0.49668  0.26916  1.0000
  F   F284      1.0  0.62391  0.49482  0.75590  1.0000
  F   F285      1.0  0.88276  0.00307  0.22942  1.0000
  F   F286      1.0  0.87489  0.99727  0.75328  1.0000
  F   F287      1.0  0.87609  0.50468  0.23740  1.0000
  F   F288      1.0  0.87819  0.50045  0.75265  1.0000
  F   F289      1.0  0.04432  0.02409  0.02203  1.0000
  F   F290      1.0  0.04195  0.02850  0.53043  1.0000
  F   F291      1.0  0.05175  0.53961  0.01561  1.0000
  F   F292      1.0  0.04341  0.52330  0.50851  1.0000
  F   F293      1.0  0.30423  0.03020  0.01828  1.0000
  F   F294      1.0  0.29728  0.01233  0.52546  1.0000
  F   F295      1.0  0.28863  0.52371  0.02457  1.0000
  F   F296      1.0  0.29178  0.53151  0.52671  1.0000
  F   F297      1.0  0.53815  0.03686  0.03714  1.0000
  F   F298      1.0  0.54786  0.03274  0.53200  1.0000
  F   F299      1.0  0.54105  0.52220  0.03103  1.0000
  F   F300      1.0  0.54166  0.52630  0.52613  1.0000
  F   F301      1.0  0.78951  0.03556  0.02000  1.0000
  F   F302      1.0  0.79894  0.04189  0.51596  1.0000
  F   F303      1.0  0.80200  0.52338  0.00874  1.0000
  F   F304      1.0  0.79290  0.51446  0.52794  1.0000
  F   F305      1.0  0.23812  0.41086  0.21335  1.0000
  F   F306      1.0  0.23247  0.42705  0.71921  1.0000
  F   F307      1.0  0.23320  0.91374  0.22181  1.0000
  F   F308      1.0  0.22961  0.90085  0.74037  1.0000
  F   F309      1.0  0.48393  0.41590  0.23413  1.0000
  F   F310      1.0  0.48660  0.41598  0.72832  1.0000
  F   F311      1.0  0.48685  0.91479  0.23238  1.0000
  F   F312      1.0  0.48438  0.92873  0.74081  1.0000
  F   F313      1.0  0.72579  0.42500  0.21845  1.0000
  F   F314      1.0  0.73663  0.41122  0.72836  1.0000
  F   F315      1.0  0.73409  0.89960  0.24179  1.0000
  F   F316      1.0  0.73858  0.91361  0.72528  1.0000
  F   F317      1.0  0.98896  0.44328  0.21338  1.0000
  F   F318      1.0  0.98357  0.43465  0.71989  1.0000
  F   F319      1.0  0.99142  0.91879  0.22793  1.0000
  F   F320      1.0  0.98210  0.90744  0.74256  1.0000
  F   F321      1.0  0.20766  0.46214  0.47752  1.0000
  F   F322      1.0  0.20903  0.47772  0.97931  1.0000
  F   F323      1.0  0.21693  0.96491  0.45661  1.0000
  F   F324      1.0  0.21214  0.97606  0.96504  1.0000
  F   F325      1.0  0.45138  0.46426  0.47963  1.0000
  F   F326      1.0  0.45557  0.46954  0.96938  1.0000
  F   F327      1.0  0.45503  0.96814  0.49550  1.0000
  F   F328      1.0  0.46577  0.96635  0.96434  1.0000
  F   F329      1.0  0.71071  0.46385  0.47173  1.0000
  F   F330      1.0  0.71050  0.47010  0.97465  1.0000
  F   F331      1.0  0.70664  0.96482  0.47678  1.0000
  F   F332      1.0  0.70275  0.97284  0.97588  1.0000
  F   F333      1.0  0.95696  0.47612  0.48021  1.0000
  F   F334      1.0  0.96496  0.46358  0.98093  1.0000
  F   F335      1.0  0.95788  0.97044  0.46150  1.0000
  F   F336      1.0  0.94988  0.97109  0.98891  1.0000
  F   F337      1.0  0.01334  0.11030  0.25000  1.0000
  F   F338      1.0  0.01244  0.09359  0.77004  1.0000
  F   F339      1.0  0.01807  0.58159  0.28343  1.0000
  F   F340      1.0  0.01400  0.58605  0.76917  1.0000
  F   F341      1.0  0.26684  0.10893  0.25951  1.0000
  F   F342      1.0  0.26552  0.10461  0.76058  1.0000
  F   F343      1.0  0.26686  0.58327  0.26951  1.0000
  F   F344      1.0  0.26497  0.57584  0.77741  1.0000
  F   F345      1.0  0.52072  0.07223  0.26778  1.0000
  F   F346      1.0  0.51445  0.09769  0.76982  1.0000
  F   F347      1.0  0.51931  0.57517  0.29673  1.0000
  F   F348      1.0  0.51530  0.58264  0.77710  1.0000
  F   F349      1.0  0.76585  0.08404  0.26201  1.0000
  F   F350      1.0  0.76819  0.07937  0.78470  1.0000
  F   F351      1.0  0.75879  0.59863  0.27288  1.0000
  F   F352      1.0  0.75929  0.57735  0.78388  1.0000
  F   F353      1.0  0.10319  0.39772  0.46071  1.0000
  F   F354      1.0  0.10346  0.41371  0.95250  1.0000
  F   F355      1.0  0.09338  0.91622  0.45087  1.0000
  F   F356      1.0  0.09767  0.89051  0.96583  1.0000
  F   F357      1.0  0.34965  0.41023  0.47151  1.0000
  F   F358      1.0  0.34869  0.40504  0.97041  1.0000
  F   F359      1.0  0.35325  0.89064  0.45183  1.0000
  F   F360      1.0  0.34881  0.90757  0.96311  1.0000
  F   F361      1.0  0.60274  0.41142  0.47090  1.0000
  F   F362      1.0  0.60013  0.38704  0.97032  1.0000
  F   F363      1.0  0.59387  0.90132  0.46311  1.0000
  F   F364      1.0  0.60086  0.93009  0.96550  1.0000
  F   F365      1.0  0.85483  0.39128  0.45709  1.0000
  F   F366      1.0  0.84755  0.38963  0.95494  1.0000
  F   F367      1.0  0.84928  0.92082  0.45383  1.0000
  F   F368      1.0  0.85484  0.90656  0.97848  1.0000
  F   F369      1.0  0.04526  0.29439  0.27834  1.0000
  F   F370      1.0  0.04568  0.30386  0.77773  1.0000
  F   F371      1.0  0.03834  0.78994  0.31294  1.0000
  F   F372      1.0  0.04632  0.80257  0.78649  1.0000
  F   F373      1.0  0.29761  0.29423  0.29721  1.0000
  F   F374      1.0  0.29010  0.30283  0.78983  1.0000
  F   F375      1.0  0.28488  0.79245  0.29176  1.0000
  F   F376      1.0  0.30008  0.80084  0.79261  1.0000
  F   F377      1.0  0.54923  0.30417  0.29421  1.0000
  F   F378      1.0  0.54486  0.29861  0.78830  1.0000
  F   F379      1.0  0.53603  0.79227  0.30560  1.0000
  F   F380      1.0  0.54873  0.79188  0.79475  1.0000
  F   F381      1.0  0.79859  0.30287  0.28909  1.0000
  F   F382      1.0  0.79366  0.29317  0.79097  1.0000
  F   F383      1.0  0.78932  0.77186  0.31283  1.0000
  F   F384      1.0  0.80311  0.79922  0.78253  1.0000
