data_image0
_chemical_formula_structural       Hf96F384
_chemical_formula_sum              "Hf96 F384"
_cell_length_a       31.053
_cell_length_b       15.5281
_cell_length_c       15.5153
_cell_angle_alpha    63.342
_cell_angle_beta     63.342
_cell_angle_gamma    80.1625

_space_group_name_H-M_alt    "P 1"
_space_group_IT_number       1

loop_
  _space_group_symop_operation_xyz
  'x, y, z'

loop_
  _atom_site_type_symbol
  _atom_site_label
  _atom_site_symmetry_multiplicity
  _atom_site_fract_x
  _atom_site_fract_y
  _atom_site_fract_z
  _atom_site_occupancy
  Hf  Hf1       1.0  0.19804  0.11013  0.37125  1.0000
  Hf  Hf2       1.0  0.19916  0.10432  0.86988  1.0000
  Hf  Hf3       1.0  0.19295  0.60734  0.38018  1.0000
  Hf  Hf4       1.0  0.19073  0.61333  0.87801  1.0000
  Hf  Hf5       1.0  0.44981  0.11539  0.36397  1.0000
  Hf  Hf6       1.0  0.44716  0.11168  0.86766  1.0000
  Hf  Hf7       1.0  0.44285  0.60800  0.37456  1.0000
  Hf  Hf8       1.0  0.45077  0.61295  0.86588  1.0000
  Hf  Hf9       1.0  0.69690  0.10813  0.38121  1.0000
  Hf  Hf10      1.0  0.70256  0.10706  0.87086  1.0000
  Hf  Hf11      1.0  0.69831  0.60656  0.36915  1.0000
  Hf  Hf12      1.0  0.69716  0.60263  0.88367  1.0000
  Hf  Hf13      1.0  0.94929  0.10222  0.36659  1.0000
  Hf  Hf14      1.0  0.94837  0.10992  0.87652  1.0000
  Hf  Hf15      1.0  0.94929  0.60146  0.37730  1.0000
  Hf  Hf16      1.0  0.94679  0.60174  0.88901  1.0000
  Hf  Hf17      1.0  0.05697  0.39652  0.11447  1.0000
  Hf  Hf18      1.0  0.05612  0.38879  0.62578  1.0000
  Hf  Hf19      1.0  0.05105  0.89249  0.13308  1.0000
  Hf  Hf20      1.0  0.04968  0.89319  0.61999  1.0000
  Hf  Hf21      1.0  0.30516  0.40584  0.11337  1.0000
  Hf  Hf22      1.0  0.30297  0.39266  0.62793  1.0000
  Hf  Hf23      1.0  0.29899  0.88920  0.14268  1.0000
  Hf  Hf24      1.0  0.30537  0.89264  0.61739  1.0000
  Hf  Hf25      1.0  0.55522  0.38644  0.12772  1.0000
  Hf  Hf26      1.0  0.55500  0.39823  0.61264  1.0000
  Hf  Hf27      1.0  0.55325  0.88761  0.12689  1.0000
  Hf  Hf28      1.0  0.55155  0.89518  0.62431  1.0000
  Hf  Hf29      1.0  0.80195  0.38286  0.12758  1.0000
  Hf  Hf30      1.0  0.80528  0.39175  0.62557  1.0000
  Hf  Hf31      1.0  0.80013  0.88721  0.13392  1.0000
  Hf  Hf32      1.0  0.80884  0.89976  0.60514  1.0000
  Hf  Hf33      1.0  0.05664  0.18712  0.40646  1.0000
  Hf  Hf34      1.0  0.05591  0.18005  0.91884  1.0000
  Hf  Hf35      1.0  0.05201  0.67821  0.42620  1.0000
  Hf  Hf36      1.0  0.05436  0.69378  0.91251  1.0000
  Hf  Hf37      1.0  0.30834  0.19004  0.40467  1.0000
  Hf  Hf38      1.0  0.30650  0.18053  0.91363  1.0000
  Hf  Hf39      1.0  0.30380  0.69074  0.41980  1.0000
  Hf  Hf40      1.0  0.30487  0.69049  0.91452  1.0000
  Hf  Hf41      1.0  0.55550  0.17903  0.41692  1.0000
  Hf  Hf42      1.0  0.55807  0.17563  0.91598  1.0000
  Hf  Hf43      1.0  0.55588  0.68442  0.41901  1.0000
  Hf  Hf44      1.0  0.55645  0.68343  0.91850  1.0000
  Hf  Hf45      1.0  0.80907  0.18199  0.41839  1.0000
  Hf  Hf46      1.0  0.80895  0.17539  0.91947  1.0000
  Hf  Hf47      1.0  0.80492  0.67822  0.41979  1.0000
  Hf  Hf48      1.0  0.80593  0.67510  0.92049  1.0000
  Hf  Hf49      1.0  0.15950  0.39653  0.33785  1.0000
  Hf  Hf50      1.0  0.15736  0.39837  0.83128  1.0000
  Hf  Hf51      1.0  0.15389  0.88495  0.33690  1.0000
  Hf  Hf52      1.0  0.16137  0.89389  0.83112  1.0000
  Hf  Hf53      1.0  0.40771  0.39318  0.32855  1.0000
  Hf  Hf54      1.0  0.41170  0.38745  0.82266  1.0000
  Hf  Hf55      1.0  0.40700  0.89064  0.33611  1.0000
  Hf  Hf56      1.0  0.40424  0.89134  0.83358  1.0000
  Hf  Hf57      1.0  0.66271  0.38959  0.32616  1.0000
  Hf  Hf58      1.0  0.66245  0.38470  0.83581  1.0000
  Hf  Hf59      1.0  0.65590  0.89323  0.33373  1.0000
  Hf  Hf60      1.0  0.65936  0.88093  0.83277  1.0000
  Hf  Hf61      1.0  0.91132  0.38436  0.33073  1.0000
  Hf  Hf62      1.0  0.90983  0.38863  0.83007  1.0000
  Hf  Hf63      1.0  0.91043  0.88094  0.33231  1.0000
  Hf  Hf64      1.0  0.90731  0.88486  0.82969  1.0000
  Hf  Hf65      1.0  0.19670  0.32357  0.07551  1.0000
  Hf  Hf66      1.0  0.19525  0.32539  0.57924  1.0000
  Hf  Hf67      1.0  0.18931  0.81674  0.08628  1.0000
  Hf  Hf68      1.0  0.18908  0.82548  0.58730  1.0000
  Hf  Hf69      1.0  0.44591  0.31992  0.07663  1.0000
  Hf  Hf70      1.0  0.44659  0.31898  0.57564  1.0000
  Hf  Hf71      1.0  0.44161  0.82740  0.07947  1.0000
  Hf  Hf72      1.0  0.44409  0.82380  0.57875  1.0000
  Hf  Hf73      1.0  0.69495  0.30481  0.08814  1.0000
  Hf  Hf74      1.0  0.69713  0.31699  0.57736  1.0000
  Hf  Hf75      1.0  0.69251  0.81526  0.08838  1.0000
  Hf  Hf76      1.0  0.68917  0.81611  0.58307  1.0000
  Hf  Hf77      1.0  0.94390  0.31023  0.08368  1.0000
  Hf  Hf78      1.0  0.94303  0.30809  0.59141  1.0000
  Hf  Hf79      1.0  0.94201  0.81214  0.08890  1.0000
  Hf  Hf80      1.0  0.94242  0.81542  0.58786  1.0000
  Hf  Hf81      1.0  0.09897  0.11848  0.15306  1.0000
  Hf  Hf82      1.0  0.09179  0.11972  0.66126  1.0000
  Hf  Hf83      1.0  0.09071  0.61043  0.16978  1.0000
  Hf  Hf84      1.0  0.08822  0.61638  0.67583  1.0000
  Hf  Hf85      1.0  0.34089  0.11405  0.17092  1.0000
  Hf  Hf86      1.0  0.34563  0.11873  0.65195  1.0000
  Hf  Hf87      1.0  0.34196  0.61218  0.17080  1.0000
  Hf  Hf88      1.0  0.33721  0.61049  0.67441  1.0000
  Hf  Hf89      1.0  0.59230  0.11652  0.16160  1.0000
  Hf  Hf90      1.0  0.59105  0.11600  0.66178  1.0000
  Hf  Hf91      1.0  0.58811  0.60800  0.17642  1.0000
  Hf  Hf92      1.0  0.59025  0.60834  0.67310  1.0000
  Hf  Hf93      1.0  0.83748  0.10039  0.17954  1.0000
  Hf  Hf94      1.0  0.84125  0.10445  0.66850  1.0000
  Hf  Hf95      1.0  0.84079  0.60224  0.17212  1.0000
  Hf  Hf96      1.0  0.84516  0.61542  0.66007  1.0000
  F   F1        1.0  0.08108  0.13758  0.29630  1.0000
  F   F2        1.0  0.07971  0.12097  0.80175  1.0000
  F   F3        1.0  0.07745  0.61571  0.31562  1.0000
  F   F4        1.0  0.07912  0.64063  0.80123  1.0000
  F   F5        1.0  0.32348  0.12033  0.31705  1.0000
  F   F6        1.0  0.34096  0.13748  0.79444  1.0000
  F   F7        1.0  0.32330  0.61621  0.32130  1.0000
  F   F8        1.0  0.32253  0.65105  0.79397  1.0000
  F   F9        1.0  0.57990  0.13117  0.30684  1.0000
  F   F10       1.0  0.58088  0.09828  0.81467  1.0000
  F   F11       1.0  0.57587  0.61844  0.32589  1.0000
  F   F12       1.0  0.58124  0.63662  0.80684  1.0000
  F   F13       1.0  0.83177  0.11385  0.31715  1.0000
  F   F14       1.0  0.82800  0.12420  0.81312  1.0000
  F   F15       1.0  0.83144  0.62831  0.30939  1.0000
  F   F16       1.0  0.82796  0.60717  0.80287  1.0000
  F   F17       1.0  0.19071  0.35604  0.44117  1.0000
  F   F18       1.0  0.18366  0.33334  0.95080  1.0000
  F   F19       1.0  0.17473  0.82182  0.46080  1.0000
  F   F20       1.0  0.18838  0.85326  0.94127  1.0000
  F   F21       1.0  0.43488  0.36006  0.44047  1.0000
  F   F22       1.0  0.43947  0.32841  0.94260  1.0000
  F   F23       1.0  0.43480  0.85091  0.44301  1.0000
  F   F24       1.0  0.44153  0.84658  0.93205  1.0000
  F   F25       1.0  0.68288  0.33430  0.45890  1.0000
  F   F26       1.0  0.68332  0.33750  0.95273  1.0000
  F   F27       1.0  0.67854  0.83487  0.44679  1.0000
  F   F28       1.0  0.68359  0.82183  0.95117  1.0000
  F   F29       1.0  0.92919  0.33743  0.45264  1.0000
  F   F30       1.0  0.93433  0.34556  0.94925  1.0000
  F   F31       1.0  0.93577  0.83156  0.46019  1.0000
  F   F32       1.0  0.92920  0.84727  0.94819  1.0000
  F   F33       1.0  0.17859  0.37967  0.19202  1.0000
  F   F34       1.0  0.17440  0.39059  0.69368  1.0000
  F   F35       1.0  0.17324  0.88041  0.18645  1.0000
  F   F36       1.0  0.16676  0.86597  0.70104  1.0000
  F   F37       1.0  0.42152  0.38611  0.17758  1.0000
  F   F38       1.0  0.42568  0.37224  0.68621  1.0000
  F   F39       1.0  0.41253  0.85937  0.21181  1.0000
  F   F40       1.0  0.41702  0.87476  0.69604  1.0000
  F   F41       1.0  0.67316  0.36471  0.20027  1.0000
  F   F42       1.0  0.67000  0.35993  0.69902  1.0000
  F   F43       1.0  0.66197  0.85367  0.20643  1.0000
  F   F44       1.0  0.66380  0.87415  0.69704  1.0000
  F   F45       1.0  0.91698  0.36745  0.19582  1.0000
  F   F46       1.0  0.92511  0.36782  0.70191  1.0000
  F   F47       1.0  0.92441  0.87634  0.18835  1.0000
  F   F48       1.0  0.91447  0.87498  0.69378  1.0000
  F   F49       1.0  0.06920  0.15502  0.05282  1.0000
  F   F50       1.0  0.06179  0.16451  0.55039  1.0000
  F   F51       1.0  0.06559  0.65396  0.05877  1.0000
  F   F52       1.0  0.06304  0.66851  0.55457  1.0000
  F   F53       1.0  0.30819  0.16648  0.06146  1.0000
  F   F54       1.0  0.32466  0.16895  0.53614  1.0000
  F   F55       1.0  0.31336  0.66667  0.04751  1.0000
  F   F56       1.0  0.30900  0.65689  0.56200  1.0000
  F   F57       1.0  0.56461  0.14276  0.05729  1.0000
  F   F58       1.0  0.56675  0.15905  0.54626  1.0000
  F   F59       1.0  0.55925  0.64952  0.07081  1.0000
  F   F60       1.0  0.56147  0.65586  0.56531  1.0000
  F   F61       1.0  0.81341  0.15635  0.05785  1.0000
  F   F62       1.0  0.80955  0.15286  0.55722  1.0000
  F   F63       1.0  0.80959  0.64656  0.05802  1.0000
  F   F64       1.0  0.82170  0.66487  0.54455  1.0000
  F   F65       1.0  0.20954  0.20954  0.21237  1.0000
  F   F66       1.0  0.19991  0.20120  0.70475  1.0000
  F   F67       1.0  0.19005  0.69603  0.22450  1.0000
  F   F68       1.0  0.20157  0.70446  0.73018  1.0000
  F   F69       1.0  0.46402  0.20860  0.20735  1.0000
  F   F70       1.0  0.45784  0.19707  0.69314  1.0000
  F   F71       1.0  0.45343  0.69749  0.21696  1.0000
  F   F72       1.0  0.45991  0.71141  0.70015  1.0000
  F   F73       1.0  0.70597  0.19807  0.22156  1.0000
  F   F74       1.0  0.71026  0.19522  0.69716  1.0000
  F   F75       1.0  0.71308  0.69584  0.21213  1.0000
  F   F76       1.0  0.70056  0.71096  0.70632  1.0000
  F   F77       1.0  0.95735  0.18421  0.21706  1.0000
  F   F78       1.0  0.94781  0.19474  0.72295  1.0000
  F   F79       1.0  0.95651  0.69196  0.20646  1.0000
  F   F80       1.0  0.95425  0.69788  0.70440  1.0000
  F   F81       1.0  0.15663  0.09525  0.02902  1.0000
  F   F82       1.0  0.15002  0.08973  0.53791  1.0000
  F   F83       1.0  0.14770  0.58251  0.04277  1.0000
  F   F84       1.0  0.15077  0.61099  0.53168  1.0000
  F   F85       1.0  0.39757  0.12828  0.04233  1.0000
  F   F86       1.0  0.40280  0.08672  0.52760  1.0000
  F   F87       1.0  0.39696  0.59443  0.03509  1.0000
  F   F88       1.0  0.39081  0.58907  0.53898  1.0000
  F   F89       1.0  0.65318  0.09061  0.03900  1.0000
  F   F90       1.0  0.64393  0.08604  0.54209  1.0000
  F   F91       1.0  0.64487  0.60921  0.04126  1.0000
  F   F92       1.0  0.64804  0.59449  0.54617  1.0000
  F   F93       1.0  0.90277  0.09658  0.04635  1.0000
  F   F94       1.0  0.90064  0.07924  0.55718  1.0000
  F   F95       1.0  0.89089  0.57583  0.04691  1.0000
  F   F96       1.0  0.90489  0.58765  0.53264  1.0000
  F   F97       1.0  0.15674  0.19591  0.11087  1.0000
  F   F98       1.0  0.15766  0.20229  0.61480  1.0000
  F   F99       1.0  0.14763  0.69789  0.11581  1.0000
  F   F100      1.0  0.14065  0.70558  0.63740  1.0000
  F   F101      1.0  0.39859  0.19619  0.15061  1.0000
  F   F102      1.0  0.40055  0.20646  0.60356  1.0000
  F   F103      1.0  0.40001  0.70800  0.12498  1.0000
  F   F104      1.0  0.40530  0.69451  0.62562  1.0000
  F   F105      1.0  0.65096  0.19826  0.11619  1.0000
  F   F106      1.0  0.66036  0.19611  0.61417  1.0000
  F   F107      1.0  0.65084  0.69043  0.14756  1.0000
  F   F108      1.0  0.64755  0.70533  0.61827  1.0000
  F   F109      1.0  0.90192  0.20235  0.12792  1.0000
  F   F110      1.0  0.90487  0.19084  0.62819  1.0000
  F   F111      1.0  0.90376  0.68464  0.12455  1.0000
  F   F112      1.0  0.90050  0.69527  0.62049  1.0000
  F   F113      1.0  0.09607  0.30738  0.37757  1.0000
  F   F114      1.0  0.09529  0.29130  0.88898  1.0000
  F   F115      1.0  0.09744  0.80183  0.36271  1.0000
  F   F116      1.0  0.09526  0.80645  0.87267  1.0000
  F   F117      1.0  0.34387  0.32415  0.35715  1.0000
  F   F118      1.0  0.35243  0.30218  0.86817  1.0000
  F   F119      1.0  0.33950  0.80494  0.38579  1.0000
  F   F120      1.0  0.34511  0.82099  0.86931  1.0000
  F   F121      1.0  0.60162  0.31271  0.36779  1.0000
  F   F122      1.0  0.59918  0.29513  0.89126  1.0000
  F   F123      1.0  0.59412  0.79674  0.39833  1.0000
  F   F124      1.0  0.60459  0.77756  0.90066  1.0000
  F   F125      1.0  0.84640  0.30268  0.38284  1.0000
  F   F126      1.0  0.84999  0.28498  0.87251  1.0000
  F   F127      1.0  0.84701  0.80520  0.38320  1.0000
  F   F128      1.0  0.84851  0.79007  0.88836  1.0000
  F   F129      1.0  0.07294  0.26136  0.11894  1.0000
  F   F130      1.0  0.06657  0.24868  0.63909  1.0000
  F   F131      1.0  0.05269  0.74445  0.16185  1.0000
  F   F132      1.0  0.06165  0.76066  0.63461  1.0000
  F   F133      1.0  0.31614  0.25275  0.14004  1.0000
  F   F134      1.0  0.30683  0.25148  0.65285  1.0000
  F   F135      1.0  0.31502  0.75496  0.15248  1.0000
  F   F136      1.0  0.32281  0.75979  0.61731  1.0000
  F   F137      1.0  0.56064  0.24667  0.13389  1.0000
  F   F138      1.0  0.56831  0.24922  0.63501  1.0000
  F   F139      1.0  0.55795  0.73898  0.15732  1.0000
  F   F140      1.0  0.56506  0.74959  0.65785  1.0000
  F   F141      1.0  0.81538  0.23705  0.15019  1.0000
  F   F142      1.0  0.82681  0.24826  0.63197  1.0000
  F   F143      1.0  0.81558  0.74779  0.13696  1.0000
  F   F144      1.0  0.81386  0.74924  0.64485  1.0000
  F   F145      1.0  0.12861  0.36861  0.11055  1.0000
  F   F146      1.0  0.12716  0.37428  0.61436  1.0000
  F   F147      1.0  0.11883  0.85187  0.12850  1.0000
  F   F148      1.0  0.12000  0.88059  0.60580  1.0000
  F   F149      1.0  0.37321  0.36242  0.11257  1.0000
  F   F150      1.0  0.37433  0.35654  0.61719  1.0000
  F   F151      1.0  0.37201  0.89122  0.11200  1.0000
  F   F152      1.0  0.37623  0.87494  0.59699  1.0000
  F   F153      1.0  0.62469  0.35385  0.11123  1.0000
  F   F154      1.0  0.62054  0.36329  0.61490  1.0000
  F   F155      1.0  0.62190  0.86809  0.09965  1.0000
  F   F156      1.0  0.62775  0.88460  0.59401  1.0000
  F   F157      1.0  0.87175  0.37129  0.09746  1.0000
  F   F158      1.0  0.87720  0.36745  0.61911  1.0000
  F   F159      1.0  0.87078  0.86221  0.12650  1.0000
  F   F160      1.0  0.87292  0.86547  0.60674  1.0000
  F   F161      1.0  0.18839  0.26552  0.35385  1.0000
  F   F162      1.0  0.19394  0.24632  0.84315  1.0000
  F   F163      1.0  0.18784  0.75546  0.33837  1.0000
  F   F164      1.0  0.17554  0.75224  0.88282  1.0000
  F   F165      1.0  0.42619  0.25112  0.36053  1.0000
  F   F166      1.0  0.43552  0.25584  0.83769  1.0000
  F   F167      1.0  0.42787  0.74960  0.37825  1.0000
  F   F168      1.0  0.42918  0.74988  0.85170  1.0000
  F   F169      1.0  0.68968  0.25752  0.35598  1.0000
  F   F170      1.0  0.69113  0.24794  0.84949  1.0000
  F   F171      1.0  0.68022  0.74680  0.35677  1.0000
  F   F172      1.0  0.69357  0.73710  0.85708  1.0000
  F   F173      1.0  0.93022  0.24473  0.35420  1.0000
  F   F174      1.0  0.94182  0.25058  0.85212  1.0000
  F   F175      1.0  0.94108  0.74723  0.35142  1.0000
  F   F176      1.0  0.93656  0.74315  0.85900  1.0000
  F   F177      1.0  0.12938  0.14555  0.37273  1.0000
  F   F178      1.0  0.13008  0.12940  0.88526  1.0000
  F   F179      1.0  0.11935  0.63185  0.40352  1.0000
  F   F180      1.0  0.12327  0.62682  0.89542  1.0000
  F   F181      1.0  0.37647  0.13971  0.37846  1.0000
  F   F182      1.0  0.37525  0.11373  0.91303  1.0000
  F   F183      1.0  0.37258  0.65113  0.37874  1.0000
  F   F184      1.0  0.37204  0.62932  0.89453  1.0000
  F   F185      1.0  0.62777  0.14287  0.38259  1.0000
  F   F186      1.0  0.62931  0.12898  0.88430  1.0000
  F   F187      1.0  0.62247  0.61684  0.40691  1.0000
  F   F188      1.0  0.62825  0.61382  0.90501  1.0000
  F   F189      1.0  0.87468  0.12131  0.41174  1.0000
  F   F190      1.0  0.87733  0.11098  0.90500  1.0000
  F   F191      1.0  0.87633  0.62847  0.39562  1.0000
  F   F192      1.0  0.87856  0.62843  0.88047  1.0000
  F   F193      1.0  0.00799  0.35411  0.07831  1.0000
  F   F194      1.0  0.00401  0.34053  0.60752  1.0000
  F   F195      1.0  0.00752  0.84660  0.09058  1.0000
  F   F196      1.0  0.00966  0.86564  0.56491  1.0000
  F   F197      1.0  0.26219  0.37719  0.05701  1.0000
  F   F198      1.0  0.25671  0.36782  0.57996  1.0000
  F   F199      1.0  0.25846  0.86143  0.07696  1.0000
  F   F200      1.0  0.25433  0.85278  0.57967  1.0000
  F   F201      1.0  0.50692  0.36397  0.07610  1.0000
  F   F202      1.0  0.51326  0.35947  0.56718  1.0000
  F   F203      1.0  0.50226  0.87668  0.06700  1.0000
  F   F204      1.0  0.50844  0.87428  0.56177  1.0000
  F   F205      1.0  0.75976  0.36053  0.06949  1.0000
  F   F206      1.0  0.76008  0.36630  0.57807  1.0000
  F   F207      1.0  0.75277  0.85362  0.09682  1.0000
  F   F208      1.0  0.75837  0.86563  0.56137  1.0000
  F   F209      1.0  0.06748  0.48092  0.17164  1.0000
  F   F210      1.0  0.07203  0.49108  0.67204  1.0000
  F   F211      1.0  0.07551  0.98440  0.16490  1.0000
  F   F212      1.0  0.05818  0.98948  0.69226  1.0000
  F   F213      1.0  0.32048  0.50006  0.17214  1.0000
  F   F214      1.0  0.32002  0.47579  0.68615  1.0000
  F   F215      1.0  0.31350  0.98827  0.18619  1.0000
  F   F216      1.0  0.32415  0.98297  0.67331  1.0000
  F   F217      1.0  0.57007  0.47693  0.18661  1.0000
  F   F218      1.0  0.57028  0.48569  0.67551  1.0000
  F   F219      1.0  0.57532  0.97823  0.17752  1.0000
  F   F220      1.0  0.56210  0.99262  0.67472  1.0000
  F   F221      1.0  0.81827  0.47274  0.18551  1.0000
  F   F222      1.0  0.81290  0.48933  0.67516  1.0000
  F   F223      1.0  0.81825  0.98400  0.18069  1.0000
  F   F224      1.0  0.81950  0.98067  0.66675  1.0000
  F   F225      1.0  0.24014  0.14093  0.43730  1.0000
  F   F226      1.0  0.24780  0.12748  0.92625  1.0000
  F   F227      1.0  0.23710  0.64510  0.43817  1.0000
  F   F228      1.0  0.24122  0.64897  0.93366  1.0000
  F   F229      1.0  0.49156  0.14822  0.42418  1.0000
  F   F230      1.0  0.49707  0.13253  0.92582  1.0000
  F   F231      1.0  0.49604  0.64872  0.41844  1.0000
  F   F232      1.0  0.49159  0.64248  0.92709  1.0000
  F   F233      1.0  0.74097  0.13818  0.43851  1.0000
  F   F234      1.0  0.74121  0.13072  0.93656  1.0000
  F   F235      1.0  0.74422  0.63314  0.41523  1.0000
  F   F236      1.0  0.74032  0.63328  0.94315  1.0000
  F   F237      1.0  0.98956  0.14276  0.41865  1.0000
  F   F238      1.0  0.99642  0.12822  0.91981  1.0000
  F   F239      1.0  0.98766  0.63145  0.44833  1.0000
  F   F240      1.0  0.98613  0.63631  0.94890  1.0000
  F   F241      1.0  0.17746  0.00855  0.34534  1.0000
  F   F242      1.0  0.18494  0.01634  0.81871  1.0000
  F   F243      1.0  0.17775  0.51413  0.33618  1.0000
  F   F244      1.0  0.18602  0.52301  0.79701  1.0000
  F   F245      1.0  0.43371  0.03265  0.30804  1.0000
  F   F246      1.0  0.43382  0.00861  0.83205  1.0000
  F   F247      1.0  0.42455  0.51889  0.33090  1.0000
  F   F248      1.0  0.43097  0.51598  0.82242  1.0000
  F   F249      1.0  0.67610  0.01514  0.33719  1.0000
  F   F250      1.0  0.68117  0.00081  0.84103  1.0000
  F   F251      1.0  0.68970  0.50444  0.33175  1.0000
  F   F252      1.0  0.68588  0.51533  0.82213  1.0000
  F   F253      1.0  0.93138  0.00808  0.31298  1.0000
  F   F254      1.0  0.93281  0.00471  0.80254  1.0000
  F   F255      1.0  0.93129  0.51049  0.33066  1.0000
  F   F256      1.0  0.92698  0.51053  0.83787  1.0000
  F   F257      1.0  0.99995  0.25109  0.99929  1.0000
  F   F258      1.0  0.00014  0.25417  0.50062  1.0000
  F   F259      1.0  0.99868  0.75848  0.99697  1.0000
  F   F260      1.0  0.00274  0.75355  0.49787  1.0000
  F   F261      1.0  0.24895  0.25067  0.00103  1.0000
  F   F262      1.0  0.25256  0.25471  0.50434  1.0000
  F   F263      1.0  0.24530  0.75336  0.00250  1.0000
  F   F264      1.0  0.24384  0.75476  0.50981  1.0000
  F   F265      1.0  0.50893  0.25062  0.98781  1.0000
  F   F266      1.0  0.49947  0.26470  0.48526  1.0000
  F   F267      1.0  0.50123  0.74454  0.99919  1.0000
  F   F268      1.0  0.49416  0.74665  0.50998  1.0000
  F   F269      1.0  0.74604  0.22906  0.01415  1.0000
  F   F270      1.0  0.75610  0.26271  0.49693  1.0000
  F   F271      1.0  0.75248  0.75917  0.99601  1.0000
  F   F272      1.0  0.74672  0.73688  0.50143  1.0000
  F   F273      1.0  0.11447  0.00209  0.26769  1.0000
  F   F274      1.0  0.12949  0.00563  0.74633  1.0000
  F   F275      1.0  0.12424  0.50420  0.24614  1.0000
  F   F276      1.0  0.12022  0.51219  0.75419  1.0000
  F   F277      1.0  0.37614  0.00326  0.25208  1.0000
  F   F278      1.0  0.38398  0.02695  0.73357  1.0000
  F   F279      1.0  0.38516  0.52229  0.23168  1.0000
  F   F280      1.0  0.36453  0.50104  0.76073  1.0000
  F   F281      1.0  0.61744  0.98872  0.25796  1.0000
  F   F282      1.0  0.63102  0.00100  0.73949  1.0000
  F   F283      1.0  0.62398  0.49701  0.26111  1.0000
  F   F284      1.0  0.61949  0.48942  0.77560  1.0000
  F   F285      1.0  0.87581  0.99514  0.24737  1.0000
  F   F286      1.0  0.86200  0.99335  0.77262  1.0000
  F   F287      1.0  0.88092  0.49985  0.24285  1.0000
  F   F288      1.0  0.88044  0.49810  0.73443  1.0000
  F   F289      1.0  0.04216  0.03482  0.02635  1.0000
  F   F290      1.0  0.03962  0.03375  0.51526  1.0000
  F   F291      1.0  0.04229  0.53704  0.02202  1.0000
  F   F292      1.0  0.04114  0.51526  0.52792  1.0000
  F   F293      1.0  0.29042  0.02094  0.02927  1.0000
  F   F294      1.0  0.29531  0.03852  0.52350  1.0000
  F   F295      1.0  0.29023  0.53391  0.02412  1.0000
  F   F296      1.0  0.29992  0.52980  0.52427  1.0000
  F   F297      1.0  0.54657  0.02479  0.02847  1.0000
  F   F298      1.0  0.54347  0.03195  0.51800  1.0000
  F   F299      1.0  0.53986  0.53571  0.02218  1.0000
  F   F300      1.0  0.53744  0.53407  0.52639  1.0000
  F   F301      1.0  0.78852  0.03678  0.03516  1.0000
  F   F302      1.0  0.78787  0.03020  0.51772  1.0000
  F   F303      1.0  0.79339  0.51637  0.02462  1.0000
  F   F304      1.0  0.79529  0.53394  0.51741  1.0000
  F   F305      1.0  0.23461  0.42020  0.23697  1.0000
  F   F306      1.0  0.23801  0.39578  0.73481  1.0000
  F   F307      1.0  0.22987  0.91542  0.23456  1.0000
  F   F308      1.0  0.23156  0.92345  0.71762  1.0000
  F   F309      1.0  0.48334  0.39945  0.23881  1.0000
  F   F310      1.0  0.48104  0.42600  0.72453  1.0000
  F   F311      1.0  0.47968  0.90929  0.22928  1.0000
  F   F312      1.0  0.48490  0.88703  0.73190  1.0000
  F   F313      1.0  0.73336  0.41671  0.22011  1.0000
  F   F314      1.0  0.73183  0.41742  0.73007  1.0000
  F   F315      1.0  0.73070  0.90547  0.24299  1.0000
  F   F316      1.0  0.73627  0.90258  0.73264  1.0000
  F   F317      1.0  0.98284  0.40841  0.23161  1.0000
  F   F318      1.0  0.99004  0.41162  0.73430  1.0000
  F   F319      1.0  0.98410  0.91805  0.22322  1.0000
  F   F320      1.0  0.98143  0.89446  0.72550  1.0000
  F   F321      1.0  0.20948  0.47964  0.48336  1.0000
  F   F322      1.0  0.20743  0.47025  0.96401  1.0000
  F   F323      1.0  0.20647  0.96287  0.47787  1.0000
  F   F324      1.0  0.19944  0.96878  0.98864  1.0000
  F   F325      1.0  0.45997  0.47125  0.47339  1.0000
  F   F326      1.0  0.45893  0.47123  0.97472  1.0000
  F   F327      1.0  0.46287  0.97017  0.46011  1.0000
  F   F328      1.0  0.44012  0.97630  0.98880  1.0000
  F   F329      1.0  0.70360  0.46086  0.48923  1.0000
  F   F330      1.0  0.70474  0.45363  0.99117  1.0000
  F   F331      1.0  0.70662  0.95901  0.46922  1.0000
  F   F332      1.0  0.70606  0.96175  0.97772  1.0000
  F   F333      1.0  0.96576  0.46424  0.46939  1.0000
  F   F334      1.0  0.96166  0.46786  0.98567  1.0000
  F   F335      1.0  0.95023  0.97153  0.47659  1.0000
  F   F336      1.0  0.95596  0.96889  0.97392  1.0000
  F   F337      1.0  0.02266  0.07541  0.27498  1.0000
  F   F338      1.0  0.01192  0.09481  0.77289  1.0000
  F   F339      1.0  0.01751  0.57710  0.27543  1.0000
  F   F340      1.0  0.01635  0.57889  0.78606  1.0000
  F   F341      1.0  0.26531  0.07450  0.28667  1.0000
  F   F342      1.0  0.26926  0.08950  0.76056  1.0000
  F   F343      1.0  0.26301  0.59652  0.26946  1.0000
  F   F344      1.0  0.26424  0.59274  0.77254  1.0000
  F   F345      1.0  0.51968  0.07868  0.27899  1.0000
  F   F346      1.0  0.51716  0.09065  0.76738  1.0000
  F   F347      1.0  0.51027  0.57925  0.28737  1.0000
  F   F348      1.0  0.51547  0.58180  0.78103  1.0000
  F   F349      1.0  0.76578  0.07457  0.29243  1.0000
  F   F350      1.0  0.76652  0.07600  0.75767  1.0000
  F   F351      1.0  0.76816  0.57702  0.27335  1.0000
  F   F352      1.0  0.76155  0.59837  0.76771  1.0000
  F   F353      1.0  0.10575  0.39672  0.46860  1.0000
  F   F354      1.0  0.10303  0.42558  0.94855  1.0000
  F   F355      1.0  0.09971  0.91244  0.45728  1.0000
  F   F356      1.0  0.10082  0.91643  0.96922  1.0000
  F   F357      1.0  0.34983  0.40416  0.45850  1.0000
  F   F358      1.0  0.35510  0.41045  0.96354  1.0000
  F   F359      1.0  0.35030  0.92306  0.45056  1.0000
  F   F360      1.0  0.35235  0.90040  0.97351  1.0000
  F   F361      1.0  0.60408  0.41136  0.45957  1.0000
  F   F362      1.0  0.60335  0.42580  0.95722  1.0000
  F   F363      1.0  0.59638  0.90661  0.46130  1.0000
  F   F364      1.0  0.59861  0.90847  0.96123  1.0000
  F   F365      1.0  0.84691  0.42301  0.45891  1.0000
  F   F366      1.0  0.85008  0.38558  0.95435  1.0000
  F   F367      1.0  0.85487  0.92597  0.44848  1.0000
  F   F368      1.0  0.84424  0.92289  0.98091  1.0000
  F   F369      1.0  0.04786  0.30391  0.27841  1.0000
  F   F370      1.0  0.04741  0.29153  0.78600  1.0000
  F   F371      1.0  0.04083  0.79609  0.28977  1.0000
  F   F372      1.0  0.04611  0.80925  0.78688  1.0000
  F   F373      1.0  0.29296  0.29831  0.28127  1.0000
  F   F374      1.0  0.29635  0.29335  0.79904  1.0000
  F   F375      1.0  0.29040  0.79298  0.29360  1.0000
  F   F376      1.0  0.29140  0.80730  0.78045  1.0000
  F   F377      1.0  0.54419  0.30005  0.29117  1.0000
  F   F378      1.0  0.55183  0.28302  0.79076  1.0000
  F   F379      1.0  0.54442  0.80263  0.29392  1.0000
  F   F380      1.0  0.54535  0.80649  0.79674  1.0000
  F   F381      1.0  0.79908  0.29169  0.28954  1.0000
  F   F382      1.0  0.79405  0.29363  0.78668  1.0000
  F   F383      1.0  0.79245  0.78866  0.29151  1.0000
  F   F384      1.0  0.80438  0.79125  0.78848  1.0000
