data_image0
_chemical_formula_structural       Hf96F384
_chemical_formula_sum              "Hf96 F384"
_cell_length_a       31.0463
_cell_length_b       15.5256
_cell_length_c       15.5141
_cell_angle_alpha    63.342
_cell_angle_beta     63.342
_cell_angle_gamma    80.1625

_space_group_name_H-M_alt    "P 1"
_space_group_IT_number       1

loop_
  _space_group_symop_operation_xyz
  'x, y, z'

loop_
  _atom_site_type_symbol
  _atom_site_label
  _atom_site_symmetry_multiplicity
  _atom_site_fract_x
  _atom_site_fract_y
  _atom_site_fract_z
  _atom_site_occupancy
  Hf  Hf1       1.0  0.19402  0.10860  0.37772  1.0000
  Hf  Hf2       1.0  0.19535  0.10875  0.88194  1.0000
  Hf  Hf3       1.0  0.19505  0.60253  0.38168  1.0000
  Hf  Hf4       1.0  0.19380  0.61327  0.87444  1.0000
  Hf  Hf5       1.0  0.44242  0.10305  0.37900  1.0000
  Hf  Hf6       1.0  0.44764  0.10039  0.87531  1.0000
  Hf  Hf7       1.0  0.44530  0.61163  0.37289  1.0000
  Hf  Hf8       1.0  0.44396  0.59896  0.88790  1.0000
  Hf  Hf9       1.0  0.69727  0.10290  0.37139  1.0000
  Hf  Hf10      1.0  0.69590  0.11080  0.86919  1.0000
  Hf  Hf11      1.0  0.69312  0.61218  0.37613  1.0000
  Hf  Hf12      1.0  0.69561  0.60427  0.87382  1.0000
  Hf  Hf13      1.0  0.94936  0.11366  0.36633  1.0000
  Hf  Hf14      1.0  0.94744  0.10424  0.87569  1.0000
  Hf  Hf15      1.0  0.94798  0.61242  0.36980  1.0000
  Hf  Hf16      1.0  0.94002  0.60836  0.87544  1.0000
  Hf  Hf17      1.0  0.05742  0.39768  0.12189  1.0000
  Hf  Hf18      1.0  0.05346  0.39286  0.63109  1.0000
  Hf  Hf19      1.0  0.05674  0.88555  0.12787  1.0000
  Hf  Hf20      1.0  0.05480  0.89920  0.61635  1.0000
  Hf  Hf21      1.0  0.30304  0.39704  0.11899  1.0000
  Hf  Hf22      1.0  0.30269  0.39160  0.63057  1.0000
  Hf  Hf23      1.0  0.30724  0.89600  0.11250  1.0000
  Hf  Hf24      1.0  0.30645  0.89708  0.61427  1.0000
  Hf  Hf25      1.0  0.55485  0.39599  0.11311  1.0000
  Hf  Hf26      1.0  0.55530  0.39311  0.63306  1.0000
  Hf  Hf27      1.0  0.55030  0.88881  0.13042  1.0000
  Hf  Hf28      1.0  0.55532  0.89550  0.61412  1.0000
  Hf  Hf29      1.0  0.80649  0.39047  0.12465  1.0000
  Hf  Hf30      1.0  0.80182  0.39157  0.63356  1.0000
  Hf  Hf31      1.0  0.80611  0.89011  0.11697  1.0000
  Hf  Hf32      1.0  0.80464  0.88614  0.62652  1.0000
  Hf  Hf33      1.0  0.05337  0.17733  0.41827  1.0000
  Hf  Hf34      1.0  0.05831  0.18700  0.91619  1.0000
  Hf  Hf35      1.0  0.05676  0.68349  0.41154  1.0000
  Hf  Hf36      1.0  0.04994  0.69118  0.91797  1.0000
  Hf  Hf37      1.0  0.30069  0.17660  0.43164  1.0000
  Hf  Hf38      1.0  0.30538  0.18151  0.92305  1.0000
  Hf  Hf39      1.0  0.30707  0.68348  0.41551  1.0000
  Hf  Hf40      1.0  0.30333  0.68382  0.91963  1.0000
  Hf  Hf41      1.0  0.55543  0.19160  0.40486  1.0000
  Hf  Hf42      1.0  0.55384  0.17548  0.92321  1.0000
  Hf  Hf43      1.0  0.55419  0.67531  0.41653  1.0000
  Hf  Hf44      1.0  0.55620  0.68390  0.91207  1.0000
  Hf  Hf45      1.0  0.80926  0.18807  0.40298  1.0000
  Hf  Hf46      1.0  0.80080  0.18096  0.92206  1.0000
  Hf  Hf47      1.0  0.80468  0.68213  0.41988  1.0000
  Hf  Hf48      1.0  0.80289  0.68142  0.92006  1.0000
  Hf  Hf49      1.0  0.15871  0.38480  0.33531  1.0000
  Hf  Hf50      1.0  0.15667  0.39250  0.82849  1.0000
  Hf  Hf51      1.0  0.16189  0.88644  0.32982  1.0000
  Hf  Hf52      1.0  0.16282  0.89088  0.82801  1.0000
  Hf  Hf53      1.0  0.40659  0.38817  0.33245  1.0000
  Hf  Hf54      1.0  0.40810  0.38071  0.83664  1.0000
  Hf  Hf55      1.0  0.40871  0.89281  0.33376  1.0000
  Hf  Hf56      1.0  0.41478  0.88211  0.82564  1.0000
  Hf  Hf57      1.0  0.65686  0.38315  0.34215  1.0000
  Hf  Hf58      1.0  0.65656  0.38973  0.83249  1.0000
  Hf  Hf59      1.0  0.66167  0.88998  0.32832  1.0000
  Hf  Hf60      1.0  0.65552  0.87925  0.83802  1.0000
  Hf  Hf61      1.0  0.90781  0.38642  0.34185  1.0000
  Hf  Hf62      1.0  0.90990  0.38419  0.83436  1.0000
  Hf  Hf63      1.0  0.91117  0.88776  0.33251  1.0000
  Hf  Hf64      1.0  0.90883  0.89018  0.83800  1.0000
  Hf  Hf65      1.0  0.19250  0.31867  0.08338  1.0000
  Hf  Hf66      1.0  0.19130  0.32418  0.58384  1.0000
  Hf  Hf67      1.0  0.19696  0.81340  0.08352  1.0000
  Hf  Hf68      1.0  0.19544  0.82346  0.58051  1.0000
  Hf  Hf69      1.0  0.44208  0.31419  0.09170  1.0000
  Hf  Hf70      1.0  0.44135  0.32360  0.58320  1.0000
  Hf  Hf71      1.0  0.44493  0.81617  0.07821  1.0000
  Hf  Hf72      1.0  0.44487  0.81846  0.57776  1.0000
  Hf  Hf73      1.0  0.69380  0.31898  0.08531  1.0000
  Hf  Hf74      1.0  0.69964  0.32340  0.58032  1.0000
  Hf  Hf75      1.0  0.69044  0.81611  0.08676  1.0000
  Hf  Hf76      1.0  0.69828  0.82150  0.57936  1.0000
  Hf  Hf77      1.0  0.94868  0.32523  0.08492  1.0000
  Hf  Hf78      1.0  0.94548  0.31154  0.58557  1.0000
  Hf  Hf79      1.0  0.94359  0.81866  0.08054  1.0000
  Hf  Hf80      1.0  0.94661  0.81793  0.57838  1.0000
  Hf  Hf81      1.0  0.09181  0.10905  0.15990  1.0000
  Hf  Hf82      1.0  0.08832  0.11836  0.67075  1.0000
  Hf  Hf83      1.0  0.09312  0.61262  0.16729  1.0000
  Hf  Hf84      1.0  0.09474  0.61424  0.66889  1.0000
  Hf  Hf85      1.0  0.33983  0.11101  0.17287  1.0000
  Hf  Hf86      1.0  0.34429  0.11035  0.66614  1.0000
  Hf  Hf87      1.0  0.33955  0.61296  0.17214  1.0000
  Hf  Hf88      1.0  0.34052  0.60930  0.67762  1.0000
  Hf  Hf89      1.0  0.58867  0.11084  0.16485  1.0000
  Hf  Hf90      1.0  0.59256  0.12133  0.66186  1.0000
  Hf  Hf91      1.0  0.58995  0.60300  0.16720  1.0000
  Hf  Hf92      1.0  0.59356  0.61067  0.66560  1.0000
  Hf  Hf93      1.0  0.84817  0.11548  0.15921  1.0000
  Hf  Hf94      1.0  0.83949  0.11314  0.66535  1.0000
  Hf  Hf95      1.0  0.83848  0.60630  0.18081  1.0000
  Hf  Hf96      1.0  0.84304  0.61285  0.66805  1.0000
  F   F1        1.0  0.07965  0.12126  0.29772  1.0000
  F   F2        1.0  0.07846  0.11038  0.82186  1.0000
  F   F3        1.0  0.08155  0.61934  0.30808  1.0000
  F   F4        1.0  0.08020  0.63888  0.80532  1.0000
  F   F5        1.0  0.32391  0.11930  0.31212  1.0000
  F   F6        1.0  0.33385  0.13191  0.80407  1.0000
  F   F7        1.0  0.33046  0.62133  0.30978  1.0000
  F   F8        1.0  0.32515  0.63925  0.80444  1.0000
  F   F9        1.0  0.58282  0.11712  0.29839  1.0000
  F   F10       1.0  0.57414  0.12482  0.80499  1.0000
  F   F11       1.0  0.57795  0.61392  0.30999  1.0000
  F   F12       1.0  0.57278  0.62956  0.80670  1.0000
  F   F13       1.0  0.84036  0.13376  0.29213  1.0000
  F   F14       1.0  0.82651  0.11662  0.82073  1.0000
  F   F15       1.0  0.82425  0.62211  0.31158  1.0000
  F   F16       1.0  0.81964  0.61165  0.81417  1.0000
  F   F17       1.0  0.19562  0.34134  0.43053  1.0000
  F   F18       1.0  0.17355  0.34068  0.95808  1.0000
  F   F19       1.0  0.17751  0.82921  0.46231  1.0000
  F   F20       1.0  0.19235  0.84264  0.94230  1.0000
  F   F21       1.0  0.42550  0.33481  0.45397  1.0000
  F   F22       1.0  0.43718  0.33692  0.95064  1.0000
  F   F23       1.0  0.43409  0.85287  0.44229  1.0000
  F   F24       1.0  0.43295  0.82877  0.95286  1.0000
  F   F25       1.0  0.68049  0.33584  0.46151  1.0000
  F   F26       1.0  0.68505  0.34925  0.94703  1.0000
  F   F27       1.0  0.68778  0.84905  0.43912  1.0000
  F   F28       1.0  0.69349  0.84619  0.93492  1.0000
  F   F29       1.0  0.92802  0.33847  0.45707  1.0000
  F   F30       1.0  0.93479  0.34518  0.94533  1.0000
  F   F31       1.0  0.94055  0.82852  0.43920  1.0000
  F   F32       1.0  0.93788  0.84586  0.94370  1.0000
  F   F33       1.0  0.17589  0.36843  0.18974  1.0000
  F   F34       1.0  0.16847  0.38200  0.69204  1.0000
  F   F35       1.0  0.17352  0.85726  0.20249  1.0000
  F   F36       1.0  0.17584  0.88934  0.68701  1.0000
  F   F37       1.0  0.41575  0.34832  0.20918  1.0000
  F   F38       1.0  0.41950  0.39197  0.68630  1.0000
  F   F39       1.0  0.41775  0.86825  0.19349  1.0000
  F   F40       1.0  0.42732  0.88054  0.68721  1.0000
  F   F41       1.0  0.67045  0.36016  0.20056  1.0000
  F   F42       1.0  0.67048  0.37347  0.69950  1.0000
  F   F43       1.0  0.67408  0.86690  0.18998  1.0000
  F   F44       1.0  0.66549  0.87044  0.70175  1.0000
  F   F45       1.0  0.93012  0.39477  0.19146  1.0000
  F   F46       1.0  0.92549  0.35447  0.70207  1.0000
  F   F47       1.0  0.92013  0.87826  0.19305  1.0000
  F   F48       1.0  0.91995  0.87789  0.68481  1.0000
  F   F49       1.0  0.06323  0.14915  0.05406  1.0000
  F   F50       1.0  0.06511  0.16019  0.54782  1.0000
  F   F51       1.0  0.06854  0.68118  0.03919  1.0000
  F   F52       1.0  0.06426  0.65520  0.55699  1.0000
  F   F53       1.0  0.30909  0.15789  0.06848  1.0000
  F   F54       1.0  0.31786  0.14851  0.55066  1.0000
  F   F55       1.0  0.31245  0.65986  0.06787  1.0000
  F   F56       1.0  0.31798  0.66507  0.55233  1.0000
  F   F57       1.0  0.54864  0.14764  0.07186  1.0000
  F   F58       1.0  0.56914  0.17301  0.53070  1.0000
  F   F59       1.0  0.57210  0.65661  0.04532  1.0000
  F   F60       1.0  0.56602  0.64377  0.55652  1.0000
  F   F61       1.0  0.82051  0.16022  0.04550  1.0000
  F   F62       1.0  0.81413  0.15969  0.55306  1.0000
  F   F63       1.0  0.81947  0.65975  0.05321  1.0000
  F   F64       1.0  0.81099  0.66146  0.55891  1.0000
  F   F65       1.0  0.20169  0.20221  0.22087  1.0000
  F   F66       1.0  0.20172  0.21072  0.70111  1.0000
  F   F67       1.0  0.20159  0.69942  0.21256  1.0000
  F   F68       1.0  0.20493  0.72187  0.71170  1.0000
  F   F69       1.0  0.45517  0.19368  0.21061  1.0000
  F   F70       1.0  0.44202  0.19496  0.72080  1.0000
  F   F71       1.0  0.45553  0.70220  0.20989  1.0000
  F   F72       1.0  0.45300  0.70467  0.69512  1.0000
  F   F73       1.0  0.71443  0.19139  0.21238  1.0000
  F   F74       1.0  0.71028  0.19995  0.70367  1.0000
  F   F75       1.0  0.70024  0.68953  0.21328  1.0000
  F   F76       1.0  0.70326  0.71105  0.71513  1.0000
  F   F77       1.0  0.95687  0.20560  0.20979  1.0000
  F   F78       1.0  0.95732  0.19243  0.71511  1.0000
  F   F79       1.0  0.94149  0.69810  0.21351  1.0000
  F   F80       1.0  0.95232  0.71762  0.71401  1.0000
  F   F81       1.0  0.14932  0.09583  0.03358  1.0000
  F   F82       1.0  0.15374  0.09316  0.53385  1.0000
  F   F83       1.0  0.14547  0.58058  0.04739  1.0000
  F   F84       1.0  0.14556  0.56851  0.54811  1.0000
  F   F85       1.0  0.39841  0.08439  0.04848  1.0000
  F   F86       1.0  0.39806  0.07734  0.53479  1.0000
  F   F87       1.0  0.39531  0.60243  0.04302  1.0000
  F   F88       1.0  0.39822  0.58316  0.53675  1.0000
  F   F89       1.0  0.64680  0.09874  0.02668  1.0000
  F   F90       1.0  0.65277  0.10010  0.52862  1.0000
  F   F91       1.0  0.64671  0.57189  0.04150  1.0000
  F   F92       1.0  0.65175  0.57831  0.54644  1.0000
  F   F93       1.0  0.90264  0.08754  0.04901  1.0000
  F   F94       1.0  0.89761  0.09648  0.54140  1.0000
  F   F95       1.0  0.89993  0.57912  0.03529  1.0000
  F   F96       1.0  0.90666  0.60859  0.52982  1.0000
  F   F97       1.0  0.16227  0.19360  0.11504  1.0000
  F   F98       1.0  0.15409  0.20532  0.61279  1.0000
  F   F99       1.0  0.15048  0.70335  0.11671  1.0000
  F   F100      1.0  0.15410  0.68023  0.63715  1.0000
  F   F101      1.0  0.39704  0.20853  0.12124  1.0000
  F   F102      1.0  0.40553  0.19255  0.60553  1.0000
  F   F103      1.0  0.39579  0.69928  0.13750  1.0000
  F   F104      1.0  0.40067  0.69647  0.60391  1.0000
  F   F105      1.0  0.65455  0.20006  0.12095  1.0000
  F   F106      1.0  0.65327  0.19435  0.63305  1.0000
  F   F107      1.0  0.64843  0.68885  0.11890  1.0000
  F   F108      1.0  0.65110  0.70154  0.62447  1.0000
  F   F109      1.0  0.90786  0.20131  0.11258  1.0000
  F   F110      1.0  0.89742  0.20123  0.63059  1.0000
  F   F111      1.0  0.89777  0.69458  0.12351  1.0000
  F   F112      1.0  0.90015  0.69161  0.62937  1.0000
  F   F113      1.0  0.08843  0.30898  0.37382  1.0000
  F   F114      1.0  0.09671  0.31180  0.87382  1.0000
  F   F115      1.0  0.09556  0.81289  0.37712  1.0000
  F   F116      1.0  0.10128  0.81621  0.85167  1.0000
  F   F117      1.0  0.35005  0.29670  0.38955  1.0000
  F   F118      1.0  0.35424  0.29391  0.87105  1.0000
  F   F119      1.0  0.35435  0.80573  0.39354  1.0000
  F   F120      1.0  0.35293  0.80208  0.87506  1.0000
  F   F121      1.0  0.60011  0.31141  0.35016  1.0000
  F   F122      1.0  0.60198  0.30102  0.86730  1.0000
  F   F123      1.0  0.59338  0.79556  0.37292  1.0000
  F   F124      1.0  0.58928  0.80240  0.88897  1.0000
  F   F125      1.0  0.84554  0.31038  0.37014  1.0000
  F   F126      1.0  0.84611  0.30037  0.87733  1.0000
  F   F127      1.0  0.85409  0.79177  0.37837  1.0000
  F   F128      1.0  0.83924  0.81650  0.88937  1.0000
  F   F129      1.0  0.08012  0.25797  0.11714  1.0000
  F   F130      1.0  0.06021  0.24869  0.66723  1.0000
  F   F131      1.0  0.06498  0.74711  0.14724  1.0000
  F   F132      1.0  0.06454  0.74794  0.64499  1.0000
  F   F133      1.0  0.30903  0.25331  0.15370  1.0000
  F   F134      1.0  0.31810  0.25284  0.63311  1.0000
  F   F135      1.0  0.30573  0.75221  0.15807  1.0000
  F   F136      1.0  0.30946  0.74840  0.65546  1.0000
  F   F137      1.0  0.57017  0.24929  0.12885  1.0000
  F   F138      1.0  0.56634  0.25372  0.63625  1.0000
  F   F139      1.0  0.56090  0.74390  0.13325  1.0000
  F   F140      1.0  0.55774  0.75102  0.64179  1.0000
  F   F141      1.0  0.81985  0.24721  0.14793  1.0000
  F   F142      1.0  0.81128  0.24910  0.65120  1.0000
  F   F143      1.0  0.81785  0.74906  0.13939  1.0000
  F   F144      1.0  0.81048  0.74590  0.65717  1.0000
  F   F145      1.0  0.12862  0.38452  0.10581  1.0000
  F   F146      1.0  0.12622  0.37750  0.60166  1.0000
  F   F147      1.0  0.12415  0.85100  0.12728  1.0000
  F   F148      1.0  0.12826  0.87592  0.60989  1.0000
  F   F149      1.0  0.37356  0.38801  0.08127  1.0000
  F   F150      1.0  0.37128  0.37044  0.62485  1.0000
  F   F151      1.0  0.37512  0.87741  0.09557  1.0000
  F   F152      1.0  0.37363  0.87375  0.60624  1.0000
  F   F153      1.0  0.62625  0.37594  0.10692  1.0000
  F   F154      1.0  0.62601  0.37935  0.61178  1.0000
  F   F155      1.0  0.62115  0.84860  0.11402  1.0000
  F   F156      1.0  0.62479  0.86736  0.61034  1.0000
  F   F157      1.0  0.87755  0.37744  0.10413  1.0000
  F   F158      1.0  0.87036  0.36837  0.61830  1.0000
  F   F159      1.0  0.87494  0.87146  0.10624  1.0000
  F   F160      1.0  0.87518  0.86191  0.60345  1.0000
  F   F161      1.0  0.18535  0.25244  0.34911  1.0000
  F   F162      1.0  0.19132  0.25107  0.83918  1.0000
  F   F163      1.0  0.18644  0.75177  0.34380  1.0000
  F   F164      1.0  0.17496  0.74946  0.87707  1.0000
  F   F165      1.0  0.44221  0.24750  0.34084  1.0000
  F   F166      1.0  0.44445  0.24632  0.85102  1.0000
  F   F167      1.0  0.44749  0.75040  0.34693  1.0000
  F   F168      1.0  0.43558  0.73943  0.84474  1.0000
  F   F169      1.0  0.67789  0.24130  0.36203  1.0000
  F   F170      1.0  0.68170  0.24969  0.85539  1.0000
  F   F171      1.0  0.67677  0.75184  0.36400  1.0000
  F   F172      1.0  0.67756  0.74018  0.87512  1.0000
  F   F173      1.0  0.93495  0.25520  0.35923  1.0000
  F   F174      1.0  0.93347  0.24314  0.86933  1.0000
  F   F175      1.0  0.95080  0.75095  0.33197  1.0000
  F   F176      1.0  0.92259  0.74698  0.88330  1.0000
  F   F177      1.0  0.12632  0.12914  0.38557  1.0000
  F   F178      1.0  0.12788  0.14032  0.87836  1.0000
  F   F179      1.0  0.12750  0.64406  0.38283  1.0000
  F   F180      1.0  0.12366  0.62094  0.90119  1.0000
  F   F181      1.0  0.36986  0.13336  0.38543  1.0000
  F   F182      1.0  0.37552  0.11387  0.91812  1.0000
  F   F183      1.0  0.37820  0.64911  0.37357  1.0000
  F   F184      1.0  0.37473  0.63206  0.88535  1.0000
  F   F185      1.0  0.62828  0.12709  0.37286  1.0000
  F   F186      1.0  0.62389  0.12602  0.88296  1.0000
  F   F187      1.0  0.62668  0.63053  0.38182  1.0000
  F   F188      1.0  0.62313  0.62583  0.89029  1.0000
  F   F189      1.0  0.87790  0.13278  0.39534  1.0000
  F   F190      1.0  0.88227  0.12950  0.88262  1.0000
  F   F191      1.0  0.87401  0.61615  0.39601  1.0000
  F   F192      1.0  0.86982  0.62564  0.89567  1.0000
  F   F193      1.0  0.01123  0.35472  0.09039  1.0000
  F   F194      1.0  0.00982  0.35120  0.57432  1.0000
  F   F195      1.0  0.00254  0.84668  0.09826  1.0000
  F   F196      1.0  0.01048  0.87222  0.55442  1.0000
  F   F197      1.0  0.26113  0.37728  0.05776  1.0000
  F   F198      1.0  0.25696  0.36282  0.58323  1.0000
  F   F199      1.0  0.26010  0.86838  0.05641  1.0000
  F   F200      1.0  0.26045  0.86502  0.55712  1.0000
  F   F201      1.0  0.50632  0.35110  0.08732  1.0000
  F   F202      1.0  0.50447  0.34881  0.59255  1.0000
  F   F203      1.0  0.50684  0.86122  0.06325  1.0000
  F   F204      1.0  0.50776  0.87030  0.56469  1.0000
  F   F205      1.0  0.75987  0.35123  0.07894  1.0000
  F   F206      1.0  0.75172  0.35979  0.59643  1.0000
  F   F207      1.0  0.76076  0.87125  0.06775  1.0000
  F   F208      1.0  0.75959  0.86527  0.57160  1.0000
  F   F209      1.0  0.07422  0.48364  0.17751  1.0000
  F   F210      1.0  0.06115  0.47751  0.69343  1.0000
  F   F211      1.0  0.07501  0.98468  0.16784  1.0000
  F   F212      1.0  0.07031  0.99158  0.66389  1.0000
  F   F213      1.0  0.32006  0.48712  0.16239  1.0000
  F   F214      1.0  0.31924  0.48702  0.67926  1.0000
  F   F215      1.0  0.31170  0.97540  0.18835  1.0000
  F   F216      1.0  0.31496  0.97631  0.67294  1.0000
  F   F217      1.0  0.56270  0.48055  0.17397  1.0000
  F   F218      1.0  0.56975  0.47259  0.69714  1.0000
  F   F219      1.0  0.56903  0.97958  0.17472  1.0000
  F   F220      1.0  0.57286  0.99645  0.67049  1.0000
  F   F221      1.0  0.82129  0.47783  0.17121  1.0000
  F   F222      1.0  0.81819  0.49107  0.67666  1.0000
  F   F223      1.0  0.82051  0.98584  0.16770  1.0000
  F   F224      1.0  0.81389  0.98287  0.68439  1.0000
  F   F225      1.0  0.23688  0.14333  0.42940  1.0000
  F   F226      1.0  0.23815  0.13062  0.94723  1.0000
  F   F227      1.0  0.23449  0.64718  0.43574  1.0000
  F   F228      1.0  0.23741  0.64418  0.92323  1.0000
  F   F229      1.0  0.49114  0.13713  0.43068  1.0000
  F   F230      1.0  0.49517  0.13031  0.92980  1.0000
  F   F231      1.0  0.49324  0.62870  0.43435  1.0000
  F   F232      1.0  0.48907  0.64189  0.92832  1.0000
  F   F233      1.0  0.74816  0.14258  0.41386  1.0000
  F   F234      1.0  0.74220  0.15576  0.91121  1.0000
  F   F235      1.0  0.73901  0.64680  0.42771  1.0000
  F   F236      1.0  0.73986  0.64092  0.93619  1.0000
  F   F237      1.0  0.99246  0.13458  0.41871  1.0000
  F   F238      1.0  0.99120  0.15129  0.91449  1.0000
  F   F239      1.0  0.99473  0.63474  0.41780  1.0000
  F   F240      1.0  0.99140  0.64443  0.91512  1.0000
  F   F241      1.0  0.18446  0.00735  0.32492  1.0000
  F   F242      1.0  0.18617  0.02620  0.80787  1.0000
  F   F243      1.0  0.17328  0.50930  0.35308  1.0000
  F   F244      1.0  0.18142  0.51847  0.82602  1.0000
  F   F245      1.0  0.42415  0.01260  0.33879  1.0000
  F   F246      1.0  0.43384  0.00790  0.82147  1.0000
  F   F247      1.0  0.43134  0.50794  0.32949  1.0000
  F   F248      1.0  0.42690  0.51127  0.84552  1.0000
  F   F249      1.0  0.69279  0.01038  0.31171  1.0000
  F   F250      1.0  0.68415  0.01253  0.82227  1.0000
  F   F251      1.0  0.67659  0.51462  0.33996  1.0000
  F   F252      1.0  0.67547  0.52270  0.81955  1.0000
  F   F253      1.0  0.93041  0.01321  0.33251  1.0000
  F   F254      1.0  0.93847  0.01317  0.81843  1.0000
  F   F255      1.0  0.93514  0.50669  0.31631  1.0000
  F   F256      1.0  0.92784  0.51222  0.83062  1.0000
  F   F257      1.0  0.00050  0.25625  0.00207  1.0000
  F   F258      1.0  0.99644  0.24794  0.48969  1.0000
  F   F259      1.0  0.99870  0.75249  0.00913  1.0000
  F   F260      1.0  0.99772  0.74469  0.50367  1.0000
  F   F261      1.0  0.25313  0.26354  0.97696  1.0000
  F   F262      1.0  0.24657  0.24654  0.51263  1.0000
  F   F263      1.0  0.24505  0.72520  0.02846  1.0000
  F   F264      1.0  0.24688  0.75782  0.48929  1.0000
  F   F265      1.0  0.50184  0.25225  0.99666  1.0000
  F   F266      1.0  0.49705  0.26618  0.48950  1.0000
  F   F267      1.0  0.49625  0.72827  0.01119  1.0000
  F   F268      1.0  0.49660  0.75297  0.49269  1.0000
  F   F269      1.0  0.75019  0.24911  0.00617  1.0000
  F   F270      1.0  0.75288  0.27132  0.48623  1.0000
  F   F271      1.0  0.75178  0.74437  0.00798  1.0000
  F   F272      1.0  0.74959  0.75506  0.49951  1.0000
  F   F273      1.0  0.12789  0.99911  0.24645  1.0000
  F   F274      1.0  0.12153  0.00551  0.74377  1.0000
  F   F275      1.0  0.13106  0.50157  0.24886  1.0000
  F   F276      1.0  0.12196  0.50284  0.75380  1.0000
  F   F277      1.0  0.37674  0.99855  0.24662  1.0000
  F   F278      1.0  0.37176  0.99800  0.75540  1.0000
  F   F279      1.0  0.37001  0.49861  0.25386  1.0000
  F   F280      1.0  0.37451  0.50085  0.76604  1.0000
  F   F281      1.0  0.63285  0.99978  0.23260  1.0000
  F   F282      1.0  0.62693  0.01073  0.74595  1.0000
  F   F283      1.0  0.62031  0.49258  0.25605  1.0000
  F   F284      1.0  0.62923  0.49690  0.74153  1.0000
  F   F285      1.0  0.87109  0.99337  0.26136  1.0000
  F   F286      1.0  0.87283  0.99552  0.75298  1.0000
  F   F287      1.0  0.87069  0.49169  0.26560  1.0000
  F   F288      1.0  0.88489  0.49599  0.73535  1.0000
  F   F289      1.0  0.04892  0.01852  0.02293  1.0000
  F   F290      1.0  0.04569  0.03473  0.50931  1.0000
  F   F291      1.0  0.03642  0.54367  0.03447  1.0000
  F   F292      1.0  0.04970  0.52511  0.51380  1.0000
  F   F293      1.0  0.29659  0.02788  0.01369  1.0000
  F   F294      1.0  0.28347  0.03556  0.52644  1.0000
  F   F295      1.0  0.29331  0.53254  0.01141  1.0000
  F   F296      1.0  0.29229  0.54937  0.52156  1.0000
  F   F297      1.0  0.54579  0.01870  0.03207  1.0000
  F   F298      1.0  0.54672  0.03322  0.52065  1.0000
  F   F299      1.0  0.54233  0.52616  0.01029  1.0000
  F   F300      1.0  0.53824  0.51953  0.53333  1.0000
  F   F301      1.0  0.78824  0.03315  0.03016  1.0000
  F   F302      1.0  0.79743  0.03412  0.51832  1.0000
  F   F303      1.0  0.79350  0.53031  0.02430  1.0000
  F   F304      1.0  0.78281  0.52226  0.53459  1.0000
  F   F305      1.0  0.23285  0.42068  0.22268  1.0000
  F   F306      1.0  0.22804  0.42657  0.72754  1.0000
  F   F307      1.0  0.23291  0.92501  0.21725  1.0000
  F   F308      1.0  0.23687  0.89088  0.74125  1.0000
  F   F309      1.0  0.47657  0.42300  0.20824  1.0000
  F   F310      1.0  0.48347  0.41340  0.74032  1.0000
  F   F311      1.0  0.48202  0.91878  0.22654  1.0000
  F   F312      1.0  0.48833  0.91067  0.72756  1.0000
  F   F313      1.0  0.73744  0.40238  0.23093  1.0000
  F   F314      1.0  0.73259  0.42039  0.73497  1.0000
  F   F315      1.0  0.73529  0.89242  0.23110  1.0000
  F   F316      1.0  0.73528  0.89979  0.72511  1.0000
  F   F317      1.0  0.99647  0.41050  0.23336  1.0000
  F   F318      1.0  0.98540  0.41092  0.72821  1.0000
  F   F319      1.0  0.98426  0.92240  0.22465  1.0000
  F   F320      1.0  0.98343  0.91006  0.72516  1.0000
  F   F321      1.0  0.21713  0.46285  0.48041  1.0000
  F   F322      1.0  0.20827  0.47387  0.97686  1.0000
  F   F323      1.0  0.21101  0.97092  0.47836  1.0000
  F   F324      1.0  0.20349  0.97096  0.98678  1.0000
  F   F325      1.0  0.45777  0.46546  0.47313  1.0000
  F   F326      1.0  0.45057  0.47077  0.99765  1.0000
  F   F327      1.0  0.46193  0.95911  0.47484  1.0000
  F   F328      1.0  0.45946  0.97034  0.96864  1.0000
  F   F329      1.0  0.71254  0.46593  0.47645  1.0000
  F   F330      1.0  0.71628  0.48314  0.97163  1.0000
  F   F331      1.0  0.70900  0.97171  0.47981  1.0000
  F   F332      1.0  0.70327  0.97033  0.98461  1.0000
  F   F333      1.0  0.95224  0.46610  0.47151  1.0000
  F   F334      1.0  0.96083  0.46797  0.97313  1.0000
  F   F335      1.0  0.95107  0.97336  0.47245  1.0000
  F   F336      1.0  0.96170  0.96751  0.97240  1.0000
  F   F337      1.0  0.01865  0.07648  0.26777  1.0000
  F   F338      1.0  0.01747  0.07989  0.77542  1.0000
  F   F339      1.0  0.01638  0.60684  0.25284  1.0000
  F   F340      1.0  0.01190  0.58543  0.77861  1.0000
  F   F341      1.0  0.26546  0.08819  0.27172  1.0000
  F   F342      1.0  0.27061  0.08547  0.76780  1.0000
  F   F343      1.0  0.26343  0.59063  0.28171  1.0000
  F   F344      1.0  0.26236  0.58428  0.77466  1.0000
  F   F345      1.0  0.51168  0.09003  0.27492  1.0000
  F   F346      1.0  0.51255  0.08761  0.76246  1.0000
  F   F347      1.0  0.51029  0.57677  0.27747  1.0000
  F   F348      1.0  0.51081  0.60950  0.76766  1.0000
  F   F349      1.0  0.77040  0.07998  0.28165  1.0000
  F   F350      1.0  0.76506  0.08177  0.77906  1.0000
  F   F351      1.0  0.76410  0.58629  0.27805  1.0000
  F   F352      1.0  0.75943  0.58006  0.77540  1.0000
  F   F353      1.0  0.10541  0.39339  0.46515  1.0000
  F   F354      1.0  0.09191  0.42041  0.96142  1.0000
  F   F355      1.0  0.10152  0.91539  0.46530  1.0000
  F   F356      1.0  0.11005  0.90576  0.95992  1.0000
  F   F357      1.0  0.34550  0.42100  0.46723  1.0000
  F   F358      1.0  0.34777  0.39229  0.95609  1.0000
  F   F359      1.0  0.34743  0.91577  0.46367  1.0000
  F   F360      1.0  0.34532  0.90765  0.96202  1.0000
  F   F361      1.0  0.59954  0.40037  0.46322  1.0000
  F   F362      1.0  0.59966  0.40768  0.96383  1.0000
  F   F363      1.0  0.60350  0.91577  0.45901  1.0000
  F   F364      1.0  0.60206  0.89783  0.96511  1.0000
  F   F365      1.0  0.84883  0.41575  0.46177  1.0000
  F   F366      1.0  0.85550  0.41790  0.94703  1.0000
  F   F367      1.0  0.85307  0.89176  0.46966  1.0000
  F   F368      1.0  0.85740  0.92532  0.95167  1.0000
  F   F369      1.0  0.05473  0.29687  0.27478  1.0000
  F   F370      1.0  0.04856  0.30273  0.79165  1.0000
  F   F371      1.0  0.04711  0.80378  0.28051  1.0000
  F   F372      1.0  0.04207  0.80775  0.78791  1.0000
  F   F373      1.0  0.30952  0.30907  0.28038  1.0000
  F   F374      1.0  0.29158  0.29407  0.78429  1.0000
  F   F375      1.0  0.30814  0.81012  0.29183  1.0000
  F   F376      1.0  0.30115  0.80278  0.80122  1.0000
  F   F377      1.0  0.54681  0.29426  0.27685  1.0000
  F   F378      1.0  0.54780  0.29266  0.78630  1.0000
  F   F379      1.0  0.54524  0.78910  0.28571  1.0000
  F   F380      1.0  0.54551  0.79436  0.78910  1.0000
  F   F381      1.0  0.79743  0.30005  0.28301  1.0000
  F   F382      1.0  0.79269  0.31475  0.78875  1.0000
  F   F383      1.0  0.80219  0.79096  0.30048  1.0000
  F   F384      1.0  0.79202  0.79308  0.79799  1.0000
