data_image0
_chemical_formula_structural       Hf96F384
_chemical_formula_sum              "Hf96 F384"
_cell_length_a       31.0104
_cell_length_b       15.5044
_cell_length_c       15.4988
_cell_angle_alpha    63.342
_cell_angle_beta     63.342
_cell_angle_gamma    80.1625

_space_group_name_H-M_alt    "P 1"
_space_group_IT_number       1

loop_
  _space_group_symop_operation_xyz
  'x, y, z'

loop_
  _atom_site_type_symbol
  _atom_site_label
  _atom_site_symmetry_multiplicity
  _atom_site_fract_x
  _atom_site_fract_y
  _atom_site_fract_z
  _atom_site_occupancy
  Hf  Hf1       1.0  0.20038  0.10873  0.37123  1.0000
  Hf  Hf2       1.0  0.19608  0.10661  0.86980  1.0000
  Hf  Hf3       1.0  0.19671  0.60448  0.37592  1.0000
  Hf  Hf4       1.0  0.19685  0.60439  0.87473  1.0000
  Hf  Hf5       1.0  0.44417  0.10675  0.38070  1.0000
  Hf  Hf6       1.0  0.44581  0.10486  0.87174  1.0000
  Hf  Hf7       1.0  0.44329  0.60638  0.38660  1.0000
  Hf  Hf8       1.0  0.44585  0.61260  0.87305  1.0000
  Hf  Hf9       1.0  0.69664  0.11367  0.37276  1.0000
  Hf  Hf10      1.0  0.69422  0.11213  0.87408  1.0000
  Hf  Hf11      1.0  0.69682  0.61959  0.36786  1.0000
  Hf  Hf12      1.0  0.69346  0.60951  0.87587  1.0000
  Hf  Hf13      1.0  0.94516  0.10352  0.37461  1.0000
  Hf  Hf14      1.0  0.94891  0.10995  0.86760  1.0000
  Hf  Hf15      1.0  0.94611  0.61207  0.37431  1.0000
  Hf  Hf16      1.0  0.94464  0.59620  0.87713  1.0000
  Hf  Hf17      1.0  0.05197  0.39153  0.13287  1.0000
  Hf  Hf18      1.0  0.05682  0.40017  0.61010  1.0000
  Hf  Hf19      1.0  0.05125  0.88931  0.13012  1.0000
  Hf  Hf20      1.0  0.05676  0.88559  0.62675  1.0000
  Hf  Hf21      1.0  0.30488  0.38992  0.12811  1.0000
  Hf  Hf22      1.0  0.30229  0.38727  0.63907  1.0000
  Hf  Hf23      1.0  0.30814  0.88799  0.12022  1.0000
  Hf  Hf24      1.0  0.30013  0.88957  0.63201  1.0000
  Hf  Hf25      1.0  0.55153  0.40066  0.12021  1.0000
  Hf  Hf26      1.0  0.55574  0.39547  0.62654  1.0000
  Hf  Hf27      1.0  0.55312  0.89971  0.12084  1.0000
  Hf  Hf28      1.0  0.55359  0.90168  0.62807  1.0000
  Hf  Hf29      1.0  0.80687  0.39241  0.12140  1.0000
  Hf  Hf30      1.0  0.80592  0.40498  0.61654  1.0000
  Hf  Hf31      1.0  0.79986  0.89293  0.13826  1.0000
  Hf  Hf32      1.0  0.80590  0.89223  0.62122  1.0000
  Hf  Hf33      1.0  0.05795  0.17640  0.41478  1.0000
  Hf  Hf34      1.0  0.05813  0.18400  0.91443  1.0000
  Hf  Hf35      1.0  0.05487  0.68196  0.41658  1.0000
  Hf  Hf36      1.0  0.05111  0.67015  0.93657  1.0000
  Hf  Hf37      1.0  0.30719  0.18210  0.42071  1.0000
  Hf  Hf38      1.0  0.30549  0.17706  0.91850  1.0000
  Hf  Hf39      1.0  0.30488  0.67502  0.41802  1.0000
  Hf  Hf40      1.0  0.30782  0.68665  0.91356  1.0000
  Hf  Hf41      1.0  0.55762  0.18386  0.41383  1.0000
  Hf  Hf42      1.0  0.55431  0.18486  0.91703  1.0000
  Hf  Hf43      1.0  0.55432  0.68662  0.41260  1.0000
  Hf  Hf44      1.0  0.55637  0.68584  0.91187  1.0000
  Hf  Hf45      1.0  0.80826  0.18460  0.41126  1.0000
  Hf  Hf46      1.0  0.80319  0.18115  0.92008  1.0000
  Hf  Hf47      1.0  0.80445  0.68453  0.41895  1.0000
  Hf  Hf48      1.0  0.80523  0.68619  0.91550  1.0000
  Hf  Hf49      1.0  0.15888  0.39108  0.33058  1.0000
  Hf  Hf50      1.0  0.15856  0.38595  0.83149  1.0000
  Hf  Hf51      1.0  0.16164  0.88694  0.33292  1.0000
  Hf  Hf52      1.0  0.15784  0.88273  0.83741  1.0000
  Hf  Hf53      1.0  0.40854  0.38488  0.33889  1.0000
  Hf  Hf54      1.0  0.40855  0.39363  0.83400  1.0000
  Hf  Hf55      1.0  0.40193  0.88137  0.34743  1.0000
  Hf  Hf56      1.0  0.40999  0.88702  0.83534  1.0000
  Hf  Hf57      1.0  0.65535  0.39421  0.33382  1.0000
  Hf  Hf58      1.0  0.65588  0.39063  0.83416  1.0000
  Hf  Hf59      1.0  0.65520  0.89460  0.33094  1.0000
  Hf  Hf60      1.0  0.66135  0.88763  0.83120  1.0000
  Hf  Hf61      1.0  0.91045  0.38812  0.32892  1.0000
  Hf  Hf62      1.0  0.91027  0.38100  0.82550  1.0000
  Hf  Hf63      1.0  0.91043  0.88597  0.33238  1.0000
  Hf  Hf64      1.0  0.90973  0.88376  0.83645  1.0000
  Hf  Hf65      1.0  0.19447  0.31192  0.08863  1.0000
  Hf  Hf66      1.0  0.19627  0.31846  0.57664  1.0000
  Hf  Hf67      1.0  0.19651  0.81738  0.08736  1.0000
  Hf  Hf68      1.0  0.19321  0.81063  0.58974  1.0000
  Hf  Hf69      1.0  0.44244  0.31610  0.08493  1.0000
  Hf  Hf70      1.0  0.44561  0.32344  0.57860  1.0000
  Hf  Hf71      1.0  0.44468  0.81310  0.08892  1.0000
  Hf  Hf72      1.0  0.44229  0.82015  0.58991  1.0000
  Hf  Hf73      1.0  0.69310  0.32412  0.08442  1.0000
  Hf  Hf74      1.0  0.69448  0.32011  0.57806  1.0000
  Hf  Hf75      1.0  0.69729  0.82561  0.07222  1.0000
  Hf  Hf76      1.0  0.69589  0.81981  0.57929  1.0000
  Hf  Hf77      1.0  0.94397  0.31075  0.08101  1.0000
  Hf  Hf78      1.0  0.94357  0.31211  0.58579  1.0000
  Hf  Hf79      1.0  0.94140  0.81581  0.08784  1.0000
  Hf  Hf80      1.0  0.94527  0.81856  0.58536  1.0000
  Hf  Hf81      1.0  0.09214  0.10931  0.16833  1.0000
  Hf  Hf82      1.0  0.09440  0.10747  0.66473  1.0000
  Hf  Hf83      1.0  0.08832  0.60888  0.17516  1.0000
  Hf  Hf84      1.0  0.08882  0.61132  0.67141  1.0000
  Hf  Hf85      1.0  0.34432  0.10525  0.16588  1.0000
  Hf  Hf86      1.0  0.34204  0.11366  0.66969  1.0000
  Hf  Hf87      1.0  0.34199  0.60669  0.16458  1.0000
  Hf  Hf88      1.0  0.33779  0.61309  0.67045  1.0000
  Hf  Hf89      1.0  0.59017  0.12113  0.15967  1.0000
  Hf  Hf90      1.0  0.59306  0.11373  0.66829  1.0000
  Hf  Hf91      1.0  0.58997  0.61786  0.16112  1.0000
  Hf  Hf92      1.0  0.59008  0.61892  0.66255  1.0000
  Hf  Hf93      1.0  0.84447  0.10924  0.15917  1.0000
  Hf  Hf94      1.0  0.84118  0.11053  0.66656  1.0000
  Hf  Hf95      1.0  0.84047  0.61381  0.16672  1.0000
  Hf  Hf96      1.0  0.84402  0.61185  0.66780  1.0000
  F   F1        1.0  0.07680  0.13291  0.29759  1.0000
  F   F2        1.0  0.08715  0.13141  0.79460  1.0000
  F   F3        1.0  0.07655  0.63123  0.30518  1.0000
  F   F4        1.0  0.07670  0.60273  0.81653  1.0000
  F   F5        1.0  0.33015  0.12800  0.30838  1.0000
  F   F6        1.0  0.32171  0.12305  0.81320  1.0000
  F   F7        1.0  0.33715  0.62650  0.29047  1.0000
  F   F8        1.0  0.33028  0.62890  0.80503  1.0000
  F   F9        1.0  0.57900  0.13207  0.29942  1.0000
  F   F10       1.0  0.58093  0.10896  0.81089  1.0000
  F   F11       1.0  0.58003  0.62875  0.30010  1.0000
  F   F12       1.0  0.57686  0.61956  0.80729  1.0000
  F   F13       1.0  0.82739  0.11955  0.30320  1.0000
  F   F14       1.0  0.82852  0.12585  0.81351  1.0000
  F   F15       1.0  0.82905  0.63184  0.29578  1.0000
  F   F16       1.0  0.82601  0.62727  0.80373  1.0000
  F   F17       1.0  0.18646  0.34630  0.44059  1.0000
  F   F18       1.0  0.19417  0.34789  0.94081  1.0000
  F   F19       1.0  0.18425  0.83920  0.45723  1.0000
  F   F20       1.0  0.18577  0.83912  0.94642  1.0000
  F   F21       1.0  0.43875  0.34805  0.44070  1.0000
  F   F22       1.0  0.43442  0.34147  0.94602  1.0000
  F   F23       1.0  0.42701  0.84525  0.46274  1.0000
  F   F24       1.0  0.43919  0.84460  0.93490  1.0000
  F   F25       1.0  0.68520  0.34123  0.44160  1.0000
  F   F26       1.0  0.68636  0.34460  0.93973  1.0000
  F   F27       1.0  0.68643  0.84926  0.43919  1.0000
  F   F28       1.0  0.69287  0.84434  0.93616  1.0000
  F   F29       1.0  0.93199  0.33685  0.45664  1.0000
  F   F30       1.0  0.93836  0.32963  0.93883  1.0000
  F   F31       1.0  0.93804  0.84143  0.44949  1.0000
  F   F32       1.0  0.93891  0.83794  0.94789  1.0000
  F   F33       1.0  0.16048  0.36705  0.20318  1.0000
  F   F34       1.0  0.16483  0.35965  0.70314  1.0000
  F   F35       1.0  0.18076  0.87481  0.18538  1.0000
  F   F36       1.0  0.16367  0.85193  0.71465  1.0000
  F   F37       1.0  0.42350  0.36553  0.19424  1.0000
  F   F38       1.0  0.42471  0.38131  0.69245  1.0000
  F   F39       1.0  0.42055  0.86307  0.19780  1.0000
  F   F40       1.0  0.42403  0.87945  0.69329  1.0000
  F   F41       1.0  0.67666  0.38776  0.18441  1.0000
  F   F42       1.0  0.66839  0.36929  0.69993  1.0000
  F   F43       1.0  0.67391  0.87801  0.19313  1.0000
  F   F44       1.0  0.67280  0.86885  0.69942  1.0000
  F   F45       1.0  0.91729  0.37220  0.19166  1.0000
  F   F46       1.0  0.92008  0.38683  0.68191  1.0000
  F   F47       1.0  0.92274  0.86629  0.20267  1.0000
  F   F48       1.0  0.92745  0.88257  0.69410  1.0000
  F   F49       1.0  0.06811  0.16159  0.04621  1.0000
  F   F50       1.0  0.06746  0.14728  0.55072  1.0000
  F   F51       1.0  0.05335  0.65177  0.06964  1.0000
  F   F52       1.0  0.06589  0.66154  0.55674  1.0000
  F   F53       1.0  0.32271  0.15732  0.04080  1.0000
  F   F54       1.0  0.31899  0.15691  0.55410  1.0000
  F   F55       1.0  0.31695  0.65293  0.05121  1.0000
  F   F56       1.0  0.31351  0.65038  0.55340  1.0000
  F   F57       1.0  0.55926  0.15724  0.05525  1.0000
  F   F58       1.0  0.56655  0.16097  0.55096  1.0000
  F   F59       1.0  0.56620  0.65997  0.04889  1.0000
  F   F60       1.0  0.55873  0.65989  0.56009  1.0000
  F   F61       1.0  0.82345  0.16970  0.04032  1.0000
  F   F62       1.0  0.80772  0.16972  0.55091  1.0000
  F   F63       1.0  0.81545  0.67011  0.04603  1.0000
  F   F64       1.0  0.81822  0.66498  0.54817  1.0000
  F   F65       1.0  0.20440  0.20150  0.21285  1.0000
  F   F66       1.0  0.20713  0.19935  0.71260  1.0000
  F   F67       1.0  0.20144  0.70211  0.22046  1.0000
  F   F68       1.0  0.20697  0.69092  0.70101  1.0000
  F   F69       1.0  0.44704  0.19830  0.21246  1.0000
  F   F70       1.0  0.45061  0.21074  0.70906  1.0000
  F   F71       1.0  0.44792  0.69639  0.21399  1.0000
  F   F72       1.0  0.45477  0.70160  0.71028  1.0000
  F   F73       1.0  0.69170  0.20854  0.21512  1.0000
  F   F74       1.0  0.70836  0.20284  0.71232  1.0000
  F   F75       1.0  0.70672  0.71197  0.20790  1.0000
  F   F76       1.0  0.70627  0.70270  0.70449  1.0000
  F   F77       1.0  0.95317  0.19099  0.21322  1.0000
  F   F78       1.0  0.94963  0.21060  0.71567  1.0000
  F   F79       1.0  0.95291  0.69913  0.20908  1.0000
  F   F80       1.0  0.94717  0.70672  0.72079  1.0000
  F   F81       1.0  0.14336  0.08706  0.04035  1.0000
  F   F82       1.0  0.14816  0.08882  0.52995  1.0000
  F   F83       1.0  0.14383  0.59165  0.04349  1.0000
  F   F84       1.0  0.14399  0.57945  0.54055  1.0000
  F   F85       1.0  0.40220  0.08763  0.03677  1.0000
  F   F86       1.0  0.40390  0.08962  0.53878  1.0000
  F   F87       1.0  0.40102  0.58541  0.04446  1.0000
  F   F88       1.0  0.39597  0.58575  0.53956  1.0000
  F   F89       1.0  0.64948  0.09605  0.03180  1.0000
  F   F90       1.0  0.64961  0.09288  0.54137  1.0000
  F   F91       1.0  0.64552  0.60575  0.02497  1.0000
  F   F92       1.0  0.64615  0.58934  0.54316  1.0000
  F   F93       1.0  0.90695  0.08727  0.04327  1.0000
  F   F94       1.0  0.90007  0.11191  0.52621  1.0000
  F   F95       1.0  0.89867  0.58777  0.03168  1.0000
  F   F96       1.0  0.89680  0.59941  0.52862  1.0000
  F   F97       1.0  0.15446  0.19561  0.12601  1.0000
  F   F98       1.0  0.15174  0.20627  0.61922  1.0000
  F   F99       1.0  0.15009  0.68960  0.12275  1.0000
  F   F100      1.0  0.14976  0.68715  0.61949  1.0000
  F   F101      1.0  0.39913  0.19807  0.12029  1.0000
  F   F102      1.0  0.39716  0.19379  0.63883  1.0000
  F   F103      1.0  0.39851  0.69918  0.11138  1.0000
  F   F104      1.0  0.40286  0.68280  0.62934  1.0000
  F   F105      1.0  0.64363  0.20808  0.12085  1.0000
  F   F106      1.0  0.65024  0.19742  0.62794  1.0000
  F   F107      1.0  0.65992  0.70425  0.11408  1.0000
  F   F108      1.0  0.64868  0.69320  0.63643  1.0000
  F   F109      1.0  0.90189  0.18950  0.13640  1.0000
  F   F110      1.0  0.90113  0.18942  0.63048  1.0000
  F   F111      1.0  0.90335  0.69479  0.12345  1.0000
  F   F112      1.0  0.90387  0.69954  0.61527  1.0000
  F   F113      1.0  0.10038  0.29677  0.38372  1.0000
  F   F114      1.0  0.09658  0.30217  0.87496  1.0000
  F   F115      1.0  0.09804  0.80572  0.36000  1.0000
  F   F116      1.0  0.09867  0.79539  0.90336  1.0000
  F   F117      1.0  0.34858  0.29717  0.38087  1.0000
  F   F118      1.0  0.34449  0.30048  0.86876  1.0000
  F   F119      1.0  0.34435  0.80876  0.37754  1.0000
  F   F120      1.0  0.35259  0.80396  0.85768  1.0000
  F   F121      1.0  0.59720  0.30812  0.36519  1.0000
  F   F122      1.0  0.59518  0.30554  0.87528  1.0000
  F   F123      1.0  0.60166  0.80456  0.36577  1.0000
  F   F124      1.0  0.60215  0.79949  0.87476  1.0000
  F   F125      1.0  0.84848  0.31453  0.38553  1.0000
  F   F126      1.0  0.85248  0.29716  0.85828  1.0000
  F   F127      1.0  0.84532  0.80303  0.37798  1.0000
  F   F128      1.0  0.85062  0.80014  0.86769  1.0000
  F   F129      1.0  0.06413  0.24629  0.14399  1.0000
  F   F130      1.0  0.06916  0.25037  0.62941  1.0000
  F   F131      1.0  0.06599  0.74991  0.13341  1.0000
  F   F132      1.0  0.05747  0.74468  0.66345  1.0000
  F   F133      1.0  0.31305  0.24736  0.14900  1.0000
  F   F134      1.0  0.31449  0.25005  0.65422  1.0000
  F   F135      1.0  0.31044  0.74374  0.14464  1.0000
  F   F136      1.0  0.31319  0.74811  0.63699  1.0000
  F   F137      1.0  0.56320  0.25988  0.12945  1.0000
  F   F138      1.0  0.56709  0.25108  0.63731  1.0000
  F   F139      1.0  0.56289  0.75018  0.14464  1.0000
  F   F140      1.0  0.56930  0.75511  0.63638  1.0000
  F   F141      1.0  0.81263  0.24631  0.15799  1.0000
  F   F142      1.0  0.81679  0.25309  0.64639  1.0000
  F   F143      1.0  0.81407  0.75697  0.14383  1.0000
  F   F144      1.0  0.82485  0.76064  0.62795  1.0000
  F   F145      1.0  0.12714  0.38677  0.08467  1.0000
  F   F146      1.0  0.12645  0.38103  0.59388  1.0000
  F   F147      1.0  0.12488  0.86297  0.13432  1.0000
  F   F148      1.0  0.12451  0.85803  0.61401  1.0000
  F   F149      1.0  0.37347  0.36816  0.11827  1.0000
  F   F150      1.0  0.37724  0.36478  0.61355  1.0000
  F   F151      1.0  0.37607  0.86548  0.10575  1.0000
  F   F152      1.0  0.37019  0.85584  0.63263  1.0000
  F   F153      1.0  0.62624  0.38490  0.09920  1.0000
  F   F154      1.0  0.62501  0.37545  0.59589  1.0000
  F   F155      1.0  0.62449  0.85900  0.12129  1.0000
  F   F156      1.0  0.62673  0.87572  0.59983  1.0000
  F   F157      1.0  0.87783  0.38374  0.08652  1.0000
  F   F158      1.0  0.87462  0.37882  0.60648  1.0000
  F   F159      1.0  0.87206  0.87463  0.11804  1.0000
  F   F160      1.0  0.87626  0.86586  0.62024  1.0000
  F   F161      1.0  0.18710  0.24482  0.36379  1.0000
  F   F162      1.0  0.18097  0.24435  0.86876  1.0000
  F   F163      1.0  0.17702  0.74285  0.37076  1.0000
  F   F164      1.0  0.19119  0.74145  0.85186  1.0000
  F   F165      1.0  0.42887  0.24135  0.36836  1.0000
  F   F166      1.0  0.42783  0.24391  0.86548  1.0000
  F   F167      1.0  0.42854  0.74554  0.38464  1.0000
  F   F168      1.0  0.43793  0.75326  0.84558  1.0000
  F   F169      1.0  0.67956  0.24928  0.36293  1.0000
  F   F170      1.0  0.67980  0.24810  0.86014  1.0000
  F   F171      1.0  0.68220  0.75019  0.36512  1.0000
  F   F172      1.0  0.68572  0.75063  0.85656  1.0000
  F   F173      1.0  0.94020  0.25552  0.33828  1.0000
  F   F174      1.0  0.94129  0.24916  0.84683  1.0000
  F   F175      1.0  0.94076  0.75434  0.34594  1.0000
  F   F176      1.0  0.93450  0.74903  0.86606  1.0000
  F   F177      1.0  0.12696  0.12300  0.37745  1.0000
  F   F178      1.0  0.12793  0.13486  0.88557  1.0000
  F   F179      1.0  0.12172  0.62843  0.38573  1.0000
  F   F180      1.0  0.12466  0.63484  0.88805  1.0000
  F   F181      1.0  0.37697  0.13685  0.38729  1.0000
  F   F182      1.0  0.37254  0.12708  0.89166  1.0000
  F   F183      1.0  0.37443  0.65273  0.38356  1.0000
  F   F184      1.0  0.37573  0.62312  0.89448  1.0000
  F   F185      1.0  0.62471  0.10705  0.40873  1.0000
  F   F186      1.0  0.61917  0.13128  0.89813  1.0000
  F   F187      1.0  0.62209  0.63689  0.39320  1.0000
  F   F188      1.0  0.62256  0.63074  0.88304  1.0000
  F   F189      1.0  0.87779  0.14052  0.37908  1.0000
  F   F190      1.0  0.87472  0.12112  0.90180  1.0000
  F   F191      1.0  0.87380  0.62957  0.38954  1.0000
  F   F192      1.0  0.87108  0.62636  0.89840  1.0000
  F   F193      1.0  0.01001  0.35292  0.08294  1.0000
  F   F194      1.0  0.01018  0.36675  0.55836  1.0000
  F   F195      1.0  0.00670  0.86904  0.07293  1.0000
  F   F196      1.0  0.01044  0.86660  0.55832  1.0000
  F   F197      1.0  0.25504  0.36565  0.06207  1.0000
  F   F198      1.0  0.26157  0.34971  0.57067  1.0000
  F   F199      1.0  0.26318  0.86585  0.05757  1.0000
  F   F200      1.0  0.25214  0.86588  0.57895  1.0000
  F   F201      1.0  0.50800  0.37297  0.05930  1.0000
  F   F202      1.0  0.50716  0.35389  0.58925  1.0000
  F   F203      1.0  0.50483  0.86891  0.06692  1.0000
  F   F204      1.0  0.50930  0.85379  0.59086  1.0000
  F   F205      1.0  0.76255  0.35922  0.06276  1.0000
  F   F206      1.0  0.75427  0.36608  0.57999  1.0000
  F   F207      1.0  0.76344  0.87475  0.05987  1.0000
  F   F208      1.0  0.76204  0.86496  0.55788  1.0000
  F   F209      1.0  0.06644  0.48127  0.19164  1.0000
  F   F210      1.0  0.06296  0.48487  0.67649  1.0000
  F   F211      1.0  0.06426  0.97794  0.19014  1.0000
  F   F212      1.0  0.07292  0.96844  0.67724  1.0000
  F   F213      1.0  0.31565  0.47565  0.18445  1.0000
  F   F214      1.0  0.32099  0.48550  0.67009  1.0000
  F   F215      1.0  0.31984  0.98153  0.17759  1.0000
  F   F216      1.0  0.31502  0.97463  0.69316  1.0000
  F   F217      1.0  0.56358  0.48536  0.19067  1.0000
  F   F218      1.0  0.56584  0.48078  0.68573  1.0000
  F   F219      1.0  0.57170  0.99204  0.16799  1.0000
  F   F220      1.0  0.56815  0.99232  0.68233  1.0000
  F   F221      1.0  0.81542  0.48484  0.18351  1.0000
  F   F222      1.0  0.81853  0.48641  0.67607  1.0000
  F   F223      1.0  0.81573  0.98841  0.18613  1.0000
  F   F224      1.0  0.82542  0.99423  0.65195  1.0000
  F   F225      1.0  0.24264  0.12747  0.43122  1.0000
  F   F226      1.0  0.24161  0.14789  0.91653  1.0000
  F   F227      1.0  0.24307  0.63560  0.42467  1.0000
  F   F228      1.0  0.24220  0.62304  0.94007  1.0000
  F   F229      1.0  0.49154  0.14965  0.42322  1.0000
  F   F230      1.0  0.49616  0.15216  0.89645  1.0000
  F   F231      1.0  0.49156  0.64158  0.42803  1.0000
  F   F232      1.0  0.49163  0.64608  0.92145  1.0000
  F   F233      1.0  0.74408  0.15542  0.40977  1.0000
  F   F234      1.0  0.73860  0.14416  0.92745  1.0000
  F   F235      1.0  0.73999  0.64653  0.41900  1.0000
  F   F236      1.0  0.74132  0.64051  0.92148  1.0000
  F   F237      1.0  0.99253  0.14109  0.42438  1.0000
  F   F238      1.0  0.99288  0.12798  0.92205  1.0000
  F   F239      1.0  0.99495  0.63955  0.41551  1.0000
  F   F240      1.0  0.98920  0.62817  0.92783  1.0000
  F   F241      1.0  0.18592  0.00464  0.32002  1.0000
  F   F242      1.0  0.18049  0.01949  0.81846  1.0000
  F   F243      1.0  0.18964  0.51514  0.31748  1.0000
  F   F244      1.0  0.18738  0.51376  0.81490  1.0000
  F   F245      1.0  0.42924  0.01909  0.33288  1.0000
  F   F246      1.0  0.43090  0.02401  0.81047  1.0000
  F   F247      1.0  0.42341  0.51401  0.34462  1.0000
  F   F248      1.0  0.43216  0.51600  0.81360  1.0000
  F   F249      1.0  0.68420  0.01882  0.31610  1.0000
  F   F250      1.0  0.67920  0.02039  0.82649  1.0000
  F   F251      1.0  0.68646  0.51691  0.30981  1.0000
  F   F252      1.0  0.68216  0.51810  0.81373  1.0000
  F   F253      1.0  0.93355  0.00970  0.32350  1.0000
  F   F254      1.0  0.93506  0.01563  0.81603  1.0000
  F   F255      1.0  0.93012  0.51333  0.32780  1.0000
  F   F256      1.0  0.92927  0.51414  0.81945  1.0000
  F   F257      1.0  0.99973  0.24161  0.99725  1.0000
  F   F258      1.0  0.99952  0.23760  0.51093  1.0000
  F   F259      1.0  0.99928  0.75445  0.99688  1.0000
  F   F260      1.0  0.99831  0.74638  0.49821  1.0000
  F   F261      1.0  0.24729  0.23348  0.01683  1.0000
  F   F262      1.0  0.25085  0.24852  0.49715  1.0000
  F   F263      1.0  0.25199  0.74983  0.00084  1.0000
  F   F264      1.0  0.25244  0.75011  0.49046  1.0000
  F   F265      1.0  0.49374  0.24237  0.00935  1.0000
  F   F266      1.0  0.49898  0.25394  0.49909  1.0000
  F   F267      1.0  0.50393  0.74915  0.99828  1.0000
  F   F268      1.0  0.49740  0.75846  0.49851  1.0000
  F   F269      1.0  0.74732  0.24426  0.00735  1.0000
  F   F270      1.0  0.74813  0.26041  0.48858  1.0000
  F   F271      1.0  0.75248  0.75829  0.99406  1.0000
  F   F272      1.0  0.74857  0.74180  0.50361  1.0000
  F   F273      1.0  0.12758  0.99289  0.25395  1.0000
  F   F274      1.0  0.12179  0.99160  0.76311  1.0000
  F   F275      1.0  0.12897  0.50993  0.24800  1.0000
  F   F276      1.0  0.13137  0.49895  0.74221  1.0000
  F   F277      1.0  0.38516  0.00189  0.24113  1.0000
  F   F278      1.0  0.37407  0.00347  0.74897  1.0000
  F   F279      1.0  0.38275  0.49272  0.24101  1.0000
  F   F280      1.0  0.36662  0.49897  0.76264  1.0000
  F   F281      1.0  0.62585  0.00870  0.23900  1.0000
  F   F282      1.0  0.62617  0.98828  0.75120  1.0000
  F   F283      1.0  0.63009  0.50952  0.23750  1.0000
  F   F284      1.0  0.61367  0.49064  0.76478  1.0000
  F   F285      1.0  0.87815  0.99657  0.23875  1.0000
  F   F286      1.0  0.86931  0.00055  0.75092  1.0000
  F   F287      1.0  0.87191  0.49626  0.25284  1.0000
  F   F288      1.0  0.87715  0.50328  0.74740  1.0000
  F   F289      1.0  0.03745  0.03699  0.03986  1.0000
  F   F290      1.0  0.05084  0.02106  0.51509  1.0000
  F   F291      1.0  0.04687  0.51806  0.02443  1.0000
  F   F292      1.0  0.03774  0.53401  0.52494  1.0000
  F   F293      1.0  0.29973  0.02865  0.01990  1.0000
  F   F294      1.0  0.29399  0.02498  0.53009  1.0000
  F   F295      1.0  0.28938  0.52888  0.03421  1.0000
  F   F296      1.0  0.30072  0.51766  0.50962  1.0000
  F   F297      1.0  0.53798  0.03706  0.02392  1.0000
  F   F298      1.0  0.54190  0.03480  0.52934  1.0000
  F   F299      1.0  0.54042  0.53896  0.01818  1.0000
  F   F300      1.0  0.53972  0.53682  0.52420  1.0000
  F   F301      1.0  0.78912  0.03443  0.03968  1.0000
  F   F302      1.0  0.79357  0.03548  0.51054  1.0000
  F   F303      1.0  0.79403  0.52830  0.02745  1.0000
  F   F304      1.0  0.79054  0.53309  0.51670  1.0000
  F   F305      1.0  0.23201  0.41122  0.21630  1.0000
  F   F306      1.0  0.23194  0.41364  0.72786  1.0000
  F   F307      1.0  0.24368  0.90250  0.22827  1.0000
  F   F308      1.0  0.22848  0.91463  0.72871  1.0000
  F   F309      1.0  0.48371  0.41778  0.21982  1.0000
  F   F310      1.0  0.48778  0.39748  0.74686  1.0000
  F   F311      1.0  0.48403  0.89253  0.23682  1.0000
  F   F312      1.0  0.48351  0.92800  0.72630  1.0000
  F   F313      1.0  0.73746  0.39550  0.22974  1.0000
  F   F314      1.0  0.73582  0.40247  0.73264  1.0000
  F   F315      1.0  0.73408  0.90789  0.23156  1.0000
  F   F316      1.0  0.73717  0.92524  0.71432  1.0000
  F   F317      1.0  0.98458  0.42511  0.21604  1.0000
  F   F318      1.0  0.98299  0.41716  0.71670  1.0000
  F   F319      1.0  0.98053  0.92438  0.22914  1.0000
  F   F320      1.0  0.99081  0.88927  0.74298  1.0000
  F   F321      1.0  0.21037  0.46403  0.47415  1.0000
  F   F322      1.0  0.20464  0.46661  0.98038  1.0000
  F   F323      1.0  0.20038  0.96623  0.49324  1.0000
  F   F324      1.0  0.20865  0.96386  0.97639  1.0000
  F   F325      1.0  0.45953  0.47068  0.48881  1.0000
  F   F326      1.0  0.45287  0.47585  0.96935  1.0000
  F   F327      1.0  0.45692  0.96543  0.48936  1.0000
  F   F328      1.0  0.45735  0.96923  0.96491  1.0000
  F   F329      1.0  0.70369  0.46912  0.47300  1.0000
  F   F330      1.0  0.70811  0.47445  0.97185  1.0000
  F   F331      1.0  0.71199  0.97246  0.47200  1.0000
  F   F332      1.0  0.70534  0.96873  0.98220  1.0000
  F   F333      1.0  0.95866  0.47280  0.45893  1.0000
  F   F334      1.0  0.95701  0.45670  0.97924  1.0000
  F   F335      1.0  0.95387  0.97316  0.48000  1.0000
  F   F336      1.0  0.95271  0.96561  0.97877  1.0000
  F   F337      1.0  0.01577  0.08555  0.27381  1.0000
  F   F338      1.0  0.02368  0.07836  0.76329  1.0000
  F   F339      1.0  0.01563  0.59277  0.27116  1.0000
  F   F340      1.0  0.00980  0.57672  0.77897  1.0000
  F   F341      1.0  0.27274  0.07681  0.26955  1.0000
  F   F342      1.0  0.26351  0.07996  0.77453  1.0000
  F   F343      1.0  0.26389  0.58766  0.27828  1.0000
  F   F344      1.0  0.26426  0.57478  0.78794  1.0000
  F   F345      1.0  0.51523  0.10074  0.27645  1.0000
  F   F346      1.0  0.51351  0.08848  0.76828  1.0000
  F   F347      1.0  0.50905  0.57688  0.28787  1.0000
  F   F348      1.0  0.51545  0.59324  0.76473  1.0000
  F   F349      1.0  0.76229  0.10200  0.26432  1.0000
  F   F350      1.0  0.76573  0.07990  0.77656  1.0000
  F   F351      1.0  0.76621  0.58309  0.27824  1.0000
  F   F352      1.0  0.76200  0.59516  0.77679  1.0000
  F   F353      1.0  0.10336  0.42399  0.44962  1.0000
  F   F354      1.0  0.10483  0.40468  0.95358  1.0000
  F   F355      1.0  0.10218  0.87986  0.47502  1.0000
  F   F356      1.0  0.10265  0.92434  0.97210  1.0000
  F   F357      1.0  0.35227  0.38899  0.46566  1.0000
  F   F358      1.0  0.35309  0.40914  0.96597  1.0000
  F   F359      1.0  0.34387  0.90299  0.48162  1.0000
  F   F360      1.0  0.35549  0.90460  0.95592  1.0000
  F   F361      1.0  0.59875  0.41472  0.45853  1.0000
  F   F362      1.0  0.60013  0.41717  0.96160  1.0000
  F   F363      1.0  0.59854  0.91460  0.45546  1.0000
  F   F364      1.0  0.59760  0.90926  0.96691  1.0000
  F   F365      1.0  0.85376  0.41417  0.46638  1.0000
  F   F366      1.0  0.85057  0.40018  0.95139  1.0000
  F   F367      1.0  0.85662  0.91869  0.46456  1.0000
  F   F368      1.0  0.85316  0.90516  0.95875  1.0000
  F   F369      1.0  0.04035  0.29297  0.30568  1.0000
  F   F370      1.0  0.04702  0.29093  0.77976  1.0000
  F   F371      1.0  0.03843  0.79840  0.28537  1.0000
  F   F372      1.0  0.05355  0.78070  0.79933  1.0000
  F   F373      1.0  0.29243  0.29652  0.29524  1.0000
  F   F374      1.0  0.29097  0.30815  0.79415  1.0000
  F   F375      1.0  0.30946  0.79392  0.27922  1.0000
  F   F376      1.0  0.29126  0.79647  0.79234  1.0000
  F   F377      1.0  0.55033  0.29170  0.28279  1.0000
  F   F378      1.0  0.55822  0.29847  0.77582  1.0000
  F   F379      1.0  0.55215  0.80219  0.28321  1.0000
  F   F380      1.0  0.54529  0.80735  0.77841  1.0000
  F   F381      1.0  0.81085  0.30590  0.28018  1.0000
  F   F382      1.0  0.79644  0.29759  0.79428  1.0000
  F   F383      1.0  0.79434  0.79353  0.29795  1.0000
  F   F384      1.0  0.79342  0.79501  0.78507  1.0000
