data_image0
_chemical_formula_structural       Hf96F384
_chemical_formula_sum              "Hf96 F384"
_cell_length_a       31.0244
_cell_length_b       15.5128
_cell_length_c       15.5064
_cell_angle_alpha    63.342
_cell_angle_beta     63.342
_cell_angle_gamma    80.1625

_space_group_name_H-M_alt    "P 1"
_space_group_IT_number       1

loop_
  _space_group_symop_operation_xyz
  'x, y, z'

loop_
  _atom_site_type_symbol
  _atom_site_label
  _atom_site_symmetry_multiplicity
  _atom_site_fract_x
  _atom_site_fract_y
  _atom_site_fract_z
  _atom_site_occupancy
  Hf  Hf1       1.0  0.19525  0.11593  0.36758  1.0000
  Hf  Hf2       1.0  0.19690  0.12259  0.86418  1.0000
  Hf  Hf3       1.0  0.19667  0.61451  0.37489  1.0000
  Hf  Hf4       1.0  0.19925  0.61722  0.86867  1.0000
  Hf  Hf5       1.0  0.44342  0.11027  0.38200  1.0000
  Hf  Hf6       1.0  0.44401  0.09931  0.88464  1.0000
  Hf  Hf7       1.0  0.45042  0.60604  0.36957  1.0000
  Hf  Hf8       1.0  0.44348  0.60739  0.87731  1.0000
  Hf  Hf9       1.0  0.69130  0.09836  0.38613  1.0000
  Hf  Hf10      1.0  0.69548  0.09325  0.88631  1.0000
  Hf  Hf11      1.0  0.69857  0.59457  0.37794  1.0000
  Hf  Hf12      1.0  0.69680  0.60041  0.87910  1.0000
  Hf  Hf13      1.0  0.94521  0.11602  0.37435  1.0000
  Hf  Hf14      1.0  0.94883  0.10610  0.86065  1.0000
  Hf  Hf15      1.0  0.94639  0.61323  0.36970  1.0000
  Hf  Hf16      1.0  0.94899  0.60801  0.87424  1.0000
  Hf  Hf17      1.0  0.05261  0.40177  0.11586  1.0000
  Hf  Hf18      1.0  0.05721  0.39495  0.61930  1.0000
  Hf  Hf19      1.0  0.05496  0.89767  0.11514  1.0000
  Hf  Hf20      1.0  0.05730  0.90199  0.61176  1.0000
  Hf  Hf21      1.0  0.30318  0.38874  0.11840  1.0000
  Hf  Hf22      1.0  0.30217  0.39072  0.63141  1.0000
  Hf  Hf23      1.0  0.30297  0.88910  0.11983  1.0000
  Hf  Hf24      1.0  0.30730  0.89414  0.62005  1.0000
  Hf  Hf25      1.0  0.55106  0.38543  0.13054  1.0000
  Hf  Hf26      1.0  0.55212  0.38931  0.63331  1.0000
  Hf  Hf27      1.0  0.55307  0.88986  0.12967  1.0000
  Hf  Hf28      1.0  0.55479  0.88781  0.62790  1.0000
  Hf  Hf29      1.0  0.79737  0.38978  0.14315  1.0000
  Hf  Hf30      1.0  0.80446  0.39456  0.62793  1.0000
  Hf  Hf31      1.0  0.80417  0.89858  0.11981  1.0000
  Hf  Hf32      1.0  0.80457  0.88327  0.63784  1.0000
  Hf  Hf33      1.0  0.05489  0.18070  0.41558  1.0000
  Hf  Hf34      1.0  0.05581  0.18520  0.91020  1.0000
  Hf  Hf35      1.0  0.05476  0.69220  0.41618  1.0000
  Hf  Hf36      1.0  0.05601  0.68345  0.92195  1.0000
  Hf  Hf37      1.0  0.30630  0.18039  0.41709  1.0000
  Hf  Hf38      1.0  0.30732  0.18796  0.91356  1.0000
  Hf  Hf39      1.0  0.30562  0.67972  0.41309  1.0000
  Hf  Hf40      1.0  0.30431  0.68500  0.91472  1.0000
  Hf  Hf41      1.0  0.55322  0.18096  0.41983  1.0000
  Hf  Hf42      1.0  0.55530  0.18075  0.91953  1.0000
  Hf  Hf43      1.0  0.56136  0.68426  0.41005  1.0000
  Hf  Hf44      1.0  0.55236  0.68117  0.92451  1.0000
  Hf  Hf45      1.0  0.80566  0.17870  0.41876  1.0000
  Hf  Hf46      1.0  0.80646  0.19052  0.91180  1.0000
  Hf  Hf47      1.0  0.80653  0.68542  0.41544  1.0000
  Hf  Hf48      1.0  0.80601  0.67067  0.91937  1.0000
  Hf  Hf49      1.0  0.15944  0.39733  0.32798  1.0000
  Hf  Hf50      1.0  0.15810  0.39783  0.83431  1.0000
  Hf  Hf51      1.0  0.16140  0.89457  0.32530  1.0000
  Hf  Hf52      1.0  0.15753  0.89953  0.82875  1.0000
  Hf  Hf53      1.0  0.40730  0.38923  0.33378  1.0000
  Hf  Hf54      1.0  0.40940  0.38541  0.82984  1.0000
  Hf  Hf55      1.0  0.41038  0.88106  0.33306  1.0000
  Hf  Hf56      1.0  0.41195  0.88775  0.82602  1.0000
  Hf  Hf57      1.0  0.65388  0.38340  0.34234  1.0000
  Hf  Hf58      1.0  0.65836  0.38095  0.83892  1.0000
  Hf  Hf59      1.0  0.65674  0.87668  0.33900  1.0000
  Hf  Hf60      1.0  0.65845  0.87851  0.84061  1.0000
  Hf  Hf61      1.0  0.90763  0.39153  0.33685  1.0000
  Hf  Hf62      1.0  0.91331  0.39064  0.82592  1.0000
  Hf  Hf63      1.0  0.91268  0.89414  0.32603  1.0000
  Hf  Hf64      1.0  0.90800  0.88557  0.83350  1.0000
  Hf  Hf65      1.0  0.19251  0.31624  0.09174  1.0000
  Hf  Hf66      1.0  0.19609  0.32848  0.57888  1.0000
  Hf  Hf67      1.0  0.19192  0.82214  0.08027  1.0000
  Hf  Hf68      1.0  0.19650  0.82065  0.57513  1.0000
  Hf  Hf69      1.0  0.44219  0.30946  0.08472  1.0000
  Hf  Hf70      1.0  0.44331  0.31479  0.58627  1.0000
  Hf  Hf71      1.0  0.44077  0.81665  0.08589  1.0000
  Hf  Hf72      1.0  0.44832  0.81415  0.57961  1.0000
  Hf  Hf73      1.0  0.69024  0.31291  0.08974  1.0000
  Hf  Hf74      1.0  0.69503  0.30754  0.59129  1.0000
  Hf  Hf75      1.0  0.69551  0.80311  0.08742  1.0000
  Hf  Hf76      1.0  0.69369  0.80745  0.59136  1.0000
  Hf  Hf77      1.0  0.94039  0.32020  0.08705  1.0000
  Hf  Hf78      1.0  0.94995  0.32652  0.57316  1.0000
  Hf  Hf79      1.0  0.94486  0.82873  0.07814  1.0000
  Hf  Hf80      1.0  0.94426  0.81585  0.58346  1.0000
  Hf  Hf81      1.0  0.08849  0.11431  0.16421  1.0000
  Hf  Hf82      1.0  0.09121  0.11556  0.66102  1.0000
  Hf  Hf83      1.0  0.09100  0.61488  0.16566  1.0000
  Hf  Hf84      1.0  0.09272  0.61607  0.66265  1.0000
  Hf  Hf85      1.0  0.34265  0.10888  0.15766  1.0000
  Hf  Hf86      1.0  0.33925  0.11510  0.66984  1.0000
  Hf  Hf87      1.0  0.33868  0.60587  0.16413  1.0000
  Hf  Hf88      1.0  0.34802  0.61461  0.65394  1.0000
  Hf  Hf89      1.0  0.58886  0.10538  0.17240  1.0000
  Hf  Hf90      1.0  0.59093  0.10746  0.67580  1.0000
  Hf  Hf91      1.0  0.59187  0.60873  0.16453  1.0000
  Hf  Hf92      1.0  0.59070  0.61185  0.67501  1.0000
  Hf  Hf93      1.0  0.83871  0.10778  0.17846  1.0000
  Hf  Hf94      1.0  0.84218  0.11571  0.66606  1.0000
  Hf  Hf95      1.0  0.83945  0.61611  0.16817  1.0000
  Hf  Hf96      1.0  0.84348  0.60607  0.66615  1.0000
  F   F1        1.0  0.07590  0.12930  0.30246  1.0000
  F   F2        1.0  0.07211  0.10297  0.82068  1.0000
  F   F3        1.0  0.08785  0.65931  0.28362  1.0000
  F   F4        1.0  0.08352  0.63354  0.79903  1.0000
  F   F5        1.0  0.33581  0.13224  0.30102  1.0000
  F   F6        1.0  0.32694  0.13867  0.80051  1.0000
  F   F7        1.0  0.33044  0.61769  0.30180  1.0000
  F   F8        1.0  0.33093  0.63180  0.80254  1.0000
  F   F9        1.0  0.57499  0.13182  0.29693  1.0000
  F   F10       1.0  0.57924  0.12503  0.80782  1.0000
  F   F11       1.0  0.57791  0.62817  0.29889  1.0000
  F   F12       1.0  0.57754  0.62090  0.81002  1.0000
  F   F13       1.0  0.82701  0.12482  0.30981  1.0000
  F   F14       1.0  0.83420  0.14461  0.79326  1.0000
  F   F15       1.0  0.82445  0.61891  0.31579  1.0000
  F   F16       1.0  0.82942  0.62332  0.80134  1.0000
  F   F17       1.0  0.18519  0.32940  0.44802  1.0000
  F   F18       1.0  0.18839  0.34248  0.95639  1.0000
  F   F19       1.0  0.19323  0.84963  0.43871  1.0000
  F   F20       1.0  0.17648  0.83715  0.95440  1.0000
  F   F21       1.0  0.42707  0.35550  0.46046  1.0000
  F   F22       1.0  0.44925  0.34334  0.93850  1.0000
  F   F23       1.0  0.44989  0.84621  0.43234  1.0000
  F   F24       1.0  0.43640  0.82634  0.94423  1.0000
  F   F25       1.0  0.68014  0.33492  0.45415  1.0000
  F   F26       1.0  0.69241  0.34927  0.93532  1.0000
  F   F27       1.0  0.67966  0.82669  0.45721  1.0000
  F   F28       1.0  0.68363  0.82837  0.96002  1.0000
  F   F29       1.0  0.93544  0.35449  0.44668  1.0000
  F   F30       1.0  0.94093  0.35224  0.94386  1.0000
  F   F31       1.0  0.94246  0.85246  0.43995  1.0000
  F   F32       1.0  0.93229  0.83752  0.95222  1.0000
  F   F33       1.0  0.17418  0.39272  0.19047  1.0000
  F   F34       1.0  0.17263  0.37755  0.69648  1.0000
  F   F35       1.0  0.16813  0.87290  0.19503  1.0000
  F   F36       1.0  0.17428  0.88468  0.68643  1.0000
  F   F37       1.0  0.41773  0.36323  0.19414  1.0000
  F   F38       1.0  0.42093  0.37715  0.69351  1.0000
  F   F39       1.0  0.41840  0.87088  0.19788  1.0000
  F   F40       1.0  0.41586  0.86448  0.70327  1.0000
  F   F41       1.0  0.67170  0.36716  0.19797  1.0000
  F   F42       1.0  0.67604  0.35776  0.70852  1.0000
  F   F43       1.0  0.67807  0.86536  0.19388  1.0000
  F   F44       1.0  0.66764  0.86338  0.70687  1.0000
  F   F45       1.0  0.91742  0.36864  0.20470  1.0000
  F   F46       1.0  0.92888  0.37011  0.68784  1.0000
  F   F47       1.0  0.92145  0.88556  0.18537  1.0000
  F   F48       1.0  0.92288  0.88092  0.69817  1.0000
  F   F49       1.0  0.06851  0.16496  0.04567  1.0000
  F   F50       1.0  0.06057  0.15524  0.55534  1.0000
  F   F51       1.0  0.06606  0.67417  0.04854  1.0000
  F   F52       1.0  0.06790  0.66397  0.55174  1.0000
  F   F53       1.0  0.31645  0.16269  0.04688  1.0000
  F   F54       1.0  0.30452  0.14219  0.56626  1.0000
  F   F55       1.0  0.30031  0.65137  0.06075  1.0000
  F   F56       1.0  0.32326  0.67711  0.53247  1.0000
  F   F57       1.0  0.56980  0.16840  0.04949  1.0000
  F   F58       1.0  0.56239  0.15089  0.56741  1.0000
  F   F59       1.0  0.55950  0.65864  0.05653  1.0000
  F   F60       1.0  0.57611  0.67718  0.53950  1.0000
  F   F61       1.0  0.81853  0.17389  0.05446  1.0000
  F   F62       1.0  0.81408  0.16037  0.55015  1.0000
  F   F63       1.0  0.80754  0.65278  0.06621  1.0000
  F   F64       1.0  0.81216  0.65445  0.55894  1.0000
  F   F65       1.0  0.20359  0.18931  0.21021  1.0000
  F   F66       1.0  0.21255  0.21876  0.70169  1.0000
  F   F67       1.0  0.19942  0.70068  0.21646  1.0000
  F   F68       1.0  0.20404  0.70907  0.70111  1.0000
  F   F69       1.0  0.44051  0.19384  0.23010  1.0000
  F   F70       1.0  0.44761  0.19723  0.72751  1.0000
  F   F71       1.0  0.45884  0.71463  0.21158  1.0000
  F   F72       1.0  0.45474  0.69823  0.70539  1.0000
  F   F73       1.0  0.69585  0.19581  0.21254  1.0000
  F   F74       1.0  0.69751  0.18818  0.73003  1.0000
  F   F75       1.0  0.70696  0.69435  0.21609  1.0000
  F   F76       1.0  0.70281  0.68798  0.71722  1.0000
  F   F77       1.0  0.95561  0.21009  0.21202  1.0000
  F   F78       1.0  0.96478  0.20681  0.70864  1.0000
  F   F79       1.0  0.96039  0.71402  0.20971  1.0000
  F   F80       1.0  0.94926  0.70210  0.71301  1.0000
  F   F81       1.0  0.14817  0.08669  0.02571  1.0000
  F   F82       1.0  0.14445  0.10379  0.53575  1.0000
  F   F83       1.0  0.14871  0.60088  0.02828  1.0000
  F   F84       1.0  0.14535  0.57177  0.55017  1.0000
  F   F85       1.0  0.39669  0.07542  0.03879  1.0000
  F   F86       1.0  0.40070  0.08432  0.55616  1.0000
  F   F87       1.0  0.39648  0.60981  0.02636  1.0000
  F   F88       1.0  0.40378  0.57818  0.53516  1.0000
  F   F89       1.0  0.64674  0.07045  0.05341  1.0000
  F   F90       1.0  0.64737  0.09281  0.53406  1.0000
  F   F91       1.0  0.64764  0.59410  0.03160  1.0000
  F   F92       1.0  0.65280  0.56920  0.53976  1.0000
  F   F93       1.0  0.90010  0.09655  0.06028  1.0000
  F   F94       1.0  0.89690  0.10561  0.54052  1.0000
  F   F95       1.0  0.89438  0.59670  0.04535  1.0000
  F   F96       1.0  0.89865  0.59472  0.53204  1.0000
  F   F97       1.0  0.14542  0.18794  0.13595  1.0000
  F   F98       1.0  0.14839  0.20418  0.63576  1.0000
  F   F99       1.0  0.15533  0.68335  0.11820  1.0000
  F   F100      1.0  0.14821  0.70650  0.60458  1.0000
  F   F101      1.0  0.39849  0.19511  0.11304  1.0000
  F   F102      1.0  0.40117  0.19519  0.62991  1.0000
  F   F103      1.0  0.40869  0.69097  0.14093  1.0000
  F   F104      1.0  0.40820  0.70309  0.60544  1.0000
  F   F105      1.0  0.64830  0.20385  0.11504  1.0000
  F   F106      1.0  0.64977  0.19152  0.62976  1.0000
  F   F107      1.0  0.65389  0.67836  0.13329  1.0000
  F   F108      1.0  0.65019  0.68149  0.63646  1.0000
  F   F109      1.0  0.89291  0.21038  0.13519  1.0000
  F   F110      1.0  0.90975  0.20542  0.62285  1.0000
  F   F111      1.0  0.90382  0.70885  0.14322  1.0000
  F   F112      1.0  0.89909  0.70208  0.61745  1.0000
  F   F113      1.0  0.11065  0.29290  0.38985  1.0000
  F   F114      1.0  0.10105  0.32049  0.87900  1.0000
  F   F115      1.0  0.10022  0.80919  0.37665  1.0000
  F   F116      1.0  0.10133  0.81335  0.86544  1.0000
  F   F117      1.0  0.35067  0.28161  0.39026  1.0000
  F   F118      1.0  0.34995  0.30459  0.85093  1.0000
  F   F119      1.0  0.34890  0.80594  0.36319  1.0000
  F   F120      1.0  0.35394  0.80350  0.89034  1.0000
  F   F121      1.0  0.59684  0.29697  0.38863  1.0000
  F   F122      1.0  0.59768  0.30257  0.85809  1.0000
  F   F123      1.0  0.59814  0.81446  0.35304  1.0000
  F   F124      1.0  0.59532  0.80396  0.88704  1.0000
  F   F125      1.0  0.84237  0.31201  0.38257  1.0000
  F   F126      1.0  0.85178  0.31016  0.83831  1.0000
  F   F127      1.0  0.85368  0.79990  0.37253  1.0000
  F   F128      1.0  0.84983  0.78458  0.87641  1.0000
  F   F129      1.0  0.05429  0.26143  0.14706  1.0000
  F   F130      1.0  0.07087  0.24900  0.63349  1.0000
  F   F131      1.0  0.05707  0.75659  0.15478  1.0000
  F   F132      1.0  0.06556  0.76379  0.63609  1.0000
  F   F133      1.0  0.30724  0.23634  0.14985  1.0000
  F   F134      1.0  0.32093  0.25617  0.61906  1.0000
  F   F135      1.0  0.32434  0.74915  0.12876  1.0000
  F   F136      1.0  0.32044  0.74921  0.63074  1.0000
  F   F137      1.0  0.55151  0.24169  0.16394  1.0000
  F   F138      1.0  0.56316  0.24836  0.65605  1.0000
  F   F139      1.0  0.56713  0.75125  0.13446  1.0000
  F   F140      1.0  0.56154  0.74778  0.65288  1.0000
  F   F141      1.0  0.80452  0.25104  0.17202  1.0000
  F   F142      1.0  0.82901  0.25981  0.62119  1.0000
  F   F143      1.0  0.82492  0.75869  0.12777  1.0000
  F   F144      1.0  0.81404  0.75302  0.64025  1.0000
  F   F145      1.0  0.12386  0.35969  0.12628  1.0000
  F   F146      1.0  0.12762  0.39898  0.58868  1.0000
  F   F147      1.0  0.12170  0.86477  0.10795  1.0000
  F   F148      1.0  0.12695  0.85558  0.61886  1.0000
  F   F149      1.0  0.37137  0.36755  0.10683  1.0000
  F   F150      1.0  0.37163  0.36438  0.61419  1.0000
  F   F151      1.0  0.37499  0.85868  0.11641  1.0000
  F   F152      1.0  0.37770  0.88816  0.59179  1.0000
  F   F153      1.0  0.61950  0.35861  0.12490  1.0000
  F   F154      1.0  0.62220  0.35953  0.62942  1.0000
  F   F155      1.0  0.62286  0.85950  0.12351  1.0000
  F   F156      1.0  0.62456  0.87463  0.60886  1.0000
  F   F157      1.0  0.87267  0.38580  0.09902  1.0000
  F   F158      1.0  0.87399  0.37293  0.61323  1.0000
  F   F159      1.0  0.87661  0.89856  0.10142  1.0000
  F   F160      1.0  0.87582  0.86362  0.62154  1.0000
  F   F161      1.0  0.19708  0.25606  0.33170  1.0000
  F   F162      1.0  0.18868  0.26442  0.85586  1.0000
  F   F163      1.0  0.18365  0.75088  0.37021  1.0000
  F   F164      1.0  0.19253  0.75875  0.84251  1.0000
  F   F165      1.0  0.43037  0.25138  0.36449  1.0000
  F   F166      1.0  0.43205  0.24927  0.86743  1.0000
  F   F167      1.0  0.43221  0.74431  0.37078  1.0000
  F   F168      1.0  0.44881  0.75677  0.82712  1.0000
  F   F169      1.0  0.68563  0.24462  0.35680  1.0000
  F   F170      1.0  0.67330  0.23483  0.89042  1.0000
  F   F171      1.0  0.67721  0.72726  0.37970  1.0000
  F   F172      1.0  0.69029  0.74147  0.85704  1.0000
  F   F173      1.0  0.93185  0.25830  0.36477  1.0000
  F   F174      1.0  0.92543  0.24633  0.87159  1.0000
  F   F175      1.0  0.93694  0.75272  0.35773  1.0000
  F   F176      1.0  0.93695  0.74725  0.85763  1.0000
  F   F177      1.0  0.12481  0.12730  0.38494  1.0000
  F   F178      1.0  0.12904  0.17715  0.84763  1.0000
  F   F179      1.0  0.12346  0.63098  0.40321  1.0000
  F   F180      1.0  0.12818  0.64043  0.88928  1.0000
  F   F181      1.0  0.37082  0.11288  0.41682  1.0000
  F   F182      1.0  0.37270  0.14082  0.88454  1.0000
  F   F183      1.0  0.37651  0.61226  0.39649  1.0000
  F   F184      1.0  0.37582  0.64428  0.87925  1.0000
  F   F185      1.0  0.62231  0.11926  0.39300  1.0000
  F   F186      1.0  0.62380  0.11075  0.90540  1.0000
  F   F187      1.0  0.62572  0.63749  0.37925  1.0000
  F   F188      1.0  0.62362  0.63365  0.89068  1.0000
  F   F189      1.0  0.87794  0.13795  0.38497  1.0000
  F   F190      1.0  0.87599  0.10956  0.90785  1.0000
  F   F191      1.0  0.88115  0.63633  0.37250  1.0000
  F   F192      1.0  0.87334  0.62004  0.89833  1.0000
  F   F193      1.0  0.01023  0.37735  0.05626  1.0000
  F   F194      1.0  0.01385  0.37081  0.57140  1.0000
  F   F195      1.0  0.01408  0.87118  0.05549  1.0000
  F   F196      1.0  0.00740  0.85961  0.56194  1.0000
  F   F197      1.0  0.25423  0.35581  0.08065  1.0000
  F   F198      1.0  0.25987  0.37780  0.57329  1.0000
  F   F199      1.0  0.25491  0.84138  0.08683  1.0000
  F   F200      1.0  0.26415  0.86514  0.56381  1.0000
  F   F201      1.0  0.50263  0.36682  0.07334  1.0000
  F   F202      1.0  0.50469  0.35055  0.59608  1.0000
  F   F203      1.0  0.50489  0.86979  0.07804  1.0000
  F   F204      1.0  0.50942  0.85984  0.56834  1.0000
  F   F205      1.0  0.75607  0.36652  0.08350  1.0000
  F   F206      1.0  0.75804  0.32434  0.60266  1.0000
  F   F207      1.0  0.75647  0.85691  0.06933  1.0000
  F   F208      1.0  0.74765  0.85743  0.59083  1.0000
  F   F209      1.0  0.06996  0.49313  0.17605  1.0000
  F   F210      1.0  0.06769  0.48304  0.68778  1.0000
  F   F211      1.0  0.07303  0.98732  0.16801  1.0000
  F   F212      1.0  0.07351  0.98733  0.66795  1.0000
  F   F213      1.0  0.31952  0.48238  0.17430  1.0000
  F   F214      1.0  0.31691  0.49203  0.68180  1.0000
  F   F215      1.0  0.31815  0.98271  0.16440  1.0000
  F   F216      1.0  0.32066  0.98069  0.68085  1.0000
  F   F217      1.0  0.56771  0.48338  0.17500  1.0000
  F   F218      1.0  0.56810  0.48845  0.67099  1.0000
  F   F219      1.0  0.56959  0.98392  0.17543  1.0000
  F   F220      1.0  0.57265  0.98190  0.67197  1.0000
  F   F221      1.0  0.81744  0.48908  0.17831  1.0000
  F   F222      1.0  0.81886  0.47688  0.67836  1.0000
  F   F223      1.0  0.81247  0.99408  0.17340  1.0000
  F   F224      1.0  0.81832  0.97711  0.68448  1.0000
  F   F225      1.0  0.24171  0.12871  0.43596  1.0000
  F   F226      1.0  0.24074  0.13657  0.92685  1.0000
  F   F227      1.0  0.24262  0.64380  0.41564  1.0000
  F   F228      1.0  0.24502  0.63006  0.92594  1.0000
  F   F229      1.0  0.49314  0.14208  0.41842  1.0000
  F   F230      1.0  0.49661  0.13169  0.92140  1.0000
  F   F231      1.0  0.49424  0.63884  0.42124  1.0000
  F   F232      1.0  0.48995  0.64150  0.93412  1.0000
  F   F233      1.0  0.74371  0.14034  0.42238  1.0000
  F   F234      1.0  0.74356  0.13299  0.92768  1.0000
  F   F235      1.0  0.74422  0.63975  0.42173  1.0000
  F   F236      1.0  0.74160  0.63157  0.92895  1.0000
  F   F237      1.0  0.99282  0.15815  0.41243  1.0000
  F   F238      1.0  0.99007  0.14502  0.92042  1.0000
  F   F239      1.0  0.99198  0.63974  0.42323  1.0000
  F   F240      1.0  0.99429  0.63387  0.92984  1.0000
  F   F241      1.0  0.18570  0.01797  0.31684  1.0000
  F   F242      1.0  0.16998  0.02517  0.84453  1.0000
  F   F243      1.0  0.18291  0.50781  0.33224  1.0000
  F   F244      1.0  0.18047  0.53117  0.80586  1.0000
  F   F245      1.0  0.42695  0.01694  0.33201  1.0000
  F   F246      1.0  0.42405  0.01836  0.83112  1.0000
  F   F247      1.0  0.43752  0.51357  0.31323  1.0000
  F   F248      1.0  0.41957  0.51495  0.84051  1.0000
  F   F249      1.0  0.68158  0.99896  0.34139  1.0000
  F   F250      1.0  0.68757  0.00830  0.81926  1.0000
  F   F251      1.0  0.67105  0.51244  0.33452  1.0000
  F   F252      1.0  0.67943  0.50415  0.83700  1.0000
  F   F253      1.0  0.92973  0.02136  0.30834  1.0000
  F   F254      1.0  0.93270  0.01537  0.81199  1.0000
  F   F255      1.0  0.93796  0.51237  0.32132  1.0000
  F   F256      1.0  0.93347  0.51802  0.82724  1.0000
  F   F257      1.0  0.00510  0.24585  0.00370  1.0000
  F   F258      1.0  0.00269  0.24947  0.50030  1.0000
  F   F259      1.0  0.99627  0.73964  0.01150  1.0000
  F   F260      1.0  0.99292  0.72876  0.51892  1.0000
  F   F261      1.0  0.24895  0.25520  0.00020  1.0000
  F   F262      1.0  0.25352  0.27842  0.48655  1.0000
  F   F263      1.0  0.25063  0.76289  0.98031  1.0000
  F   F264      1.0  0.24793  0.73819  0.50105  1.0000
  F   F265      1.0  0.49728  0.23649  0.01724  1.0000
  F   F266      1.0  0.49608  0.23486  0.51711  1.0000
  F   F267      1.0  0.49867  0.74935  0.00857  1.0000
  F   F268      1.0  0.50308  0.73309  0.50759  1.0000
  F   F269      1.0  0.75000  0.26216  0.99299  1.0000
  F   F270      1.0  0.74464  0.22200  0.52105  1.0000
  F   F271      1.0  0.75140  0.74320  0.00299  1.0000
  F   F272      1.0  0.75055  0.75039  0.49293  1.0000
  F   F273      1.0  0.12657  0.01421  0.24070  1.0000
  F   F274      1.0  0.13043  0.01063  0.73325  1.0000
  F   F275      1.0  0.11972  0.49763  0.25889  1.0000
  F   F276      1.0  0.12570  0.50057  0.74443  1.0000
  F   F277      1.0  0.37535  0.00588  0.24151  1.0000
  F   F278      1.0  0.37138  0.99673  0.75692  1.0000
  F   F279      1.0  0.37909  0.49661  0.23295  1.0000
  F   F280      1.0  0.37497  0.50359  0.74732  1.0000
  F   F281      1.0  0.63026  0.00039  0.24741  1.0000
  F   F282      1.0  0.62825  0.99233  0.74890  1.0000
  F   F283      1.0  0.61983  0.49510  0.25466  1.0000
  F   F284      1.0  0.62389  0.49492  0.76266  1.0000
  F   F285      1.0  0.85964  0.98255  0.27325  1.0000
  F   F286      1.0  0.86923  0.00261  0.75580  1.0000
  F   F287      1.0  0.88196  0.51042  0.23398  1.0000
  F   F288      1.0  0.88164  0.50031  0.73954  1.0000
  F   F289      1.0  0.03929  0.04597  0.02771  1.0000
  F   F290      1.0  0.03463  0.03118  0.52048  1.0000
  F   F291      1.0  0.04567  0.53742  0.01423  1.0000
  F   F292      1.0  0.04012  0.54762  0.52072  1.0000
  F   F293      1.0  0.29007  0.03449  0.01854  1.0000
  F   F294      1.0  0.29684  0.01662  0.51653  1.0000
  F   F295      1.0  0.30767  0.52909  0.99943  1.0000
  F   F296      1.0  0.29479  0.54110  0.52367  1.0000
  F   F297      1.0  0.53990  0.02631  0.03782  1.0000
  F   F298      1.0  0.53973  0.03240  0.52180  1.0000
  F   F299      1.0  0.54460  0.53190  0.02026  1.0000
  F   F300      1.0  0.54468  0.53314  0.52302  1.0000
  F   F301      1.0  0.78886  0.04018  0.03168  1.0000
  F   F302      1.0  0.80403  0.02517  0.51644  1.0000
  F   F303      1.0  0.79900  0.51890  0.01633  1.0000
  F   F304      1.0  0.79423  0.53076  0.52148  1.0000
  F   F305      1.0  0.24097  0.42269  0.20765  1.0000
  F   F306      1.0  0.23208  0.42810  0.72321  1.0000
  F   F307      1.0  0.23582  0.92458  0.21520  1.0000
  F   F308      1.0  0.23351  0.93006  0.72946  1.0000
  F   F309      1.0  0.48303  0.40676  0.22517  1.0000
  F   F310      1.0  0.48378  0.41834  0.73785  1.0000
  F   F311      1.0  0.48197  0.92041  0.22455  1.0000
  F   F312      1.0  0.48513  0.93000  0.72519  1.0000
  F   F313      1.0  0.73268  0.41852  0.24011  1.0000
  F   F314      1.0  0.73474  0.41962  0.72079  1.0000
  F   F315      1.0  0.73712  0.89786  0.24325  1.0000
  F   F316      1.0  0.73467  0.91080  0.72999  1.0000
  F   F317      1.0  0.98541  0.41516  0.21661  1.0000
  F   F318      1.0  0.98624  0.42583  0.71713  1.0000
  F   F319      1.0  0.98541  0.91036  0.21281  1.0000
  F   F320      1.0  0.99020  0.91364  0.72625  1.0000
  F   F321      1.0  0.21517  0.47973  0.45384  1.0000
  F   F322      1.0  0.20513  0.47001  0.97714  1.0000
  F   F323      1.0  0.20117  0.97236  0.47732  1.0000
  F   F324      1.0  0.21142  0.96200  0.97566  1.0000
  F   F325      1.0  0.46829  0.46396  0.47150  1.0000
  F   F326      1.0  0.44656  0.48420  0.99077  1.0000
  F   F327      1.0  0.46364  0.97664  0.47139  1.0000
  F   F328      1.0  0.45698  0.96039  0.96672  1.0000
  F   F329      1.0  0.71296  0.44342  0.49059  1.0000
  F   F330      1.0  0.70936  0.46942  0.98842  1.0000
  F   F331      1.0  0.70527  0.95909  0.48671  1.0000
  F   F332      1.0  0.70062  0.95597  0.98652  1.0000
  F   F333      1.0  0.95765  0.47075  0.47629  1.0000
  F   F334      1.0  0.95438  0.47069  0.98145  1.0000
  F   F335      1.0  0.95138  0.98062  0.47574  1.0000
  F   F336      1.0  0.96549  0.97445  0.96171  1.0000
  F   F337      1.0  0.01430  0.09658  0.26654  1.0000
  F   F338      1.0  0.01416  0.07311  0.76933  1.0000
  F   F339      1.0  0.01969  0.58848  0.27972  1.0000
  F   F340      1.0  0.01228  0.60708  0.76014  1.0000
  F   F341      1.0  0.26817  0.08540  0.27209  1.0000
  F   F342      1.0  0.26184  0.09521  0.76490  1.0000
  F   F343      1.0  0.26367  0.59183  0.25914  1.0000
  F   F344      1.0  0.26582  0.59000  0.76669  1.0000
  F   F345      1.0  0.50699  0.08812  0.26253  1.0000
  F   F346      1.0  0.51250  0.08919  0.77780  1.0000
  F   F347      1.0  0.51524  0.58132  0.26130  1.0000
  F   F348      1.0  0.50808  0.58928  0.77827  1.0000
  F   F349      1.0  0.76295  0.08870  0.28240  1.0000
  F   F350      1.0  0.76897  0.08095  0.76697  1.0000
  F   F351      1.0  0.76662  0.57848  0.27563  1.0000
  F   F352      1.0  0.76640  0.58176  0.76304  1.0000
  F   F353      1.0  0.10145  0.41902  0.46334  1.0000
  F   F354      1.0  0.10483  0.41955  0.96351  1.0000
  F   F355      1.0  0.10028  0.92115  0.45744  1.0000
  F   F356      1.0  0.09516  0.92229  0.94587  1.0000
  F   F357      1.0  0.34902  0.41935  0.44346  1.0000
  F   F358      1.0  0.35151  0.37521  0.96731  1.0000
  F   F359      1.0  0.35995  0.89919  0.45566  1.0000
  F   F360      1.0  0.34899  0.91888  0.97140  1.0000
  F   F361      1.0  0.59699  0.39713  0.47591  1.0000
  F   F362      1.0  0.59844  0.39074  0.97747  1.0000
  F   F363      1.0  0.60159  0.89920  0.46574  1.0000
  F   F364      1.0  0.59860  0.91181  0.96657  1.0000
  F   F365      1.0  0.85221  0.41907  0.46613  1.0000
  F   F366      1.0  0.85120  0.40273  0.93693  1.0000
  F   F367      1.0  0.85556  0.89314  0.46177  1.0000
  F   F368      1.0  0.85293  0.91324  0.96153  1.0000
  F   F369      1.0  0.05053  0.29465  0.29275  1.0000
  F   F370      1.0  0.04555  0.30262  0.77465  1.0000
  F   F371      1.0  0.04508  0.81236  0.30132  1.0000
  F   F372      1.0  0.04400  0.78990  0.80196  1.0000
  F   F373      1.0  0.29566  0.29111  0.29129  1.0000
  F   F374      1.0  0.28733  0.29787  0.79130  1.0000
  F   F375      1.0  0.29685  0.80042  0.28117  1.0000
  F   F376      1.0  0.30019  0.80277  0.77701  1.0000
  F   F377      1.0  0.54204  0.29387  0.29847  1.0000
  F   F378      1.0  0.53749  0.28731  0.80297  1.0000
  F   F379      1.0  0.54325  0.80173  0.28796  1.0000
  F   F380      1.0  0.54145  0.80473  0.78860  1.0000
  F   F381      1.0  0.79078  0.29786  0.30926  1.0000
  F   F382      1.0  0.79294  0.29367  0.78814  1.0000
  F   F383      1.0  0.80204  0.79448  0.28094  1.0000
  F   F384      1.0  0.79227  0.78318  0.79957  1.0000
