data_image0
_chemical_formula_structural       Hf96F384
_chemical_formula_sum              "Hf96 F384"
_cell_length_a       31.009
_cell_length_b       15.5077
_cell_length_c       15.5
_cell_angle_alpha    63.342
_cell_angle_beta     63.342
_cell_angle_gamma    80.1625

_space_group_name_H-M_alt    "P 1"
_space_group_IT_number       1

loop_
  _space_group_symop_operation_xyz
  'x, y, z'

loop_
  _atom_site_type_symbol
  _atom_site_label
  _atom_site_symmetry_multiplicity
  _atom_site_fract_x
  _atom_site_fract_y
  _atom_site_fract_z
  _atom_site_occupancy
  Hf  Hf1       1.0  0.19295  0.10341  0.37971  1.0000
  Hf  Hf2       1.0  0.19674  0.10557  0.87283  1.0000
  Hf  Hf3       1.0  0.19738  0.61276  0.37827  1.0000
  Hf  Hf4       1.0  0.19295  0.60057  0.88369  1.0000
  Hf  Hf5       1.0  0.44736  0.11913  0.36904  1.0000
  Hf  Hf6       1.0  0.44397  0.10105  0.87500  1.0000
  Hf  Hf7       1.0  0.44769  0.61298  0.36987  1.0000
  Hf  Hf8       1.0  0.44598  0.60732  0.87599  1.0000
  Hf  Hf9       1.0  0.69533  0.10878  0.37995  1.0000
  Hf  Hf10      1.0  0.69864  0.10947  0.87517  1.0000
  Hf  Hf11      1.0  0.69833  0.62122  0.36546  1.0000
  Hf  Hf12      1.0  0.69620  0.60874  0.87419  1.0000
  Hf  Hf13      1.0  0.94322  0.09895  0.38609  1.0000
  Hf  Hf14      1.0  0.94521  0.10976  0.86834  1.0000
  Hf  Hf15      1.0  0.94744  0.60436  0.37585  1.0000
  Hf  Hf16      1.0  0.94568  0.60193  0.87284  1.0000
  Hf  Hf17      1.0  0.05498  0.39172  0.12325  1.0000
  Hf  Hf18      1.0  0.05156  0.38295  0.62991  1.0000
  Hf  Hf19      1.0  0.05392  0.89148  0.11971  1.0000
  Hf  Hf20      1.0  0.05272  0.88798  0.62543  1.0000
  Hf  Hf21      1.0  0.30315  0.38740  0.12710  1.0000
  Hf  Hf22      1.0  0.30263  0.39137  0.62328  1.0000
  Hf  Hf23      1.0  0.30540  0.89488  0.12187  1.0000
  Hf  Hf24      1.0  0.30238  0.88666  0.62932  1.0000
  Hf  Hf25      1.0  0.55353  0.40075  0.11926  1.0000
  Hf  Hf26      1.0  0.55776  0.39069  0.62305  1.0000
  Hf  Hf27      1.0  0.55483  0.90194  0.12413  1.0000
  Hf  Hf28      1.0  0.55485  0.89621  0.61959  1.0000
  Hf  Hf29      1.0  0.80595  0.40432  0.11657  1.0000
  Hf  Hf30      1.0  0.80203  0.39250  0.62672  1.0000
  Hf  Hf31      1.0  0.80743  0.89338  0.12360  1.0000
  Hf  Hf32      1.0  0.80502  0.89331  0.63326  1.0000
  Hf  Hf33      1.0  0.05755  0.18060  0.41403  1.0000
  Hf  Hf34      1.0  0.05362  0.18110  0.91643  1.0000
  Hf  Hf35      1.0  0.05793  0.67160  0.42616  1.0000
  Hf  Hf36      1.0  0.05285  0.67611  0.92212  1.0000
  Hf  Hf37      1.0  0.30341  0.17999  0.41968  1.0000
  Hf  Hf38      1.0  0.30647  0.18046  0.91306  1.0000
  Hf  Hf39      1.0  0.30291  0.67530  0.42675  1.0000
  Hf  Hf40      1.0  0.30651  0.68281  0.91865  1.0000
  Hf  Hf41      1.0  0.55512  0.19183  0.41039  1.0000
  Hf  Hf42      1.0  0.55540  0.17527  0.91937  1.0000
  Hf  Hf43      1.0  0.55637  0.68513  0.41286  1.0000
  Hf  Hf44      1.0  0.55802  0.68705  0.91352  1.0000
  Hf  Hf45      1.0  0.80721  0.18443  0.41512  1.0000
  Hf  Hf46      1.0  0.80971  0.18201  0.91789  1.0000
  Hf  Hf47      1.0  0.80425  0.67754  0.41771  1.0000
  Hf  Hf48      1.0  0.80372  0.68151  0.91772  1.0000
  Hf  Hf49      1.0  0.15737  0.38929  0.33723  1.0000
  Hf  Hf50      1.0  0.16028  0.38973  0.83279  1.0000
  Hf  Hf51      1.0  0.15965  0.88505  0.33487  1.0000
  Hf  Hf52      1.0  0.15623  0.87950  0.83688  1.0000
  Hf  Hf53      1.0  0.40851  0.39047  0.33617  1.0000
  Hf  Hf54      1.0  0.40590  0.38558  0.83657  1.0000
  Hf  Hf55      1.0  0.40776  0.89507  0.33644  1.0000
  Hf  Hf56      1.0  0.40889  0.88433  0.83219  1.0000
  Hf  Hf57      1.0  0.66108  0.40019  0.32503  1.0000
  Hf  Hf58      1.0  0.65823  0.39252  0.82793  1.0000
  Hf  Hf59      1.0  0.66234  0.89937  0.32826  1.0000
  Hf  Hf60      1.0  0.66142  0.89075  0.82905  1.0000
  Hf  Hf61      1.0  0.90486  0.38508  0.34688  1.0000
  Hf  Hf62      1.0  0.91004  0.39480  0.82396  1.0000
  Hf  Hf63      1.0  0.91003  0.88380  0.33109  1.0000
  Hf  Hf64      1.0  0.91010  0.88761  0.82849  1.0000
  Hf  Hf65      1.0  0.19089  0.30968  0.08840  1.0000
  Hf  Hf66      1.0  0.19361  0.31483  0.58082  1.0000
  Hf  Hf67      1.0  0.19707  0.81962  0.07732  1.0000
  Hf  Hf68      1.0  0.19165  0.81428  0.58946  1.0000
  Hf  Hf69      1.0  0.44680  0.31841  0.08212  1.0000
  Hf  Hf70      1.0  0.44415  0.32758  0.58058  1.0000
  Hf  Hf71      1.0  0.44392  0.81636  0.08485  1.0000
  Hf  Hf72      1.0  0.44535  0.82293  0.58007  1.0000
  Hf  Hf73      1.0  0.69348  0.32161  0.07939  1.0000
  Hf  Hf74      1.0  0.69268  0.31068  0.58906  1.0000
  Hf  Hf75      1.0  0.69616  0.81834  0.08196  1.0000
  Hf  Hf76      1.0  0.69639  0.81869  0.57963  1.0000
  Hf  Hf77      1.0  0.94308  0.31097  0.09101  1.0000
  Hf  Hf78      1.0  0.94383  0.31341  0.58207  1.0000
  Hf  Hf79      1.0  0.94715  0.81924  0.07593  1.0000
  Hf  Hf80      1.0  0.94738  0.81515  0.57678  1.0000
  Hf  Hf81      1.0  0.08870  0.10230  0.17640  1.0000
  Hf  Hf82      1.0  0.09115  0.10815  0.66715  1.0000
  Hf  Hf83      1.0  0.09154  0.60843  0.16950  1.0000
  Hf  Hf84      1.0  0.08620  0.60074  0.68390  1.0000
  Hf  Hf85      1.0  0.33814  0.11314  0.16649  1.0000
  Hf  Hf86      1.0  0.34117  0.10929  0.66676  1.0000
  Hf  Hf87      1.0  0.34523  0.61643  0.16189  1.0000
  Hf  Hf88      1.0  0.34297  0.61180  0.66214  1.0000
  Hf  Hf89      1.0  0.59419  0.12399  0.15891  1.0000
  Hf  Hf90      1.0  0.58874  0.11420  0.66681  1.0000
  Hf  Hf91      1.0  0.59177  0.61722  0.16371  1.0000
  Hf  Hf92      1.0  0.59258  0.62030  0.65871  1.0000
  Hf  Hf93      1.0  0.84200  0.11315  0.16643  1.0000
  Hf  Hf94      1.0  0.84236  0.11096  0.66945  1.0000
  Hf  Hf95      1.0  0.84431  0.61800  0.15960  1.0000
  Hf  Hf96      1.0  0.83821  0.60858  0.67298  1.0000
  F   F1        1.0  0.07865  0.11792  0.30781  1.0000
  F   F2        1.0  0.08486  0.13715  0.78966  1.0000
  F   F3        1.0  0.07924  0.61881  0.31278  1.0000
  F   F4        1.0  0.07127  0.59379  0.83507  1.0000
  F   F5        1.0  0.32401  0.13494  0.30128  1.0000
  F   F6        1.0  0.32252  0.11177  0.81326  1.0000
  F   F7        1.0  0.32847  0.61061  0.31405  1.0000
  F   F8        1.0  0.33526  0.66183  0.78828  1.0000
  F   F9        1.0  0.58423  0.14775  0.29360  1.0000
  F   F10       1.0  0.57338  0.10786  0.81309  1.0000
  F   F11       1.0  0.57865  0.63695  0.30061  1.0000
  F   F12       1.0  0.57608  0.62057  0.80773  1.0000
  F   F13       1.0  0.82172  0.12045  0.32090  1.0000
  F   F14       1.0  0.83581  0.13744  0.79539  1.0000
  F   F15       1.0  0.83327  0.62586  0.30351  1.0000
  F   F16       1.0  0.81752  0.62943  0.81417  1.0000
  F   F17       1.0  0.18848  0.35737  0.44165  1.0000
  F   F18       1.0  0.18029  0.33071  0.95452  1.0000
  F   F19       1.0  0.17984  0.83016  0.45774  1.0000
  F   F20       1.0  0.18559  0.85037  0.94639  1.0000
  F   F21       1.0  0.44431  0.35618  0.43113  1.0000
  F   F22       1.0  0.43741  0.34946  0.93691  1.0000
  F   F23       1.0  0.43157  0.83782  0.44577  1.0000
  F   F24       1.0  0.43715  0.82928  0.95152  1.0000
  F   F25       1.0  0.68324  0.34147  0.46026  1.0000
  F   F26       1.0  0.68370  0.33542  0.94899  1.0000
  F   F27       1.0  0.68837  0.84360  0.44737  1.0000
  F   F28       1.0  0.68219  0.84620  0.94671  1.0000
  F   F29       1.0  0.93992  0.33086  0.45023  1.0000
  F   F30       1.0  0.92551  0.33466  0.95392  1.0000
  F   F31       1.0  0.93466  0.83135  0.45135  1.0000
  F   F32       1.0  0.93338  0.84153  0.94396  1.0000
  F   F33       1.0  0.16719  0.36002  0.19704  1.0000
  F   F34       1.0  0.17111  0.36548  0.70177  1.0000
  F   F35       1.0  0.17370  0.87486  0.19901  1.0000
  F   F36       1.0  0.17243  0.87741  0.68990  1.0000
  F   F37       1.0  0.42002  0.35897  0.20245  1.0000
  F   F38       1.0  0.41734  0.37666  0.69502  1.0000
  F   F39       1.0  0.41470  0.86737  0.21116  1.0000
  F   F40       1.0  0.42316  0.88543  0.68380  1.0000
  F   F41       1.0  0.66995  0.37980  0.19024  1.0000
  F   F42       1.0  0.66418  0.35967  0.70742  1.0000
  F   F43       1.0  0.67186  0.88592  0.19193  1.0000
  F   F44       1.0  0.66855  0.86496  0.70614  1.0000
  F   F45       1.0  0.91769  0.35631  0.21047  1.0000
  F   F46       1.0  0.92374  0.38151  0.68640  1.0000
  F   F47       1.0  0.92375  0.87953  0.18641  1.0000
  F   F48       1.0  0.92004  0.86534  0.69440  1.0000
  F   F49       1.0  0.06206  0.15498  0.05059  1.0000
  F   F50       1.0  0.06308  0.15019  0.55473  1.0000
  F   F51       1.0  0.07069  0.65539  0.05065  1.0000
  F   F52       1.0  0.05518  0.65161  0.56906  1.0000
  F   F53       1.0  0.31088  0.16080  0.04975  1.0000
  F   F54       1.0  0.31197  0.14638  0.55470  1.0000
  F   F55       1.0  0.32159  0.67340  0.04464  1.0000
  F   F56       1.0  0.31040  0.64974  0.56530  1.0000
  F   F57       1.0  0.55647  0.15123  0.06053  1.0000
  F   F58       1.0  0.56762  0.17183  0.54757  1.0000
  F   F59       1.0  0.55565  0.65577  0.06721  1.0000
  F   F60       1.0  0.56563  0.65909  0.55395  1.0000
  F   F61       1.0  0.81181  0.14939  0.06006  1.0000
  F   F62       1.0  0.81984  0.15417  0.55611  1.0000
  F   F63       1.0  0.82091  0.67178  0.04023  1.0000
  F   F64       1.0  0.81032  0.65625  0.55559  1.0000
  F   F65       1.0  0.20339  0.19966  0.22015  1.0000
  F   F66       1.0  0.20002  0.20004  0.70591  1.0000
  F   F67       1.0  0.19544  0.69944  0.20555  1.0000
  F   F68       1.0  0.20028  0.69860  0.71501  1.0000
  F   F69       1.0  0.45122  0.19402  0.21032  1.0000
  F   F70       1.0  0.43933  0.20493  0.72142  1.0000
  F   F71       1.0  0.45270  0.70145  0.21470  1.0000
  F   F72       1.0  0.45135  0.71280  0.70596  1.0000
  F   F73       1.0  0.70074  0.21319  0.21168  1.0000
  F   F74       1.0  0.70798  0.19882  0.71337  1.0000
  F   F75       1.0  0.70701  0.70295  0.21691  1.0000
  F   F76       1.0  0.70860  0.70781  0.70996  1.0000
  F   F77       1.0  0.95444  0.19059  0.21670  1.0000
  F   F78       1.0  0.94343  0.20044  0.71613  1.0000
  F   F79       1.0  0.95143  0.70559  0.21434  1.0000
  F   F80       1.0  0.95616  0.70076  0.70921  1.0000
  F   F81       1.0  0.14722  0.08635  0.05064  1.0000
  F   F82       1.0  0.14743  0.07929  0.54966  1.0000
  F   F83       1.0  0.15286  0.59060  0.03411  1.0000
  F   F84       1.0  0.14417  0.59679  0.55261  1.0000
  F   F85       1.0  0.39593  0.09159  0.04452  1.0000
  F   F86       1.0  0.39766  0.09735  0.53047  1.0000
  F   F87       1.0  0.40157  0.58733  0.04337  1.0000
  F   F88       1.0  0.39543  0.59366  0.52979  1.0000
  F   F89       1.0  0.64814  0.09756  0.03274  1.0000
  F   F90       1.0  0.64864  0.10117  0.53722  1.0000
  F   F91       1.0  0.64852  0.60004  0.03229  1.0000
  F   F92       1.0  0.64894  0.59784  0.54173  1.0000
  F   F93       1.0  0.90048  0.10299  0.04024  1.0000
  F   F94       1.0  0.90104  0.06642  0.54449  1.0000
  F   F95       1.0  0.89428  0.58258  0.03712  1.0000
  F   F96       1.0  0.89926  0.59858  0.53882  1.0000
  F   F97       1.0  0.15104  0.19625  0.13379  1.0000
  F   F98       1.0  0.14950  0.20351  0.60836  1.0000
  F   F99       1.0  0.15016  0.70305  0.11068  1.0000
  F   F100      1.0  0.14382  0.68263  0.65209  1.0000
  F   F101      1.0  0.39757  0.21128  0.11834  1.0000
  F   F102      1.0  0.39745  0.19860  0.62029  1.0000
  F   F103      1.0  0.40368  0.69558  0.12608  1.0000
  F   F104      1.0  0.40203  0.68329  0.61946  1.0000
  F   F105      1.0  0.65363  0.19093  0.12767  1.0000
  F   F106      1.0  0.64801  0.18764  0.64698  1.0000
  F   F107      1.0  0.65740  0.70282  0.12735  1.0000
  F   F108      1.0  0.65135  0.68538  0.64104  1.0000
  F   F109      1.0  0.89466  0.20230  0.14643  1.0000
  F   F110      1.0  0.89982  0.19071  0.60840  1.0000
  F   F111      1.0  0.90193  0.69482  0.10979  1.0000
  F   F112      1.0  0.89634  0.69277  0.63724  1.0000
  F   F113      1.0  0.09136  0.29478  0.38719  1.0000
  F   F114      1.0  0.08825  0.30872  0.88157  1.0000
  F   F115      1.0  0.10054  0.79692  0.40066  1.0000
  F   F116      1.0  0.09444  0.79638  0.88504  1.0000
  F   F117      1.0  0.34538  0.30101  0.38476  1.0000
  F   F118      1.0  0.34553  0.30085  0.87124  1.0000
  F   F119      1.0  0.34924  0.81131  0.39576  1.0000
  F   F120      1.0  0.35015  0.80647  0.86226  1.0000
  F   F121      1.0  0.58960  0.31311  0.37630  1.0000
  F   F122      1.0  0.60031  0.29904  0.89372  1.0000
  F   F123      1.0  0.59067  0.80948  0.36990  1.0000
  F   F124      1.0  0.59815  0.79538  0.90045  1.0000
  F   F125      1.0  0.84545  0.30560  0.38895  1.0000
  F   F126      1.0  0.85449  0.30298  0.86986  1.0000
  F   F127      1.0  0.84902  0.79810  0.37444  1.0000
  F   F128      1.0  0.84507  0.79477  0.86318  1.0000
  F   F129      1.0  0.07287  0.24935  0.12993  1.0000
  F   F130      1.0  0.06630  0.25839  0.62638  1.0000
  F   F131      1.0  0.06094  0.75346  0.14356  1.0000
  F   F132      1.0  0.06062  0.74549  0.65188  1.0000
  F   F133      1.0  0.31114  0.24567  0.15245  1.0000
  F   F134      1.0  0.31703  0.24810  0.63366  1.0000
  F   F135      1.0  0.31778  0.74643  0.15292  1.0000
  F   F136      1.0  0.31484  0.75452  0.63507  1.0000
  F   F137      1.0  0.57219  0.26132  0.11919  1.0000
  F   F138      1.0  0.56210  0.24867  0.65247  1.0000
  F   F139      1.0  0.57023  0.75537  0.12586  1.0000
  F   F140      1.0  0.56464  0.75784  0.64401  1.0000
  F   F141      1.0  0.82189  0.25417  0.12293  1.0000
  F   F142      1.0  0.81313  0.25882  0.62977  1.0000
  F   F143      1.0  0.82548  0.75876  0.12960  1.0000
  F   F144      1.0  0.81546  0.74813  0.63305  1.0000
  F   F145      1.0  0.12295  0.36720  0.10255  1.0000
  F   F146      1.0  0.12474  0.36213  0.60457  1.0000
  F   F147      1.0  0.12309  0.85893  0.11817  1.0000
  F   F148      1.0  0.12150  0.85924  0.61650  1.0000
  F   F149      1.0  0.37489  0.38160  0.10413  1.0000
  F   F150      1.0  0.37701  0.38424  0.59347  1.0000
  F   F151      1.0  0.37583  0.87699  0.09551  1.0000
  F   F152      1.0  0.37648  0.85653  0.60860  1.0000
  F   F153      1.0  0.62558  0.36804  0.11425  1.0000
  F   F154      1.0  0.62739  0.38482  0.59857  1.0000
  F   F155      1.0  0.62577  0.86334  0.11547  1.0000
  F   F156      1.0  0.62898  0.87134  0.59647  1.0000
  F   F157      1.0  0.87430  0.37453  0.10564  1.0000
  F   F158      1.0  0.87452  0.36699  0.61813  1.0000
  F   F159      1.0  0.87944  0.87223  0.09963  1.0000
  F   F160      1.0  0.87355  0.87052  0.61528  1.0000
  F   F161      1.0  0.17521  0.24736  0.37083  1.0000
  F   F162      1.0  0.18209  0.24742  0.85927  1.0000
  F   F163      1.0  0.19701  0.75342  0.34142  1.0000
  F   F164      1.0  0.18691  0.74964  0.86101  1.0000
  F   F165      1.0  0.43681  0.25683  0.35284  1.0000
  F   F166      1.0  0.42872  0.24797  0.86604  1.0000
  F   F167      1.0  0.44161  0.74489  0.35428  1.0000
  F   F168      1.0  0.43100  0.74994  0.86412  1.0000
  F   F169      1.0  0.68584  0.25346  0.35893  1.0000
  F   F170      1.0  0.68666  0.24593  0.85864  1.0000
  F   F171      1.0  0.67581  0.76024  0.36744  1.0000
  F   F172      1.0  0.68641  0.75396  0.85684  1.0000
  F   F173      1.0  0.92618  0.24169  0.37562  1.0000
  F   F174      1.0  0.93744  0.25674  0.84218  1.0000
  F   F175      1.0  0.94175  0.75137  0.34008  1.0000
  F   F176      1.0  0.93696  0.74720  0.85663  1.0000
  F   F177      1.0  0.12527  0.11992  0.39347  1.0000
  F   F178      1.0  0.12681  0.13882  0.88521  1.0000
  F   F179      1.0  0.12712  0.64282  0.39059  1.0000
  F   F180      1.0  0.12592  0.62077  0.88911  1.0000
  F   F181      1.0  0.37519  0.13590  0.38503  1.0000
  F   F182      1.0  0.37535  0.11574  0.88713  1.0000
  F   F183      1.0  0.37452  0.64968  0.38640  1.0000
  F   F184      1.0  0.37670  0.61598  0.89642  1.0000
  F   F185      1.0  0.62667  0.13232  0.38405  1.0000
  F   F186      1.0  0.62796  0.14294  0.87242  1.0000
  F   F187      1.0  0.62721  0.63058  0.38296  1.0000
  F   F188      1.0  0.63068  0.62879  0.88527  1.0000
  F   F189      1.0  0.87385  0.11970  0.40084  1.0000
  F   F190      1.0  0.87602  0.12848  0.89992  1.0000
  F   F191      1.0  0.87835  0.62114  0.40291  1.0000
  F   F192      1.0  0.87390  0.62696  0.88647  1.0000
  F   F193      1.0  0.00732  0.35735  0.07994  1.0000
  F   F194      1.0  0.00440  0.35582  0.57808  1.0000
  F   F195      1.0  0.00664  0.87012  0.06529  1.0000
  F   F196      1.0  0.00548  0.86236  0.57824  1.0000
  F   F197      1.0  0.25710  0.36876  0.08319  1.0000
  F   F198      1.0  0.25653  0.34864  0.58253  1.0000
  F   F199      1.0  0.25940  0.85762  0.07363  1.0000
  F   F200      1.0  0.26064  0.85370  0.56993  1.0000
  F   F201      1.0  0.50768  0.36244  0.07848  1.0000
  F   F202      1.0  0.51031  0.35751  0.57187  1.0000
  F   F203      1.0  0.50707  0.85861  0.08629  1.0000
  F   F204      1.0  0.50979  0.86145  0.57007  1.0000
  F   F205      1.0  0.75777  0.35729  0.07709  1.0000
  F   F206      1.0  0.75447  0.35832  0.57443  1.0000
  F   F207      1.0  0.75833  0.86603  0.08407  1.0000
  F   F208      1.0  0.75672  0.87048  0.58523  1.0000
  F   F209      1.0  0.07367  0.48014  0.18375  1.0000
  F   F210      1.0  0.07438  0.47525  0.67796  1.0000
  F   F211      1.0  0.06554  0.97975  0.17438  1.0000
  F   F212      1.0  0.06685  0.97812  0.68012  1.0000
  F   F213      1.0  0.31492  0.48898  0.18031  1.0000
  F   F214      1.0  0.31178  0.47899  0.68384  1.0000
  F   F215      1.0  0.32122  0.99763  0.16964  1.0000
  F   F216      1.0  0.31794  0.98395  0.67889  1.0000
  F   F217      1.0  0.57331  0.48509  0.17522  1.0000
  F   F218      1.0  0.56720  0.48205  0.67948  1.0000
  F   F219      1.0  0.56720  0.99280  0.17175  1.0000
  F   F220      1.0  0.57235  0.98861  0.66054  1.0000
  F   F221      1.0  0.81956  0.48735  0.17564  1.0000
  F   F222      1.0  0.81963  0.48348  0.66624  1.0000
  F   F223      1.0  0.81619  0.98831  0.18575  1.0000
  F   F224      1.0  0.81719  0.98389  0.67510  1.0000
  F   F225      1.0  0.23929  0.13540  0.42387  1.0000
  F   F226      1.0  0.24295  0.14286  0.91889  1.0000
  F   F227      1.0  0.24251  0.63586  0.43294  1.0000
  F   F228      1.0  0.24226  0.62785  0.94750  1.0000
  F   F229      1.0  0.49628  0.14340  0.41922  1.0000
  F   F230      1.0  0.49021  0.13607  0.91348  1.0000
  F   F231      1.0  0.49512  0.63001  0.42687  1.0000
  F   F232      1.0  0.49615  0.65469  0.91179  1.0000
  F   F233      1.0  0.73878  0.13354  0.43452  1.0000
  F   F234      1.0  0.74768  0.14610  0.92876  1.0000
  F   F235      1.0  0.74002  0.63853  0.42647  1.0000
  F   F236      1.0  0.73626  0.64143  0.93540  1.0000
  F   F237      1.0  0.99368  0.14017  0.41564  1.0000
  F   F238      1.0  0.98972  0.12837  0.92237  1.0000
  F   F239      1.0  0.99285  0.63891  0.42553  1.0000
  F   F240      1.0  0.98922  0.63047  0.92734  1.0000
  F   F241      1.0  0.17956  0.01056  0.31761  1.0000
  F   F242      1.0  0.17982  0.01067  0.82570  1.0000
  F   F243      1.0  0.17781  0.51746  0.33768  1.0000
  F   F244      1.0  0.18570  0.50626  0.82872  1.0000
  F   F245      1.0  0.42975  0.02727  0.31435  1.0000
  F   F246      1.0  0.43682  0.00812  0.81740  1.0000
  F   F247      1.0  0.42867  0.51824  0.32202  1.0000
  F   F248      1.0  0.43348  0.51750  0.79416  1.0000
  F   F249      1.0  0.67940  0.01813  0.33310  1.0000
  F   F250      1.0  0.68428  0.01749  0.82401  1.0000
  F   F251      1.0  0.68607  0.51836  0.32070  1.0000
  F   F252      1.0  0.68644  0.51458  0.81936  1.0000
  F   F253      1.0  0.93391  0.00598  0.33869  1.0000
  F   F254      1.0  0.93074  0.02118  0.81779  1.0000
  F   F255      1.0  0.93084  0.51349  0.32459  1.0000
  F   F256      1.0  0.93508  0.51628  0.80680  1.0000
  F   F257      1.0  0.99380  0.24210  0.00248  1.0000
  F   F258      1.0  0.00240  0.24141  0.50793  1.0000
  F   F259      1.0  0.00046  0.74673  0.99995  1.0000
  F   F260      1.0  0.00263  0.75302  0.48615  1.0000
  F   F261      1.0  0.25036  0.25767  0.99423  1.0000
  F   F262      1.0  0.24685  0.23745  0.50528  1.0000
  F   F263      1.0  0.25354  0.75538  0.99983  1.0000
  F   F264      1.0  0.24282  0.74761  0.50293  1.0000
  F   F265      1.0  0.49941  0.24019  0.99715  1.0000
  F   F266      1.0  0.49543  0.25010  0.50289  1.0000
  F   F267      1.0  0.49586  0.73969  0.01273  1.0000
  F   F268      1.0  0.49834  0.74890  0.49845  1.0000
  F   F269      1.0  0.75151  0.25658  0.00028  1.0000
  F   F270      1.0  0.75116  0.23339  0.51447  1.0000
  F   F271      1.0  0.75301  0.74582  0.00390  1.0000
  F   F272      1.0  0.74590  0.74364  0.50413  1.0000
  F   F273      1.0  0.12011  0.98977  0.26113  1.0000
  F   F274      1.0  0.11930  0.99078  0.76349  1.0000
  F   F275      1.0  0.13329  0.50357  0.23844  1.0000
  F   F276      1.0  0.13051  0.50032  0.74159  1.0000
  F   F277      1.0  0.36883  0.00135  0.25787  1.0000
  F   F278      1.0  0.37925  0.00407  0.74403  1.0000
  F   F279      1.0  0.37905  0.50681  0.23663  1.0000
  F   F280      1.0  0.36373  0.49181  0.76716  1.0000
  F   F281      1.0  0.62610  0.01201  0.24581  1.0000
  F   F282      1.0  0.61477  0.98831  0.75743  1.0000
  F   F283      1.0  0.63089  0.51478  0.24001  1.0000
  F   F284      1.0  0.62520  0.50035  0.75146  1.0000
  F   F285      1.0  0.87753  0.00104  0.25150  1.0000
  F   F286      1.0  0.87624  0.99078  0.73936  1.0000
  F   F287      1.0  0.86860  0.49115  0.26518  1.0000
  F   F288      1.0  0.86521  0.48903  0.76513  1.0000
  F   F289      1.0  0.04554  0.02779  0.00473  1.0000
  F   F290      1.0  0.03938  0.02803  0.53192  1.0000
  F   F291      1.0  0.02800  0.52792  0.04766  1.0000
  F   F292      1.0  0.04320  0.51818  0.52994  1.0000
  F   F293      1.0  0.29972  0.03040  0.01673  1.0000
  F   F294      1.0  0.28804  0.02734  0.52466  1.0000
  F   F295      1.0  0.30110  0.53159  0.02101  1.0000
  F   F296      1.0  0.28859  0.53055  0.52393  1.0000
  F   F297      1.0  0.53793  0.03494  0.01687  1.0000
  F   F298      1.0  0.54501  0.03220  0.51837  1.0000
  F   F299      1.0  0.54608  0.54093  0.01697  1.0000
  F   F300      1.0  0.54957  0.52822  0.51466  1.0000
  F   F301      1.0  0.79851  0.02787  0.01659  1.0000
  F   F302      1.0  0.79304  0.04000  0.53084  1.0000
  F   F303      1.0  0.78306  0.53940  0.03644  1.0000
  F   F304      1.0  0.79128  0.53117  0.52269  1.0000
  F   F305      1.0  0.22984  0.41725  0.22877  1.0000
  F   F306      1.0  0.23718  0.40603  0.73240  1.0000
  F   F307      1.0  0.24003  0.91503  0.22933  1.0000
  F   F308      1.0  0.23594  0.92133  0.72182  1.0000
  F   F309      1.0  0.48348  0.43275  0.21094  1.0000
  F   F310      1.0  0.49141  0.38795  0.72681  1.0000
  F   F311      1.0  0.48248  0.92060  0.22538  1.0000
  F   F312      1.0  0.48751  0.91225  0.71678  1.0000
  F   F313      1.0  0.73583  0.40741  0.23673  1.0000
  F   F314      1.0  0.73195  0.41324  0.72715  1.0000
  F   F315      1.0  0.73821  0.91792  0.23452  1.0000
  F   F316      1.0  0.73326  0.92310  0.73026  1.0000
  F   F317      1.0  0.98387  0.40694  0.23549  1.0000
  F   F318      1.0  0.98711  0.40681  0.73529  1.0000
  F   F319      1.0  0.98639  0.90942  0.22003  1.0000
  F   F320      1.0  0.98698  0.91422  0.73511  1.0000
  F   F321      1.0  0.20581  0.48337  0.48681  1.0000
  F   F322      1.0  0.20737  0.45964  0.97259  1.0000
  F   F323      1.0  0.20918  0.96057  0.47768  1.0000
  F   F324      1.0  0.20947  0.96446  0.98480  1.0000
  F   F325      1.0  0.45620  0.47549  0.47740  1.0000
  F   F326      1.0  0.46401  0.47852  0.97212  1.0000
  F   F327      1.0  0.45393  0.97976  0.46838  1.0000
  F   F328      1.0  0.45880  0.96764  0.97571  1.0000
  F   F329      1.0  0.71136  0.47857  0.46675  1.0000
  F   F330      1.0  0.70924  0.47231  0.97420  1.0000
  F   F331      1.0  0.70930  0.97450  0.47807  1.0000
  F   F332      1.0  0.71125  0.96659  0.98406  1.0000
  F   F333      1.0  0.95339  0.46913  0.47808  1.0000
  F   F334      1.0  0.95779  0.46160  0.96691  1.0000
  F   F335      1.0  0.96110  0.96862  0.47955  1.0000
  F   F336      1.0  0.95736  0.97589  0.97410  1.0000
  F   F337      1.0  0.01778  0.07010  0.27780  1.0000
  F   F338      1.0  0.01416  0.10229  0.76550  1.0000
  F   F339      1.0  0.01682  0.58444  0.27097  1.0000
  F   F340      1.0  0.01205  0.57707  0.77564  1.0000
  F   F341      1.0  0.25947  0.07766  0.27675  1.0000
  F   F342      1.0  0.26237  0.08635  0.76390  1.0000
  F   F343      1.0  0.26438  0.59430  0.27025  1.0000
  F   F344      1.0  0.26857  0.58463  0.78623  1.0000
  F   F345      1.0  0.52005  0.10386  0.26447  1.0000
  F   F346      1.0  0.51416  0.08637  0.75602  1.0000
  F   F347      1.0  0.51830  0.58824  0.27104  1.0000
  F   F348      1.0  0.50950  0.60522  0.76197  1.0000
  F   F349      1.0  0.76705  0.09598  0.26885  1.0000
  F   F350      1.0  0.76899  0.09012  0.77463  1.0000
  F   F351      1.0  0.76679  0.60273  0.27071  1.0000
  F   F352      1.0  0.76695  0.57145  0.77434  1.0000
  F   F353      1.0  0.09513  0.40539  0.45196  1.0000
  F   F354      1.0  0.09492  0.41956  0.95180  1.0000
  F   F355      1.0  0.09781  0.91638  0.46417  1.0000
  F   F356      1.0  0.10019  0.89626  0.96763  1.0000
  F   F357      1.0  0.35236  0.41522  0.44672  1.0000
  F   F358      1.0  0.35448  0.40455  0.95986  1.0000
  F   F359      1.0  0.35419  0.92587  0.46219  1.0000
  F   F360      1.0  0.35418  0.90048  0.95833  1.0000
  F   F361      1.0  0.60575  0.41079  0.45942  1.0000
  F   F362      1.0  0.59706  0.41920  0.96557  1.0000
  F   F363      1.0  0.60575  0.88989  0.46243  1.0000
  F   F364      1.0  0.60198  0.93219  0.96208  1.0000
  F   F365      1.0  0.85499  0.41662  0.46885  1.0000
  F   F366      1.0  0.84900  0.42966  0.96001  1.0000
  F   F367      1.0  0.85319  0.90320  0.46188  1.0000
  F   F368      1.0  0.85489  0.89867  0.95142  1.0000
  F   F369      1.0  0.04558  0.29706  0.28919  1.0000
  F   F370      1.0  0.04878  0.29791  0.78256  1.0000
  F   F371      1.0  0.05198  0.79421  0.30459  1.0000
  F   F372      1.0  0.04454  0.78858  0.80148  1.0000
  F   F373      1.0  0.29160  0.30790  0.28652  1.0000
  F   F374      1.0  0.30060  0.29794  0.77635  1.0000
  F   F375      1.0  0.29580  0.79669  0.30537  1.0000
  F   F376      1.0  0.29322  0.80545  0.79026  1.0000
  F   F377      1.0  0.54180  0.30871  0.27723  1.0000
  F   F378      1.0  0.56069  0.29258  0.77814  1.0000
  F   F379      1.0  0.54139  0.79936  0.28259  1.0000
  F   F380      1.0  0.55457  0.80521  0.78751  1.0000
  F   F381      1.0  0.79489  0.29522  0.29715  1.0000
  F   F382      1.0  0.80442  0.30038  0.78601  1.0000
  F   F383      1.0  0.80157  0.79583  0.27937  1.0000
  F   F384      1.0  0.79065  0.80074  0.79121  1.0000
