data_image0
_chemical_formula_structural       Hf96F384
_chemical_formula_sum              "Hf96 F384"
_cell_length_a       31.0629
_cell_length_b       15.5219
_cell_length_c       15.5152
_cell_angle_alpha    63.342
_cell_angle_beta     63.342
_cell_angle_gamma    80.1625

_space_group_name_H-M_alt    "P 1"
_space_group_IT_number       1

loop_
  _space_group_symop_operation_xyz
  'x, y, z'

loop_
  _atom_site_type_symbol
  _atom_site_label
  _atom_site_symmetry_multiplicity
  _atom_site_fract_x
  _atom_site_fract_y
  _atom_site_fract_z
  _atom_site_occupancy
  Hf  Hf1       1.0  0.19632  0.10669  0.37859  1.0000
  Hf  Hf2       1.0  0.19843  0.10741  0.87280  1.0000
  Hf  Hf3       1.0  0.19593  0.60431  0.37030  1.0000
  Hf  Hf4       1.0  0.19757  0.61050  0.87274  1.0000
  Hf  Hf5       1.0  0.44692  0.11101  0.37074  1.0000
  Hf  Hf6       1.0  0.44600  0.09783  0.88397  1.0000
  Hf  Hf7       1.0  0.44639  0.61586  0.36613  1.0000
  Hf  Hf8       1.0  0.44810  0.60212  0.87472  1.0000
  Hf  Hf9       1.0  0.69722  0.10847  0.37590  1.0000
  Hf  Hf10      1.0  0.69639  0.10590  0.86706  1.0000
  Hf  Hf11      1.0  0.69279  0.60951  0.37616  1.0000
  Hf  Hf12      1.0  0.69630  0.59734  0.87681  1.0000
  Hf  Hf13      1.0  0.94422  0.10047  0.38224  1.0000
  Hf  Hf14      1.0  0.94610  0.11191  0.87612  1.0000
  Hf  Hf15      1.0  0.94598  0.61121  0.37027  1.0000
  Hf  Hf16      1.0  0.94225  0.59949  0.88181  1.0000
  Hf  Hf17      1.0  0.05433  0.39257  0.12732  1.0000
  Hf  Hf18      1.0  0.05479  0.39536  0.62012  1.0000
  Hf  Hf19      1.0  0.05665  0.89309  0.12448  1.0000
  Hf  Hf20      1.0  0.05096  0.88750  0.62861  1.0000
  Hf  Hf21      1.0  0.30344  0.39504  0.12369  1.0000
  Hf  Hf22      1.0  0.30251  0.40167  0.62317  1.0000
  Hf  Hf23      1.0  0.30508  0.89570  0.12120  1.0000
  Hf  Hf24      1.0  0.30627  0.89544  0.62689  1.0000
  Hf  Hf25      1.0  0.55576  0.39202  0.12741  1.0000
  Hf  Hf26      1.0  0.55460  0.39768  0.62287  1.0000
  Hf  Hf27      1.0  0.55406  0.89479  0.12607  1.0000
  Hf  Hf28      1.0  0.54907  0.88202  0.64231  1.0000
  Hf  Hf29      1.0  0.80110  0.38350  0.13470  1.0000
  Hf  Hf30      1.0  0.80173  0.39674  0.62592  1.0000
  Hf  Hf31      1.0  0.80685  0.89364  0.11775  1.0000
  Hf  Hf32      1.0  0.79686  0.88758  0.63137  1.0000
  Hf  Hf33      1.0  0.05493  0.18093  0.41582  1.0000
  Hf  Hf34      1.0  0.05349  0.17506  0.92404  1.0000
  Hf  Hf35      1.0  0.05429  0.67982  0.42186  1.0000
  Hf  Hf36      1.0  0.05669  0.67308  0.92093  1.0000
  Hf  Hf37      1.0  0.30476  0.18424  0.42690  1.0000
  Hf  Hf38      1.0  0.30609  0.17768  0.92277  1.0000
  Hf  Hf39      1.0  0.30531  0.69159  0.41457  1.0000
  Hf  Hf40      1.0  0.30645  0.67937  0.91648  1.0000
  Hf  Hf41      1.0  0.55777  0.18496  0.41226  1.0000
  Hf  Hf42      1.0  0.55601  0.19025  0.91303  1.0000
  Hf  Hf43      1.0  0.55288  0.68456  0.41785  1.0000
  Hf  Hf44      1.0  0.55170  0.67932  0.92601  1.0000
  Hf  Hf45      1.0  0.80874  0.18626  0.41542  1.0000
  Hf  Hf46      1.0  0.80689  0.18080  0.91734  1.0000
  Hf  Hf47      1.0  0.80455  0.68498  0.41548  1.0000
  Hf  Hf48      1.0  0.80328  0.67941  0.92452  1.0000
  Hf  Hf49      1.0  0.15780  0.38386  0.32963  1.0000
  Hf  Hf50      1.0  0.15808  0.38053  0.83917  1.0000
  Hf  Hf51      1.0  0.16037  0.88489  0.32530  1.0000
  Hf  Hf52      1.0  0.15715  0.89280  0.83000  1.0000
  Hf  Hf53      1.0  0.41142  0.39578  0.33141  1.0000
  Hf  Hf54      1.0  0.40938  0.38731  0.83229  1.0000
  Hf  Hf55      1.0  0.40885  0.89109  0.33812  1.0000
  Hf  Hf56      1.0  0.40908  0.88117  0.83565  1.0000
  Hf  Hf57      1.0  0.65984  0.39393  0.32469  1.0000
  Hf  Hf58      1.0  0.65653  0.38791  0.83681  1.0000
  Hf  Hf59      1.0  0.66547  0.89028  0.32258  1.0000
  Hf  Hf60      1.0  0.65926  0.88720  0.82867  1.0000
  Hf  Hf61      1.0  0.91574  0.39217  0.32483  1.0000
  Hf  Hf62      1.0  0.90926  0.38433  0.83403  1.0000
  Hf  Hf63      1.0  0.90237  0.88559  0.34007  1.0000
  Hf  Hf64      1.0  0.91047  0.88662  0.82923  1.0000
  Hf  Hf65      1.0  0.19817  0.32188  0.07366  1.0000
  Hf  Hf66      1.0  0.19458  0.32083  0.57983  1.0000
  Hf  Hf67      1.0  0.19684  0.81706  0.07564  1.0000
  Hf  Hf68      1.0  0.19357  0.82159  0.58656  1.0000
  Hf  Hf69      1.0  0.44643  0.31573  0.08096  1.0000
  Hf  Hf70      1.0  0.44504  0.31818  0.58038  1.0000
  Hf  Hf71      1.0  0.44563  0.82158  0.08433  1.0000
  Hf  Hf72      1.0  0.44572  0.81883  0.58557  1.0000
  Hf  Hf73      1.0  0.69356  0.30936  0.09007  1.0000
  Hf  Hf74      1.0  0.69339  0.31649  0.58088  1.0000
  Hf  Hf75      1.0  0.69436  0.82624  0.07989  1.0000
  Hf  Hf76      1.0  0.69031  0.81377  0.58350  1.0000
  Hf  Hf77      1.0  0.94282  0.31216  0.08806  1.0000
  Hf  Hf78      1.0  0.94452  0.32033  0.58446  1.0000
  Hf  Hf79      1.0  0.94773  0.82451  0.07436  1.0000
  Hf  Hf80      1.0  0.94180  0.80859  0.58756  1.0000
  Hf  Hf81      1.0  0.09288  0.10839  0.16046  1.0000
  Hf  Hf82      1.0  0.09005  0.11283  0.67054  1.0000
  Hf  Hf83      1.0  0.09088  0.61200  0.16945  1.0000
  Hf  Hf84      1.0  0.09370  0.60748  0.65960  1.0000
  Hf  Hf85      1.0  0.33878  0.10904  0.17410  1.0000
  Hf  Hf86      1.0  0.34346  0.11795  0.66943  1.0000
  Hf  Hf87      1.0  0.34561  0.61274  0.16201  1.0000
  Hf  Hf88      1.0  0.34378  0.61580  0.65860  1.0000
  Hf  Hf89      1.0  0.59397  0.11912  0.15943  1.0000
  Hf  Hf90      1.0  0.59026  0.11772  0.67226  1.0000
  Hf  Hf91      1.0  0.59635  0.61882  0.15772  1.0000
  Hf  Hf92      1.0  0.59190  0.60756  0.67052  1.0000
  Hf  Hf93      1.0  0.83740  0.10736  0.17037  1.0000
  Hf  Hf94      1.0  0.84291  0.10869  0.66563  1.0000
  Hf  Hf95      1.0  0.83902  0.60881  0.17307  1.0000
  Hf  Hf96      1.0  0.84001  0.61340  0.66691  1.0000
  F   F1        1.0  0.07638  0.12673  0.29352  1.0000
  F   F2        1.0  0.06897  0.11873  0.82200  1.0000
  F   F3        1.0  0.07791  0.61722  0.31209  1.0000
  F   F4        1.0  0.07654  0.61741  0.80675  1.0000
  F   F5        1.0  0.32410  0.13166  0.31125  1.0000
  F   F6        1.0  0.32668  0.15524  0.79567  1.0000
  F   F7        1.0  0.32534  0.62761  0.30320  1.0000
  F   F8        1.0  0.33382  0.63989  0.78976  1.0000
  F   F9        1.0  0.59022  0.14569  0.28973  1.0000
  F   F10       1.0  0.57598  0.12272  0.81324  1.0000
  F   F11       1.0  0.57868  0.63913  0.29853  1.0000
  F   F12       1.0  0.58458  0.62868  0.80614  1.0000
  F   F13       1.0  0.82463  0.13491  0.31215  1.0000
  F   F14       1.0  0.82953  0.11346  0.80492  1.0000
  F   F15       1.0  0.82204  0.63113  0.30698  1.0000
  F   F16       1.0  0.83575  0.64487  0.80213  1.0000
  F   F17       1.0  0.18216  0.33050  0.45783  1.0000
  F   F18       1.0  0.18920  0.34208  0.94142  1.0000
  F   F19       1.0  0.18316  0.84875  0.43813  1.0000
  F   F20       1.0  0.19145  0.84975  0.93649  1.0000
  F   F21       1.0  0.42476  0.34098  0.46020  1.0000
  F   F22       1.0  0.44734  0.35470  0.92904  1.0000
  F   F23       1.0  0.43987  0.84406  0.43927  1.0000
  F   F24       1.0  0.43483  0.84276  0.94472  1.0000
  F   F25       1.0  0.68497  0.33169  0.44166  1.0000
  F   F26       1.0  0.67815  0.33488  0.96070  1.0000
  F   F27       1.0  0.68653  0.84991  0.44103  1.0000
  F   F28       1.0  0.68367  0.83552  0.94884  1.0000
  F   F29       1.0  0.93973  0.34496  0.43730  1.0000
  F   F30       1.0  0.93949  0.34224  0.93788  1.0000
  F   F31       1.0  0.92490  0.84321  0.45096  1.0000
  F   F32       1.0  0.93895  0.83399  0.94689  1.0000
  F   F33       1.0  0.17043  0.37450  0.19708  1.0000
  F   F34       1.0  0.16921  0.35812  0.70703  1.0000
  F   F35       1.0  0.17318  0.87699  0.18339  1.0000
  F   F36       1.0  0.17216  0.88019  0.69591  1.0000
  F   F37       1.0  0.42671  0.36560  0.19123  1.0000
  F   F38       1.0  0.42395  0.39016  0.67202  1.0000
  F   F39       1.0  0.41113  0.84371  0.21859  1.0000
  F   F40       1.0  0.42223  0.86877  0.69331  1.0000
  F   F41       1.0  0.68242  0.38501  0.18060  1.0000
  F   F42       1.0  0.66545  0.38217  0.68968  1.0000
  F   F43       1.0  0.67575  0.89304  0.17777  1.0000
  F   F44       1.0  0.66242  0.86777  0.69542  1.0000
  F   F45       1.0  0.92188  0.39992  0.18801  1.0000
  F   F46       1.0  0.92624  0.38585  0.67925  1.0000
  F   F47       1.0  0.91452  0.85827  0.20639  1.0000
  F   F48       1.0  0.91957  0.87828  0.69091  1.0000
  F   F49       1.0  0.06189  0.15075  0.06558  1.0000
  F   F50       1.0  0.06409  0.15579  0.55696  1.0000
  F   F51       1.0  0.06877  0.66381  0.04846  1.0000
  F   F52       1.0  0.05576  0.65511  0.56668  1.0000
  F   F53       1.0  0.31616  0.14905  0.06699  1.0000
  F   F54       1.0  0.31918  0.14963  0.56183  1.0000
  F   F55       1.0  0.32152  0.67083  0.03844  1.0000
  F   F56       1.0  0.31686  0.66558  0.54992  1.0000
  F   F57       1.0  0.56864  0.18540  0.03647  1.0000
  F   F58       1.0  0.55864  0.15563  0.55736  1.0000
  F   F59       1.0  0.56493  0.66201  0.05459  1.0000
  F   F60       1.0  0.56596  0.67625  0.54343  1.0000
  F   F61       1.0  0.80861  0.15927  0.05129  1.0000
  F   F62       1.0  0.81256  0.16163  0.56199  1.0000
  F   F63       1.0  0.81844  0.65395  0.05098  1.0000
  F   F64       1.0  0.81719  0.66299  0.55208  1.0000
  F   F65       1.0  0.20069  0.21381  0.19950  1.0000
  F   F66       1.0  0.20904  0.20282  0.71434  1.0000
  F   F67       1.0  0.19154  0.70059  0.21765  1.0000
  F   F68       1.0  0.19806  0.70319  0.71343  1.0000
  F   F69       1.0  0.44979  0.19397  0.22071  1.0000
  F   F70       1.0  0.44804  0.20329  0.71504  1.0000
  F   F71       1.0  0.45878  0.70792  0.21212  1.0000
  F   F72       1.0  0.46178  0.70723  0.70049  1.0000
  F   F73       1.0  0.70441  0.20304  0.21199  1.0000
  F   F74       1.0  0.70847  0.20016  0.70620  1.0000
  F   F75       1.0  0.70357  0.71794  0.21115  1.0000
  F   F76       1.0  0.70154  0.70852  0.70599  1.0000
  F   F77       1.0  0.93650  0.19497  0.22665  1.0000
  F   F78       1.0  0.95294  0.21150  0.70623  1.0000
  F   F79       1.0  0.95813  0.70503  0.19978  1.0000
  F   F80       1.0  0.95154  0.69063  0.71063  1.0000
  F   F81       1.0  0.14792  0.07501  0.03044  1.0000
  F   F82       1.0  0.15207  0.07776  0.54664  1.0000
  F   F83       1.0  0.14901  0.59541  0.03985  1.0000
  F   F84       1.0  0.14614  0.58163  0.53747  1.0000
  F   F85       1.0  0.40300  0.08065  0.03679  1.0000
  F   F86       1.0  0.40182  0.09677  0.53639  1.0000
  F   F87       1.0  0.39956  0.58495  0.04263  1.0000
  F   F88       1.0  0.39967  0.58744  0.54089  1.0000
  F   F89       1.0  0.65168  0.09784  0.02003  1.0000
  F   F90       1.0  0.65113  0.11403  0.53640  1.0000
  F   F91       1.0  0.65611  0.60865  0.03182  1.0000
  F   F92       1.0  0.64785  0.60028  0.53859  1.0000
  F   F93       1.0  0.89405  0.09625  0.02478  1.0000
  F   F94       1.0  0.90206  0.10878  0.52793  1.0000
  F   F95       1.0  0.90733  0.58783  0.03221  1.0000
  F   F96       1.0  0.90106  0.60115  0.52770  1.0000
  F   F97       1.0  0.14895  0.19660  0.10558  1.0000
  F   F98       1.0  0.14889  0.18477  0.65034  1.0000
  F   F99       1.0  0.15061  0.69145  0.12297  1.0000
  F   F100      1.0  0.15326  0.70203  0.61120  1.0000
  F   F101      1.0  0.39624  0.19654  0.12235  1.0000
  F   F102      1.0  0.39521  0.21176  0.62171  1.0000
  F   F103      1.0  0.40043  0.69601  0.14377  1.0000
  F   F104      1.0  0.40711  0.69716  0.60943  1.0000
  F   F105      1.0  0.65825  0.18386  0.10774  1.0000
  F   F106      1.0  0.64977  0.20563  0.62931  1.0000
  F   F107      1.0  0.65419  0.69723  0.12152  1.0000
  F   F108      1.0  0.64891  0.69407  0.62285  1.0000
  F   F109      1.0  0.89469  0.19103  0.12633  1.0000
  F   F110      1.0  0.90462  0.20079  0.61867  1.0000
  F   F111      1.0  0.89292  0.68807  0.14050  1.0000
  F   F112      1.0  0.90297  0.69229  0.61136  1.0000
  F   F113      1.0  0.10097  0.30518  0.37415  1.0000
  F   F114      1.0  0.09587  0.30772  0.88826  1.0000
  F   F115      1.0  0.10077  0.79075  0.37957  1.0000
  F   F116      1.0  0.10285  0.81396  0.86423  1.0000
  F   F117      1.0  0.34770  0.30100  0.39883  1.0000
  F   F118      1.0  0.34559  0.30092  0.87417  1.0000
  F   F119      1.0  0.34213  0.80541  0.38639  1.0000
  F   F120      1.0  0.35236  0.80667  0.85814  1.0000
  F   F121      1.0  0.60025  0.30088  0.36586  1.0000
  F   F122      1.0  0.59611  0.31496  0.87405  1.0000
  F   F123      1.0  0.60082  0.79526  0.34184  1.0000
  F   F124      1.0  0.59618  0.80711  0.88012  1.0000
  F   F125      1.0  0.84828  0.29671  0.37597  1.0000
  F   F126      1.0  0.84670  0.30494  0.87578  1.0000
  F   F127      1.0  0.84080  0.81786  0.38240  1.0000
  F   F128      1.0  0.84909  0.80747  0.87166  1.0000
  F   F129      1.0  0.06189  0.24720  0.14948  1.0000
  F   F130      1.0  0.06223  0.24898  0.65311  1.0000
  F   F131      1.0  0.06491  0.75671  0.14276  1.0000
  F   F132      1.0  0.07002  0.74603  0.64911  1.0000
  F   F133      1.0  0.30682  0.24945  0.14563  1.0000
  F   F134      1.0  0.31328  0.26276  0.63226  1.0000
  F   F135      1.0  0.32241  0.75829  0.13820  1.0000
  F   F136      1.0  0.32562  0.75669  0.63542  1.0000
  F   F137      1.0  0.56192  0.26204  0.14246  1.0000
  F   F138      1.0  0.56203  0.24672  0.65684  1.0000
  F   F139      1.0  0.56904  0.75516  0.12920  1.0000
  F   F140      1.0  0.55746  0.73235  0.66315  1.0000
  F   F141      1.0  0.79272  0.23867  0.17205  1.0000
  F   F142      1.0  0.81116  0.24352  0.65387  1.0000
  F   F143      1.0  0.80393  0.74578  0.15424  1.0000
  F   F144      1.0  0.80670  0.73934  0.65981  1.0000
  F   F145      1.0  0.12190  0.35140  0.12764  1.0000
  F   F146      1.0  0.12448  0.35811  0.62420  1.0000
  F   F147      1.0  0.12840  0.87270  0.10334  1.0000
  F   F148      1.0  0.12386  0.88998  0.60166  1.0000
  F   F149      1.0  0.37514  0.36002  0.11378  1.0000
  F   F150      1.0  0.36970  0.36515  0.62683  1.0000
  F   F151      1.0  0.38032  0.89657  0.09586  1.0000
  F   F152      1.0  0.37638  0.87588  0.60947  1.0000
  F   F153      1.0  0.62418  0.33907  0.13682  1.0000
  F   F154      1.0  0.62359  0.37547  0.59762  1.0000
  F   F155      1.0  0.62242  0.85370  0.12582  1.0000
  F   F156      1.0  0.62031  0.84497  0.60377  1.0000
  F   F157      1.0  0.87603  0.36505  0.11496  1.0000
  F   F158      1.0  0.87713  0.38779  0.60188  1.0000
  F   F159      1.0  0.87439  0.85933  0.10298  1.0000
  F   F160      1.0  0.87435  0.84358  0.62462  1.0000
  F   F161      1.0  0.18811  0.24278  0.35638  1.0000
  F   F162      1.0  0.18066  0.24728  0.86612  1.0000
  F   F163      1.0  0.19705  0.75044  0.33052  1.0000
  F   F164      1.0  0.18568  0.75120  0.86444  1.0000
  F   F165      1.0  0.43957  0.25246  0.35107  1.0000
  F   F166      1.0  0.43603  0.25202  0.85314  1.0000
  F   F167      1.0  0.42561  0.75261  0.37056  1.0000
  F   F168      1.0  0.43232  0.74783  0.86163  1.0000
  F   F169      1.0  0.68971  0.25183  0.33464  1.0000
  F   F170      1.0  0.68425  0.24550  0.85392  1.0000
  F   F171      1.0  0.68209  0.75570  0.36168  1.0000
  F   F172      1.0  0.69054  0.75954  0.84163  1.0000
  F   F173      1.0  0.94065  0.25658  0.34829  1.0000
  F   F174      1.0  0.93807  0.26043  0.84640  1.0000
  F   F175      1.0  0.93966  0.76087  0.33934  1.0000
  F   F176      1.0  0.93583  0.74220  0.85427  1.0000
  F   F177      1.0  0.12474  0.14064  0.38839  1.0000
  F   F178      1.0  0.12723  0.13462  0.88210  1.0000
  F   F179      1.0  0.12567  0.62920  0.39710  1.0000
  F   F180      1.0  0.12725  0.63833  0.87845  1.0000
  F   F181      1.0  0.37482  0.14925  0.38858  1.0000
  F   F182      1.0  0.37175  0.12103  0.90737  1.0000
  F   F183      1.0  0.37627  0.63897  0.37975  1.0000
  F   F184      1.0  0.37965  0.62877  0.88096  1.0000
  F   F185      1.0  0.62604  0.11413  0.40407  1.0000
  F   F186      1.0  0.62602  0.14192  0.87824  1.0000
  F   F187      1.0  0.62324  0.61499  0.39356  1.0000
  F   F188      1.0  0.62994  0.62728  0.89413  1.0000
  F   F189      1.0  0.87472  0.12058  0.40622  1.0000
  F   F190      1.0  0.87781  0.13334  0.87805  1.0000
  F   F191      1.0  0.87388  0.64505  0.38831  1.0000
  F   F192      1.0  0.87485  0.61670  0.90595  1.0000
  F   F193      1.0  0.00396  0.34527  0.09251  1.0000
  F   F194      1.0  0.01342  0.37095  0.55539  1.0000
  F   F195      1.0  0.00781  0.86314  0.07271  1.0000
  F   F196      1.0  0.00394  0.85137  0.58511  1.0000
  F   F197      1.0  0.25725  0.37540  0.05988  1.0000
  F   F198      1.0  0.25719  0.37205  0.56548  1.0000
  F   F199      1.0  0.25682  0.83903  0.09075  1.0000
  F   F200      1.0  0.26032  0.86137  0.57720  1.0000
  F   F201      1.0  0.51073  0.36698  0.06084  1.0000
  F   F202      1.0  0.50750  0.34495  0.57795  1.0000
  F   F203      1.0  0.50522  0.86045  0.08176  1.0000
  F   F204      1.0  0.50857  0.86718  0.56856  1.0000
  F   F205      1.0  0.75893  0.36743  0.06704  1.0000
  F   F206      1.0  0.75257  0.36023  0.57811  1.0000
  F   F207      1.0  0.75404  0.87421  0.07068  1.0000
  F   F208      1.0  0.75372  0.86496  0.57313  1.0000
  F   F209      1.0  0.06930  0.48747  0.17662  1.0000
  F   F210      1.0  0.06656  0.48481  0.67344  1.0000
  F   F211      1.0  0.06635  0.97192  0.19195  1.0000
  F   F212      1.0  0.06949  0.97945  0.68647  1.0000
  F   F213      1.0  0.31781  0.48747  0.17644  1.0000
  F   F214      1.0  0.31245  0.49854  0.66561  1.0000
  F   F215      1.0  0.31354  0.98033  0.18884  1.0000
  F   F216      1.0  0.32077  0.98390  0.68581  1.0000
  F   F217      1.0  0.58346  0.49872  0.13674  1.0000
  F   F218      1.0  0.56948  0.48629  0.66558  1.0000
  F   F219      1.0  0.56806  0.99003  0.17112  1.0000
  F   F220      1.0  0.57266  0.96883  0.68396  1.0000
  F   F221      1.0  0.82413  0.47576  0.18435  1.0000
  F   F222      1.0  0.81488  0.48729  0.67555  1.0000
  F   F223      1.0  0.82675  0.98709  0.15332  1.0000
  F   F224      1.0  0.82968  0.97893  0.66304  1.0000
  F   F225      1.0  0.23921  0.11797  0.44538  1.0000
  F   F226      1.0  0.24211  0.15030  0.93179  1.0000
  F   F227      1.0  0.23734  0.63207  0.42105  1.0000
  F   F228      1.0  0.24512  0.63323  0.92159  1.0000
  F   F229      1.0  0.50160  0.13424  0.42251  1.0000
  F   F230      1.0  0.48945  0.14177  0.92501  1.0000
  F   F231      1.0  0.49278  0.64748  0.41954  1.0000
  F   F232      1.0  0.49136  0.64914  0.90983  1.0000
  F   F233      1.0  0.74028  0.12969  0.42771  1.0000
  F   F234      1.0  0.74381  0.14454  0.91812  1.0000
  F   F235      1.0  0.73382  0.63418  0.43723  1.0000
  F   F236      1.0  0.74563  0.62809  0.91786  1.0000
  F   F237      1.0  0.98956  0.12748  0.43050  1.0000
  F   F238      1.0  0.98580  0.13373  0.95141  1.0000
  F   F239      1.0  0.98922  0.64993  0.42499  1.0000
  F   F240      1.0  0.99191  0.63293  0.93352  1.0000
  F   F241      1.0  0.18218  0.01486  0.33888  1.0000
  F   F242      1.0  0.18284  0.01608  0.83216  1.0000
  F   F243      1.0  0.18987  0.51166  0.30628  1.0000
  F   F244      1.0  0.18441  0.51103  0.82028  1.0000
  F   F245      1.0  0.42619  0.02709  0.32493  1.0000
  F   F246      1.0  0.43696  0.01606  0.82078  1.0000
  F   F247      1.0  0.43190  0.51726  0.31355  1.0000
  F   F248      1.0  0.43658  0.51289  0.79763  1.0000
  F   F249      1.0  0.68918  0.01896  0.31154  1.0000
  F   F250      1.0  0.68140  0.01323  0.81189  1.0000
  F   F251      1.0  0.68428  0.51807  0.30488  1.0000
  F   F252      1.0  0.68220  0.50809  0.82975  1.0000
  F   F253      1.0  0.92876  0.01206  0.31334  1.0000
  F   F254      1.0  0.93024  0.00559  0.84860  1.0000
  F   F255      1.0  0.92784  0.52370  0.32299  1.0000
  F   F256      1.0  0.93156  0.50399  0.82235  1.0000
  F   F257      1.0  0.00011  0.24043  0.01089  1.0000
  F   F258      1.0  0.00172  0.25092  0.49162  1.0000
  F   F259      1.0  0.00029  0.74408  0.00570  1.0000
  F   F260      1.0  0.99838  0.75288  0.49239  1.0000
  F   F261      1.0  0.25322  0.24669  0.00896  1.0000
  F   F262      1.0  0.24497  0.24204  0.51002  1.0000
  F   F263      1.0  0.25218  0.73760  0.00904  1.0000
  F   F264      1.0  0.24958  0.74550  0.50873  1.0000
  F   F265      1.0  0.49638  0.23376  0.00999  1.0000
  F   F266      1.0  0.50122  0.25745  0.48679  1.0000
  F   F267      1.0  0.49648  0.74877  0.01185  1.0000
  F   F268      1.0  0.49403  0.74307  0.50436  1.0000
  F   F269      1.0  0.75010  0.25519  0.98672  1.0000
  F   F270      1.0  0.75264  0.25517  0.48616  1.0000
  F   F271      1.0  0.75319  0.74771  0.99745  1.0000
  F   F272      1.0  0.74604  0.73525  0.51278  1.0000
  F   F273      1.0  0.13995  0.00859  0.23172  1.0000
  F   F274      1.0  0.12251  0.00075  0.76307  1.0000
  F   F275      1.0  0.12451  0.49692  0.24783  1.0000
  F   F276      1.0  0.12629  0.49435  0.75215  1.0000
  F   F277      1.0  0.37865  0.00130  0.24103  1.0000
  F   F278      1.0  0.37265  0.00390  0.75620  1.0000
  F   F279      1.0  0.38025  0.49788  0.23396  1.0000
  F   F280      1.0  0.36554  0.48182  0.76987  1.0000
  F   F281      1.0  0.62463  0.00654  0.24696  1.0000
  F   F282      1.0  0.61953  0.00545  0.75400  1.0000
  F   F283      1.0  0.61787  0.49993  0.25419  1.0000
  F   F284      1.0  0.62162  0.49566  0.76386  1.0000
  F   F285      1.0  0.87348  0.00268  0.24809  1.0000
  F   F286      1.0  0.88767  0.01196  0.74631  1.0000
  F   F287      1.0  0.87144  0.50262  0.26158  1.0000
  F   F288      1.0  0.86833  0.50386  0.75263  1.0000
  F   F289      1.0  0.04053  0.03240  0.03447  1.0000
  F   F290      1.0  0.04258  0.02310  0.51874  1.0000
  F   F291      1.0  0.03815  0.52694  0.02698  1.0000
  F   F292      1.0  0.03654  0.52843  0.52406  1.0000
  F   F293      1.0  0.29404  0.03257  0.02219  1.0000
  F   F294      1.0  0.29912  0.03750  0.52352  1.0000
  F   F295      1.0  0.29641  0.52941  0.01545  1.0000
  F   F296      1.0  0.28092  0.54236  0.53872  1.0000
  F   F297      1.0  0.53765  0.04271  0.03828  1.0000
  F   F298      1.0  0.54695  0.00842  0.52555  1.0000
  F   F299      1.0  0.53717  0.53496  0.02335  1.0000
  F   F300      1.0  0.54180  0.53209  0.52397  1.0000
  F   F301      1.0  0.79142  0.03400  0.02264  1.0000
  F   F302      1.0  0.78511  0.02439  0.53986  1.0000
  F   F303      1.0  0.79670  0.52682  0.01981  1.0000
  F   F304      1.0  0.78548  0.53519  0.53271  1.0000
  F   F305      1.0  0.23413  0.40982  0.22220  1.0000
  F   F306      1.0  0.23003  0.40524  0.72582  1.0000
  F   F307      1.0  0.23296  0.91135  0.22504  1.0000
  F   F308      1.0  0.23394  0.92246  0.72227  1.0000
  F   F309      1.0  0.48719  0.41703  0.21431  1.0000
  F   F310      1.0  0.48698  0.40156  0.72348  1.0000
  F   F311      1.0  0.48006  0.91761  0.23065  1.0000
  F   F312      1.0  0.48418  0.91326  0.72505  1.0000
  F   F313      1.0  0.73991  0.41788  0.23425  1.0000
  F   F314      1.0  0.73157  0.39678  0.73435  1.0000
  F   F315      1.0  0.74428  0.91863  0.22246  1.0000
  F   F316      1.0  0.73220  0.92180  0.72282  1.0000
  F   F317      1.0  0.98995  0.43014  0.22904  1.0000
  F   F318      1.0  0.98847  0.40513  0.72483  1.0000
  F   F319      1.0  0.98316  0.91432  0.22634  1.0000
  F   F320      1.0  0.98431  0.92869  0.72886  1.0000
  F   F321      1.0  0.20733  0.46425  0.47379  1.0000
  F   F322      1.0  0.19700  0.47663  0.98029  1.0000
  F   F323      1.0  0.21646  0.95614  0.47484  1.0000
  F   F324      1.0  0.21280  0.97586  0.97735  1.0000
  F   F325      1.0  0.46111  0.48198  0.45455  1.0000
  F   F326      1.0  0.45325  0.46576  0.98304  1.0000
  F   F327      1.0  0.45693  0.97640  0.47878  1.0000
  F   F328      1.0  0.46801  0.96213  0.97385  1.0000
  F   F329      1.0  0.69635  0.47263  0.48718  1.0000
  F   F330      1.0  0.70673  0.46067  0.99176  1.0000
  F   F331      1.0  0.69653  0.97856  0.48805  1.0000
  F   F332      1.0  0.69876  0.97588  0.97567  1.0000
  F   F333      1.0  0.96359  0.47160  0.45579  1.0000
  F   F334      1.0  0.95718  0.45962  0.97454  1.0000
  F   F335      1.0  0.95808  0.96920  0.46451  1.0000
  F   F336      1.0  0.95896  0.97293  0.98213  1.0000
  F   F337      1.0  0.00879  0.09679  0.27256  1.0000
  F   F338      1.0  0.01448  0.09198  0.77490  1.0000
  F   F339      1.0  0.01236  0.58848  0.27598  1.0000
  F   F340      1.0  0.01248  0.59073  0.76758  1.0000
  F   F341      1.0  0.26177  0.07827  0.28083  1.0000
  F   F342      1.0  0.27029  0.08311  0.78024  1.0000
  F   F343      1.0  0.26044  0.59834  0.25600  1.0000
  F   F344      1.0  0.26584  0.60854  0.76846  1.0000
  F   F345      1.0  0.52059  0.09650  0.27049  1.0000
  F   F346      1.0  0.51842  0.08630  0.76557  1.0000
  F   F347      1.0  0.51801  0.58309  0.26614  1.0000
  F   F348      1.0  0.51436  0.56351  0.79716  1.0000
  F   F349      1.0  0.77022  0.06423  0.27692  1.0000
  F   F350      1.0  0.76411  0.06932  0.76991  1.0000
  F   F351      1.0  0.75783  0.58633  0.27912  1.0000
  F   F352      1.0  0.76411  0.57899  0.77813  1.0000
  F   F353      1.0  0.10390  0.41343  0.45998  1.0000
  F   F354      1.0  0.10043  0.41920  0.97065  1.0000
  F   F355      1.0  0.09457  0.90117  0.46789  1.0000
  F   F356      1.0  0.10319  0.92516  0.96300  1.0000
  F   F357      1.0  0.35605  0.43433  0.45638  1.0000
  F   F358      1.0  0.35049  0.40259  0.96621  1.0000
  F   F359      1.0  0.35332  0.91249  0.45791  1.0000
  F   F360      1.0  0.34821  0.90162  0.95939  1.0000
  F   F361      1.0  0.59727  0.41211  0.45850  1.0000
  F   F362      1.0  0.60196  0.41560  0.97260  1.0000
  F   F363      1.0  0.60052  0.88841  0.44260  1.0000
  F   F364      1.0  0.60291  0.92161  0.96097  1.0000
  F   F365      1.0  0.84261  0.40877  0.47799  1.0000
  F   F366      1.0  0.85578  0.38843  0.97734  1.0000
  F   F367      1.0  0.84735  0.91477  0.47310  1.0000
  F   F368      1.0  0.85119  0.90461  0.95934  1.0000
  F   F369      1.0  0.04299  0.30507  0.29863  1.0000
  F   F370      1.0  0.03943  0.29422  0.81212  1.0000
  F   F371      1.0  0.04847  0.79785  0.28686  1.0000
  F   F372      1.0  0.04586  0.78734  0.80213  1.0000
  F   F373      1.0  0.30084  0.29786  0.28993  1.0000
  F   F374      1.0  0.29289  0.30703  0.79063  1.0000
  F   F375      1.0  0.29859  0.80864  0.27574  1.0000
  F   F376      1.0  0.28936  0.79699  0.78991  1.0000
  F   F377      1.0  0.54408  0.30195  0.28418  1.0000
  F   F378      1.0  0.54856  0.30577  0.78800  1.0000
  F   F379      1.0  0.54129  0.79917  0.28639  1.0000
  F   F380      1.0  0.54473  0.78826  0.80053  1.0000
  F   F381      1.0  0.79622  0.29439  0.29324  1.0000
  F   F382      1.0  0.79767  0.29833  0.78436  1.0000
  F   F383      1.0  0.79570  0.79637  0.29477  1.0000
  F   F384      1.0  0.79222  0.80276  0.79089  1.0000
