data_image0
_chemical_formula_structural       Hf96F384
_chemical_formula_sum              "Hf96 F384"
_cell_length_a       31.03
_cell_length_b       15.517
_cell_length_c       15.5066
_cell_angle_alpha    63.342
_cell_angle_beta     63.342
_cell_angle_gamma    80.1625

_space_group_name_H-M_alt    "P 1"
_space_group_IT_number       1

loop_
  _space_group_symop_operation_xyz
  'x, y, z'

loop_
  _atom_site_type_symbol
  _atom_site_label
  _atom_site_symmetry_multiplicity
  _atom_site_fract_x
  _atom_site_fract_y
  _atom_site_fract_z
  _atom_site_occupancy
  Hf  Hf1       1.0  0.19744  0.11188  0.36793  1.0000
  Hf  Hf2       1.0  0.19264  0.11394  0.87697  1.0000
  Hf  Hf3       1.0  0.20139  0.61689  0.36633  1.0000
  Hf  Hf4       1.0  0.19485  0.61519  0.87012  1.0000
  Hf  Hf5       1.0  0.44844  0.11284  0.36467  1.0000
  Hf  Hf6       1.0  0.44679  0.11000  0.87654  1.0000
  Hf  Hf7       1.0  0.44617  0.60789  0.36773  1.0000
  Hf  Hf8       1.0  0.44723  0.61064  0.87632  1.0000
  Hf  Hf9       1.0  0.69503  0.09341  0.38295  1.0000
  Hf  Hf10      1.0  0.69961  0.10486  0.87350  1.0000
  Hf  Hf11      1.0  0.70042  0.60712  0.36692  1.0000
  Hf  Hf12      1.0  0.69547  0.60089  0.88652  1.0000
  Hf  Hf13      1.0  0.94614  0.10666  0.36695  1.0000
  Hf  Hf14      1.0  0.94578  0.10397  0.86754  1.0000
  Hf  Hf15      1.0  0.94792  0.60697  0.37452  1.0000
  Hf  Hf16      1.0  0.94200  0.60674  0.87483  1.0000
  Hf  Hf17      1.0  0.05505  0.39517  0.11779  1.0000
  Hf  Hf18      1.0  0.05125  0.39805  0.62547  1.0000
  Hf  Hf19      1.0  0.05283  0.89636  0.12230  1.0000
  Hf  Hf20      1.0  0.05109  0.89594  0.62477  1.0000
  Hf  Hf21      1.0  0.30186  0.39078  0.13196  1.0000
  Hf  Hf22      1.0  0.30665  0.39402  0.62120  1.0000
  Hf  Hf23      1.0  0.30210  0.90184  0.13350  1.0000
  Hf  Hf24      1.0  0.29542  0.89479  0.63677  1.0000
  Hf  Hf25      1.0  0.55926  0.39031  0.12351  1.0000
  Hf  Hf26      1.0  0.55236  0.38518  0.62931  1.0000
  Hf  Hf27      1.0  0.55275  0.89470  0.12844  1.0000
  Hf  Hf28      1.0  0.55092  0.88068  0.63394  1.0000
  Hf  Hf29      1.0  0.80421  0.38605  0.13380  1.0000
  Hf  Hf30      1.0  0.80196  0.39258  0.62779  1.0000
  Hf  Hf31      1.0  0.80391  0.89274  0.12431  1.0000
  Hf  Hf32      1.0  0.80401  0.89863  0.61477  1.0000
  Hf  Hf33      1.0  0.05884  0.18351  0.40792  1.0000
  Hf  Hf34      1.0  0.05459  0.19406  0.91189  1.0000
  Hf  Hf35      1.0  0.05769  0.68597  0.41898  1.0000
  Hf  Hf36      1.0  0.05560  0.68460  0.91851  1.0000
  Hf  Hf37      1.0  0.30852  0.18961  0.41444  1.0000
  Hf  Hf38      1.0  0.30720  0.19142  0.91240  1.0000
  Hf  Hf39      1.0  0.30267  0.67409  0.42727  1.0000
  Hf  Hf40      1.0  0.30720  0.68420  0.91892  1.0000
  Hf  Hf41      1.0  0.55664  0.17164  0.42332  1.0000
  Hf  Hf42      1.0  0.56016  0.18467  0.91450  1.0000
  Hf  Hf43      1.0  0.55206  0.66767  0.42868  1.0000
  Hf  Hf44      1.0  0.55485  0.67656  0.92088  1.0000
  Hf  Hf45      1.0  0.80545  0.18296  0.41200  1.0000
  Hf  Hf46      1.0  0.80835  0.17962  0.90978  1.0000
  Hf  Hf47      1.0  0.80467  0.68293  0.41302  1.0000
  Hf  Hf48      1.0  0.80604  0.67998  0.91152  1.0000
  Hf  Hf49      1.0  0.16102  0.39392  0.32847  1.0000
  Hf  Hf50      1.0  0.16068  0.39319  0.83627  1.0000
  Hf  Hf51      1.0  0.15469  0.89125  0.33645  1.0000
  Hf  Hf52      1.0  0.15473  0.88458  0.84109  1.0000
  Hf  Hf53      1.0  0.41074  0.38666  0.33959  1.0000
  Hf  Hf54      1.0  0.40813  0.39013  0.83569  1.0000
  Hf  Hf55      1.0  0.40844  0.88874  0.33611  1.0000
  Hf  Hf56      1.0  0.40877  0.88957  0.83682  1.0000
  Hf  Hf57      1.0  0.65774  0.38148  0.33619  1.0000
  Hf  Hf58      1.0  0.66347  0.39046  0.82500  1.0000
  Hf  Hf59      1.0  0.65361  0.87629  0.33990  1.0000
  Hf  Hf60      1.0  0.66290  0.88586  0.83228  1.0000
  Hf  Hf61      1.0  0.90930  0.38558  0.33188  1.0000
  Hf  Hf62      1.0  0.91036  0.39051  0.82313  1.0000
  Hf  Hf63      1.0  0.91010  0.88732  0.32234  1.0000
  Hf  Hf64      1.0  0.90506  0.89003  0.82958  1.0000
  Hf  Hf65      1.0  0.19610  0.32997  0.07655  1.0000
  Hf  Hf66      1.0  0.19312  0.31920  0.58829  1.0000
  Hf  Hf67      1.0  0.19297  0.82301  0.08153  1.0000
  Hf  Hf68      1.0  0.19185  0.82008  0.57966  1.0000
  Hf  Hf69      1.0  0.44743  0.31599  0.08198  1.0000
  Hf  Hf70      1.0  0.44195  0.31478  0.59534  1.0000
  Hf  Hf71      1.0  0.44646  0.82069  0.08251  1.0000
  Hf  Hf72      1.0  0.44057  0.81999  0.59024  1.0000
  Hf  Hf73      1.0  0.69523  0.31158  0.08660  1.0000
  Hf  Hf74      1.0  0.69605  0.31708  0.58443  1.0000
  Hf  Hf75      1.0  0.69053  0.81669  0.08640  1.0000
  Hf  Hf76      1.0  0.69008  0.80530  0.59358  1.0000
  Hf  Hf77      1.0  0.94094  0.31255  0.08382  1.0000
  Hf  Hf78      1.0  0.94311  0.32083  0.58144  1.0000
  Hf  Hf79      1.0  0.94162  0.80698  0.08172  1.0000
  Hf  Hf80      1.0  0.94494  0.81784  0.58135  1.0000
  Hf  Hf81      1.0  0.09563  0.11367  0.15781  1.0000
  Hf  Hf82      1.0  0.09273  0.11877  0.65674  1.0000
  Hf  Hf83      1.0  0.08955  0.61174  0.17108  1.0000
  Hf  Hf84      1.0  0.09205  0.61831  0.67115  1.0000
  Hf  Hf85      1.0  0.34481  0.11773  0.15806  1.0000
  Hf  Hf86      1.0  0.34413  0.11188  0.66787  1.0000
  Hf  Hf87      1.0  0.34762  0.61455  0.16657  1.0000
  Hf  Hf88      1.0  0.33659  0.60941  0.67538  1.0000
  Hf  Hf89      1.0  0.59244  0.10963  0.16684  1.0000
  Hf  Hf90      1.0  0.59156  0.10258  0.67279  1.0000
  Hf  Hf91      1.0  0.59143  0.60460  0.16650  1.0000
  Hf  Hf92      1.0  0.59195  0.59560  0.67241  1.0000
  Hf  Hf93      1.0  0.83908  0.10351  0.16768  1.0000
  Hf  Hf94      1.0  0.84082  0.11498  0.66004  1.0000
  Hf  Hf95      1.0  0.84021  0.60814  0.16419  1.0000
  Hf  Hf96      1.0  0.84132  0.61757  0.66430  1.0000
  F   F1        1.0  0.07552  0.10933  0.30393  1.0000
  F   F2        1.0  0.08612  0.13747  0.79449  1.0000
  F   F3        1.0  0.08504  0.61843  0.31118  1.0000
  F   F4        1.0  0.07651  0.62192  0.81208  1.0000
  F   F5        1.0  0.33570  0.13520  0.28958  1.0000
  F   F6        1.0  0.32474  0.10493  0.82170  1.0000
  F   F7        1.0  0.32891  0.62608  0.31013  1.0000
  F   F8        1.0  0.33131  0.62371  0.81293  1.0000
  F   F9        1.0  0.57524  0.10715  0.31433  1.0000
  F   F10       1.0  0.58043  0.12654  0.80604  1.0000
  F   F11       1.0  0.57727  0.61970  0.31520  1.0000
  F   F12       1.0  0.58103  0.62910  0.80197  1.0000
  F   F13       1.0  0.82997  0.13794  0.28620  1.0000
  F   F14       1.0  0.82809  0.12384  0.80022  1.0000
  F   F15       1.0  0.83663  0.62653  0.30657  1.0000
  F   F16       1.0  0.82809  0.60894  0.80967  1.0000
  F   F17       1.0  0.19118  0.34628  0.44882  1.0000
  F   F18       1.0  0.19261  0.35609  0.93799  1.0000
  F   F19       1.0  0.18046  0.83951  0.45138  1.0000
  F   F20       1.0  0.18528  0.84438  0.94444  1.0000
  F   F21       1.0  0.43404  0.33582  0.45923  1.0000
  F   F22       1.0  0.43643  0.34513  0.94765  1.0000
  F   F23       1.0  0.43832  0.83528  0.45030  1.0000
  F   F24       1.0  0.42772  0.84043  0.96128  1.0000
  F   F25       1.0  0.68000  0.33906  0.44911  1.0000
  F   F26       1.0  0.68961  0.34216  0.94500  1.0000
  F   F27       1.0  0.67634  0.84343  0.45292  1.0000
  F   F28       1.0  0.68767  0.83473  0.95216  1.0000
  F   F29       1.0  0.93720  0.33928  0.44190  1.0000
  F   F30       1.0  0.92191  0.34358  0.95537  1.0000
  F   F31       1.0  0.93972  0.85844  0.43212  1.0000
  F   F32       1.0  0.93259  0.83859  0.95057  1.0000
  F   F33       1.0  0.17224  0.38484  0.18781  1.0000
  F   F34       1.0  0.17152  0.38024  0.69534  1.0000
  F   F35       1.0  0.16115  0.84937  0.21109  1.0000
  F   F36       1.0  0.17445  0.87259  0.68694  1.0000
  F   F37       1.0  0.42312  0.38441  0.19740  1.0000
  F   F38       1.0  0.41478  0.35231  0.71516  1.0000
  F   F39       1.0  0.41496  0.83895  0.22318  1.0000
  F   F40       1.0  0.41981  0.87842  0.69612  1.0000
  F   F41       1.0  0.67128  0.36635  0.20187  1.0000
  F   F42       1.0  0.67575  0.38590  0.68871  1.0000
  F   F43       1.0  0.65338  0.83696  0.21800  1.0000
  F   F44       1.0  0.67201  0.87280  0.69587  1.0000
  F   F45       1.0  0.92857  0.37176  0.18657  1.0000
  F   F46       1.0  0.91984  0.37615  0.68566  1.0000
  F   F47       1.0  0.91980  0.88271  0.18818  1.0000
  F   F48       1.0  0.92345  0.87309  0.68780  1.0000
  F   F49       1.0  0.06209  0.15417  0.05790  1.0000
  F   F50       1.0  0.06418  0.16191  0.55099  1.0000
  F   F51       1.0  0.06686  0.66617  0.04847  1.0000
  F   F52       1.0  0.06299  0.65874  0.55461  1.0000
  F   F53       1.0  0.31818  0.16282  0.05091  1.0000
  F   F54       1.0  0.31344  0.16391  0.55266  1.0000
  F   F55       1.0  0.31917  0.66256  0.05703  1.0000
  F   F56       1.0  0.30297  0.65101  0.56651  1.0000
  F   F57       1.0  0.56716  0.15720  0.04720  1.0000
  F   F58       1.0  0.56613  0.15344  0.56026  1.0000
  F   F59       1.0  0.56292  0.64223  0.05645  1.0000
  F   F60       1.0  0.57061  0.64409  0.54882  1.0000
  F   F61       1.0  0.81697  0.16629  0.04081  1.0000
  F   F62       1.0  0.81111  0.17058  0.54435  1.0000
  F   F63       1.0  0.81873  0.66819  0.04173  1.0000
  F   F64       1.0  0.81479  0.66539  0.54770  1.0000
  F   F65       1.0  0.20635  0.21793  0.20403  1.0000
  F   F66       1.0  0.19579  0.21109  0.71580  1.0000
  F   F67       1.0  0.21534  0.69131  0.21521  1.0000
  F   F68       1.0  0.20968  0.69830  0.70231  1.0000
  F   F69       1.0  0.44749  0.20462  0.21592  1.0000
  F   F70       1.0  0.46520  0.21057  0.71914  1.0000
  F   F71       1.0  0.45388  0.69985  0.21829  1.0000
  F   F72       1.0  0.45612  0.70012  0.71379  1.0000
  F   F73       1.0  0.70520  0.19334  0.20446  1.0000
  F   F74       1.0  0.70614  0.19810  0.70887  1.0000
  F   F75       1.0  0.70489  0.69322  0.21648  1.0000
  F   F76       1.0  0.69583  0.70419  0.72356  1.0000
  F   F77       1.0  0.95574  0.20016  0.19475  1.0000
  F   F78       1.0  0.95158  0.20172  0.70214  1.0000
  F   F79       1.0  0.95532  0.68604  0.20883  1.0000
  F   F80       1.0  0.95225  0.71027  0.70198  1.0000
  F   F81       1.0  0.15578  0.09595  0.03266  1.0000
  F   F82       1.0  0.15165  0.09047  0.53079  1.0000
  F   F83       1.0  0.14766  0.61025  0.03782  1.0000
  F   F84       1.0  0.14612  0.59831  0.55688  1.0000
  F   F85       1.0  0.40207  0.08371  0.02968  1.0000
  F   F86       1.0  0.40092  0.10675  0.54566  1.0000
  F   F87       1.0  0.40769  0.59681  0.03990  1.0000
  F   F88       1.0  0.39308  0.60577  0.54582  1.0000
  F   F89       1.0  0.65475  0.09451  0.03446  1.0000
  F   F90       1.0  0.64934  0.09193  0.52982  1.0000
  F   F91       1.0  0.65320  0.58947  0.04520  1.0000
  F   F92       1.0  0.65247  0.59003  0.54387  1.0000
  F   F93       1.0  0.89698  0.09758  0.03882  1.0000
  F   F94       1.0  0.89817  0.09110  0.53267  1.0000
  F   F95       1.0  0.90087  0.58175  0.03042  1.0000
  F   F96       1.0  0.89916  0.60604  0.53416  1.0000
  F   F97       1.0  0.15652  0.19664  0.12443  1.0000
  F   F98       1.0  0.15271  0.19169  0.61080  1.0000
  F   F99       1.0  0.15107  0.70679  0.12774  1.0000
  F   F100      1.0  0.15229  0.70396  0.63626  1.0000
  F   F101      1.0  0.41159  0.18373  0.10824  1.0000
  F   F102      1.0  0.40524  0.18870  0.63860  1.0000
  F   F103      1.0  0.40801  0.69649  0.12405  1.0000
  F   F104      1.0  0.39740  0.69034  0.64454  1.0000
  F   F105      1.0  0.65044  0.20146  0.13128  1.0000
  F   F106      1.0  0.65240  0.19098  0.62715  1.0000
  F   F107      1.0  0.64717  0.69843  0.14275  1.0000
  F   F108      1.0  0.64984  0.69134  0.63070  1.0000
  F   F109      1.0  0.90125  0.19503  0.13017  1.0000
  F   F110      1.0  0.89947  0.19917  0.60896  1.0000
  F   F111      1.0  0.90187  0.68467  0.12801  1.0000
  F   F112      1.0  0.89880  0.70838  0.62236  1.0000
  F   F113      1.0  0.09933  0.30862  0.36847  1.0000
  F   F114      1.0  0.09722  0.29839  0.89171  1.0000
  F   F115      1.0  0.09354  0.80333  0.38716  1.0000
  F   F116      1.0  0.09345  0.80794  0.87556  1.0000
  F   F117      1.0  0.35370  0.30356  0.37957  1.0000
  F   F118      1.0  0.34667  0.31154  0.87918  1.0000
  F   F119      1.0  0.34482  0.78679  0.39582  1.0000
  F   F120      1.0  0.34997  0.80181  0.87662  1.0000
  F   F121      1.0  0.59464  0.30694  0.39422  1.0000
  F   F122      1.0  0.60025  0.30897  0.84729  1.0000
  F   F123      1.0  0.59203  0.79648  0.39368  1.0000
  F   F124      1.0  0.59332  0.79228  0.85453  1.0000
  F   F125      1.0  0.85708  0.30017  0.35375  1.0000
  F   F126      1.0  0.85273  0.30997  0.87005  1.0000
  F   F127      1.0  0.84302  0.81080  0.35451  1.0000
  F   F128      1.0  0.85031  0.80822  0.87292  1.0000
  F   F129      1.0  0.07846  0.25784  0.11732  1.0000
  F   F130      1.0  0.06570  0.25506  0.63877  1.0000
  F   F131      1.0  0.05928  0.75034  0.16077  1.0000
  F   F132      1.0  0.06556  0.76208  0.62718  1.0000
  F   F133      1.0  0.30308  0.25099  0.16867  1.0000
  F   F134      1.0  0.32084  0.26040  0.62701  1.0000
  F   F135      1.0  0.31705  0.75987  0.14580  1.0000
  F   F136      1.0  0.30611  0.74350  0.65536  1.0000
  F   F137      1.0  0.56265  0.24218  0.16021  1.0000
  F   F138      1.0  0.56633  0.25032  0.63320  1.0000
  F   F139      1.0  0.57095  0.75954  0.12694  1.0000
  F   F140      1.0  0.56384  0.74441  0.63698  1.0000
  F   F141      1.0  0.81046  0.25463  0.15197  1.0000
  F   F142      1.0  0.81134  0.24822  0.64042  1.0000
  F   F143      1.0  0.81780  0.74508  0.14440  1.0000
  F   F144      1.0  0.81250  0.74553  0.65934  1.0000
  F   F145      1.0  0.12727  0.37252  0.09970  1.0000
  F   F146      1.0  0.12131  0.34500  0.64477  1.0000
  F   F147      1.0  0.12278  0.88410  0.09458  1.0000
  F   F148      1.0  0.12557  0.88945  0.58515  1.0000
  F   F149      1.0  0.37683  0.34240  0.12991  1.0000
  F   F150      1.0  0.37931  0.38211  0.59932  1.0000
  F   F151      1.0  0.37418  0.88152  0.11300  1.0000
  F   F152      1.0  0.37285  0.87543  0.60383  1.0000
  F   F153      1.0  0.62670  0.38632  0.10071  1.0000
  F   F154      1.0  0.62541  0.37281  0.60711  1.0000
  F   F155      1.0  0.62562  0.89777  0.08119  1.0000
  F   F156      1.0  0.62412  0.87669  0.61474  1.0000
  F   F157      1.0  0.87286  0.37337  0.12050  1.0000
  F   F158      1.0  0.87234  0.38892  0.60548  1.0000
  F   F159      1.0  0.87437  0.86062  0.11127  1.0000
  F   F160      1.0  0.87116  0.87369  0.61766  1.0000
  F   F161      1.0  0.18940  0.25553  0.35958  1.0000
  F   F162      1.0  0.17764  0.25289  0.87191  1.0000
  F   F163      1.0  0.19279  0.75686  0.34112  1.0000
  F   F164      1.0  0.17735  0.74699  0.85766  1.0000
  F   F165      1.0  0.44434  0.25930  0.34193  1.0000
  F   F166      1.0  0.43015  0.24690  0.87532  1.0000
  F   F167      1.0  0.43516  0.74809  0.36424  1.0000
  F   F168      1.0  0.43690  0.75057  0.85927  1.0000
  F   F169      1.0  0.68999  0.24482  0.34667  1.0000
  F   F170      1.0  0.69347  0.25365  0.84771  1.0000
  F   F171      1.0  0.68780  0.75033  0.34917  1.0000
  F   F172      1.0  0.67742  0.74423  0.87277  1.0000
  F   F173      1.0  0.93833  0.25282  0.34940  1.0000
  F   F174      1.0  0.94211  0.24611  0.85098  1.0000
  F   F175      1.0  0.93452  0.75482  0.35266  1.0000
  F   F176      1.0  0.93376  0.75528  0.85136  1.0000
  F   F177      1.0  0.12821  0.14278  0.37949  1.0000
  F   F178      1.0  0.12420  0.13342  0.89666  1.0000
  F   F179      1.0  0.13039  0.62798  0.40201  1.0000
  F   F180      1.0  0.12706  0.63280  0.88738  1.0000
  F   F181      1.0  0.37560  0.13449  0.39636  1.0000
  F   F182      1.0  0.37779  0.14662  0.87829  1.0000
  F   F183      1.0  0.37659  0.61335  0.40343  1.0000
  F   F184      1.0  0.37711  0.62995  0.90218  1.0000
  F   F185      1.0  0.62697  0.15084  0.37120  1.0000
  F   F186      1.0  0.62728  0.12676  0.89044  1.0000
  F   F187      1.0  0.62682  0.61503  0.39362  1.0000
  F   F188      1.0  0.62496  0.61757  0.91024  1.0000
  F   F189      1.0  0.87433  0.11987  0.38635  1.0000
  F   F190      1.0  0.88021  0.14381  0.86657  1.0000
  F   F191      1.0  0.87472  0.62220  0.40617  1.0000
  F   F192      1.0  0.87553  0.62946  0.88117  1.0000
  F   F193      1.0  0.00928  0.36634  0.07666  1.0000
  F   F194      1.0  0.00438  0.37534  0.57213  1.0000
  F   F195      1.0  0.00270  0.85370  0.08305  1.0000
  F   F196      1.0  0.00773  0.86746  0.57071  1.0000
  F   F197      1.0  0.25914  0.38466  0.05869  1.0000
  F   F198      1.0  0.25830  0.36119  0.57097  1.0000
  F   F199      1.0  0.25452  0.86132  0.08298  1.0000
  F   F200      1.0  0.25556  0.87154  0.58272  1.0000
  F   F201      1.0  0.50385  0.35659  0.09042  1.0000
  F   F202      1.0  0.50306  0.37875  0.57729  1.0000
  F   F203      1.0  0.50785  0.86478  0.07236  1.0000
  F   F204      1.0  0.50549  0.86451  0.56589  1.0000
  F   F205      1.0  0.75843  0.36322  0.07217  1.0000
  F   F206      1.0  0.75864  0.36053  0.56467  1.0000
  F   F207      1.0  0.75690  0.84619  0.08807  1.0000
  F   F208      1.0  0.75643  0.85324  0.59017  1.0000
  F   F209      1.0  0.07024  0.48539  0.16830  1.0000
  F   F210      1.0  0.06925  0.49624  0.65878  1.0000
  F   F211      1.0  0.06019  0.98353  0.18176  1.0000
  F   F212      1.0  0.06984  0.98915  0.66984  1.0000
  F   F213      1.0  0.32838  0.48687  0.15562  1.0000
  F   F214      1.0  0.31877  0.47961  0.67513  1.0000
  F   F215      1.0  0.31767  0.98952  0.18787  1.0000
  F   F216      1.0  0.32035  0.98492  0.68288  1.0000
  F   F217      1.0  0.56901  0.48698  0.17601  1.0000
  F   F218      1.0  0.56464  0.47551  0.68622  1.0000
  F   F219      1.0  0.56606  0.99043  0.17585  1.0000
  F   F220      1.0  0.56557  0.96902  0.70718  1.0000
  F   F221      1.0  0.81476  0.48506  0.17768  1.0000
  F   F222      1.0  0.81800  0.48939  0.67578  1.0000
  F   F223      1.0  0.81232  0.98699  0.17926  1.0000
  F   F224      1.0  0.81912  0.00076  0.65679  1.0000
  F   F225      1.0  0.24744  0.14125  0.41504  1.0000
  F   F226      1.0  0.24349  0.14033  0.93151  1.0000
  F   F227      1.0  0.23882  0.64248  0.43761  1.0000
  F   F228      1.0  0.24221  0.65106  0.91389  1.0000
  F   F229      1.0  0.49207  0.13144  0.43084  1.0000
  F   F230      1.0  0.49522  0.13568  0.92986  1.0000
  F   F231      1.0  0.48968  0.63443  0.42588  1.0000
  F   F232      1.0  0.48970  0.63357  0.93669  1.0000
  F   F233      1.0  0.74011  0.13927  0.43141  1.0000
  F   F234      1.0  0.74861  0.13567  0.92009  1.0000
  F   F235      1.0  0.74248  0.63192  0.42740  1.0000
  F   F236      1.0  0.74558  0.65115  0.89616  1.0000
  F   F237      1.0  0.99060  0.12799  0.43555  1.0000
  F   F238      1.0  0.99357  0.13207  0.93373  1.0000
  F   F239      1.0  0.99772  0.63480  0.40892  1.0000
  F   F240      1.0  0.99192  0.64615  0.91849  1.0000
  F   F241      1.0  0.18262  0.02303  0.32185  1.0000
  F   F242      1.0  0.18090  0.02458  0.82105  1.0000
  F   F243      1.0  0.18592  0.51627  0.31556  1.0000
  F   F244      1.0  0.18825  0.52536  0.80499  1.0000
  F   F245      1.0  0.43414  0.02584  0.31372  1.0000
  F   F246      1.0  0.43498  0.01039  0.82987  1.0000
  F   F247      1.0  0.43294  0.50441  0.32805  1.0000
  F   F248      1.0  0.42566  0.51928  0.82519  1.0000
  F   F249      1.0  0.67650  0.01781  0.32389  1.0000
  F   F250      1.0  0.68466  0.00871  0.83119  1.0000
  F   F251      1.0  0.68525  0.49590  0.33489  1.0000
  F   F252      1.0  0.67616  0.51672  0.82155  1.0000
  F   F253      1.0  0.92662  0.01632  0.32085  1.0000
  F   F254      1.0  0.91934  0.01104  0.83594  1.0000
  F   F255      1.0  0.93014  0.50873  0.33602  1.0000
  F   F256      1.0  0.93133  0.52331  0.81463  1.0000
  F   F257      1.0  0.00005  0.25403  0.98442  1.0000
  F   F258      1.0  0.00691  0.25120  0.49234  1.0000
  F   F259      1.0  0.99818  0.74400  0.00161  1.0000
  F   F260      1.0  0.99267  0.73769  0.50452  1.0000
  F   F261      1.0  0.25504  0.26443  0.99040  1.0000
  F   F262      1.0  0.25511  0.25049  0.50029  1.0000
  F   F263      1.0  0.25036  0.75748  0.00447  1.0000
  F   F264      1.0  0.24903  0.76317  0.49732  1.0000
  F   F265      1.0  0.50874  0.26516  0.99087  1.0000
  F   F266      1.0  0.49857  0.24212  0.50790  1.0000
  F   F267      1.0  0.49702  0.75159  0.99659  1.0000
  F   F268      1.0  0.49651  0.72974  0.51672  1.0000
  F   F269      1.0  0.75545  0.25131  0.98996  1.0000
  F   F270      1.0  0.74639  0.24144  0.50705  1.0000
  F   F271      1.0  0.74793  0.74477  0.99972  1.0000
  F   F272      1.0  0.74432  0.74887  0.50072  1.0000
  F   F273      1.0  0.13361  0.00712  0.23483  1.0000
  F   F274      1.0  0.12694  0.99139  0.74193  1.0000
  F   F275      1.0  0.12491  0.50554  0.24398  1.0000
  F   F276      1.0  0.12095  0.49977  0.75797  1.0000
  F   F277      1.0  0.37841  0.99843  0.24755  1.0000
  F   F278      1.0  0.37881  0.00347  0.74481  1.0000
  F   F279      1.0  0.37178  0.49866  0.26100  1.0000
  F   F280      1.0  0.37066  0.49815  0.74913  1.0000
  F   F281      1.0  0.63174  0.00063  0.23163  1.0000
  F   F282      1.0  0.63748  0.01061  0.73503  1.0000
  F   F283      1.0  0.62721  0.49153  0.24827  1.0000
  F   F284      1.0  0.61449  0.48086  0.77584  1.0000
  F   F285      1.0  0.86290  0.99376  0.26637  1.0000
  F   F286      1.0  0.87833  0.00019  0.73412  1.0000
  F   F287      1.0  0.87743  0.49885  0.24253  1.0000
  F   F288      1.0  0.88074  0.50183  0.73484  1.0000
  F   F289      1.0  0.04015  0.02531  0.02532  1.0000
  F   F290      1.0  0.03894  0.03761  0.52984  1.0000
  F   F291      1.0  0.04275  0.54242  0.01703  1.0000
  F   F292      1.0  0.04089  0.53770  0.52615  1.0000
  F   F293      1.0  0.29904  0.03793  0.02162  1.0000
  F   F294      1.0  0.29478  0.02906  0.52982  1.0000
  F   F295      1.0  0.29482  0.54662  0.02209  1.0000
  F   F296      1.0  0.29267  0.52817  0.51970  1.0000
  F   F297      1.0  0.54456  0.02432  0.02327  1.0000
  F   F298      1.0  0.55433  0.02470  0.52538  1.0000
  F   F299      1.0  0.54782  0.51936  0.02390  1.0000
  F   F300      1.0  0.54623  0.52496  0.52170  1.0000
  F   F301      1.0  0.79183  0.03230  0.02752  1.0000
  F   F302      1.0  0.79082  0.02623  0.51670  1.0000
  F   F303      1.0  0.78770  0.53679  0.03251  1.0000
  F   F304      1.0  0.79332  0.52106  0.52328  1.0000
  F   F305      1.0  0.23679  0.40853  0.22909  1.0000
  F   F306      1.0  0.23847  0.38573  0.74449  1.0000
  F   F307      1.0  0.23287  0.92360  0.22589  1.0000
  F   F308      1.0  0.23252  0.90566  0.74129  1.0000
  F   F309      1.0  0.48929  0.41670  0.22808  1.0000
  F   F310      1.0  0.47940  0.42225  0.73043  1.0000
  F   F311      1.0  0.48098  0.92155  0.22569  1.0000
  F   F312      1.0  0.48222  0.93065  0.71131  1.0000
  F   F313      1.0  0.73545  0.40943  0.22806  1.0000
  F   F314      1.0  0.73614  0.42329  0.72210  1.0000
  F   F315      1.0  0.72309  0.92505  0.21772  1.0000
  F   F316      1.0  0.74003  0.91469  0.72598  1.0000
  F   F317      1.0  0.98975  0.41108  0.22883  1.0000
  F   F318      1.0  0.98419  0.42324  0.71891  1.0000
  F   F319      1.0  0.98196  0.91167  0.22487  1.0000
  F   F320      1.0  0.98012  0.91477  0.74114  1.0000
  F   F321      1.0  0.19889  0.47979  0.48185  1.0000
  F   F322      1.0  0.20277  0.48738  0.97685  1.0000
  F   F323      1.0  0.21158  0.97498  0.46306  1.0000
  F   F324      1.0  0.20647  0.96977  0.97966  1.0000
  F   F325      1.0  0.45648  0.47565  0.48225  1.0000
  F   F326      1.0  0.45706  0.46404  0.98001  1.0000
  F   F327      1.0  0.44886  0.97660  0.48483  1.0000
  F   F328      1.0  0.46082  0.96660  0.97676  1.0000
  F   F329      1.0  0.70594  0.46082  0.48351  1.0000
  F   F330      1.0  0.70289  0.46556  0.98906  1.0000
  F   F331      1.0  0.70540  0.96332  0.47634  1.0000
  F   F332      1.0  0.71482  0.96583  0.98750  1.0000
  F   F333      1.0  0.95094  0.46773  0.49029  1.0000
  F   F334      1.0  0.95420  0.46469  0.97929  1.0000
  F   F335      1.0  0.95774  0.98129  0.47297  1.0000
  F   F336      1.0  0.95663  0.96481  0.96540  1.0000
  F   F337      1.0  0.01349  0.09267  0.26318  1.0000
  F   F338      1.0  0.01292  0.09393  0.76228  1.0000
  F   F339      1.0  0.01512  0.58767  0.26189  1.0000
  F   F340      1.0  0.00837  0.59264  0.76651  1.0000
  F   F341      1.0  0.26493  0.08992  0.27420  1.0000
  F   F342      1.0  0.26182  0.11368  0.75789  1.0000
  F   F343      1.0  0.27129  0.58150  0.27849  1.0000
  F   F344      1.0  0.26686  0.57534  0.78564  1.0000
  F   F345      1.0  0.51511  0.09380  0.27328  1.0000
  F   F346      1.0  0.51598  0.07623  0.78372  1.0000
  F   F347      1.0  0.51953  0.57791  0.27106  1.0000
  F   F348      1.0  0.51546  0.57184  0.78015  1.0000
  F   F349      1.0  0.76407  0.09163  0.26758  1.0000
  F   F350      1.0  0.76425  0.07432  0.77738  1.0000
  F   F351      1.0  0.77029  0.58285  0.28558  1.0000
  F   F352      1.0  0.76072  0.57894  0.77627  1.0000
  F   F353      1.0  0.10684  0.40937  0.46691  1.0000
  F   F354      1.0  0.10102  0.42259  0.95581  1.0000
  F   F355      1.0  0.09812  0.91947  0.44654  1.0000
  F   F356      1.0  0.09582  0.89942  0.95974  1.0000
  F   F357      1.0  0.34967  0.41296  0.46439  1.0000
  F   F358      1.0  0.35095  0.40661  0.97126  1.0000
  F   F359      1.0  0.35205  0.91449  0.45406  1.0000
  F   F360      1.0  0.34781  0.90527  0.96044  1.0000
  F   F361      1.0  0.59427  0.41524  0.46285  1.0000
  F   F362      1.0  0.60035  0.39753  0.96596  1.0000
  F   F363      1.0  0.59802  0.90443  0.46165  1.0000
  F   F364      1.0  0.60361  0.90697  0.93540  1.0000
  F   F365      1.0  0.85466  0.38717  0.46149  1.0000
  F   F366      1.0  0.84965  0.41017  0.96710  1.0000
  F   F367      1.0  0.85046  0.89690  0.45654  1.0000
  F   F368      1.0  0.84589  0.90672  0.96275  1.0000
  F   F369      1.0  0.05469  0.28458  0.27643  1.0000
  F   F370      1.0  0.04289  0.30984  0.78663  1.0000
  F   F371      1.0  0.04559  0.80210  0.29756  1.0000
  F   F372      1.0  0.05020  0.80709  0.77611  1.0000
  F   F373      1.0  0.30019  0.30993  0.29646  1.0000
  F   F374      1.0  0.30302  0.29162  0.78114  1.0000
  F   F375      1.0  0.29580  0.79999  0.28741  1.0000
  F   F376      1.0  0.29479  0.79697  0.79717  1.0000
  F   F377      1.0  0.55669  0.30110  0.29020  1.0000
  F   F378      1.0  0.53893  0.28604  0.78596  1.0000
  F   F379      1.0  0.54448  0.81350  0.27847  1.0000
  F   F380      1.0  0.53621  0.79037  0.79368  1.0000
  F   F381      1.0  0.79745  0.30713  0.29452  1.0000
  F   F382      1.0  0.79913  0.29577  0.78196  1.0000
  F   F383      1.0  0.78675  0.79949  0.29185  1.0000
  F   F384      1.0  0.80187  0.79962  0.78958  1.0000
