data_image0
_chemical_formula_structural       Hf96F384
_chemical_formula_sum              "Hf96 F384"
_cell_length_a       31.014
_cell_length_b       15.5073
_cell_length_c       15.5011
_cell_angle_alpha    63.342
_cell_angle_beta     63.342
_cell_angle_gamma    80.1625

_space_group_name_H-M_alt    "P 1"
_space_group_IT_number       1

loop_
  _space_group_symop_operation_xyz
  'x, y, z'

loop_
  _atom_site_type_symbol
  _atom_site_label
  _atom_site_symmetry_multiplicity
  _atom_site_fract_x
  _atom_site_fract_y
  _atom_site_fract_z
  _atom_site_occupancy
  Hf  Hf1       1.0  0.19594  0.10560  0.38635  1.0000
  Hf  Hf2       1.0  0.19584  0.10737  0.86364  1.0000
  Hf  Hf3       1.0  0.19414  0.60728  0.38373  1.0000
  Hf  Hf4       1.0  0.19826  0.60576  0.87686  1.0000
  Hf  Hf5       1.0  0.44945  0.10993  0.37157  1.0000
  Hf  Hf6       1.0  0.44889  0.11155  0.87249  1.0000
  Hf  Hf7       1.0  0.45066  0.61121  0.36580  1.0000
  Hf  Hf8       1.0  0.44724  0.60663  0.87182  1.0000
  Hf  Hf9       1.0  0.69558  0.10667  0.37702  1.0000
  Hf  Hf10      1.0  0.69308  0.10761  0.87683  1.0000
  Hf  Hf11      1.0  0.69917  0.61262  0.37329  1.0000
  Hf  Hf12      1.0  0.69946  0.60929  0.86627  1.0000
  Hf  Hf13      1.0  0.94933  0.10704  0.37135  1.0000
  Hf  Hf14      1.0  0.94451  0.10566  0.87869  1.0000
  Hf  Hf15      1.0  0.94790  0.60144  0.38493  1.0000
  Hf  Hf16      1.0  0.94392  0.59924  0.87974  1.0000
  Hf  Hf17      1.0  0.05334  0.38882  0.12819  1.0000
  Hf  Hf18      1.0  0.05199  0.39527  0.62256  1.0000
  Hf  Hf19      1.0  0.05566  0.89343  0.11833  1.0000
  Hf  Hf20      1.0  0.04966  0.88424  0.63503  1.0000
  Hf  Hf21      1.0  0.30407  0.39002  0.12956  1.0000
  Hf  Hf22      1.0  0.30229  0.38917  0.62481  1.0000
  Hf  Hf23      1.0  0.30177  0.89296  0.13179  1.0000
  Hf  Hf24      1.0  0.30347  0.89832  0.62042  1.0000
  Hf  Hf25      1.0  0.55804  0.39694  0.11777  1.0000
  Hf  Hf26      1.0  0.55454  0.39308  0.61934  1.0000
  Hf  Hf27      1.0  0.55322  0.88875  0.12622  1.0000
  Hf  Hf28      1.0  0.56029  0.89961  0.61006  1.0000
  Hf  Hf29      1.0  0.80223  0.39640  0.12093  1.0000
  Hf  Hf30      1.0  0.80391  0.38916  0.62976  1.0000
  Hf  Hf31      1.0  0.80035  0.89152  0.12838  1.0000
  Hf  Hf32      1.0  0.80526  0.89531  0.61896  1.0000
  Hf  Hf33      1.0  0.05633  0.18108  0.41741  1.0000
  Hf  Hf34      1.0  0.05603  0.18692  0.91305  1.0000
  Hf  Hf35      1.0  0.05537  0.68169  0.41937  1.0000
  Hf  Hf36      1.0  0.05327  0.67502  0.92559  1.0000
  Hf  Hf37      1.0  0.30579  0.18342  0.41689  1.0000
  Hf  Hf38      1.0  0.30229  0.18480  0.91472  1.0000
  Hf  Hf39      1.0  0.30578  0.68605  0.41622  1.0000
  Hf  Hf40      1.0  0.30455  0.68156  0.91434  1.0000
  Hf  Hf41      1.0  0.55875  0.19366  0.40796  1.0000
  Hf  Hf42      1.0  0.55568  0.17747  0.91742  1.0000
  Hf  Hf43      1.0  0.55770  0.68245  0.41573  1.0000
  Hf  Hf44      1.0  0.55665  0.69438  0.90604  1.0000
  Hf  Hf45      1.0  0.80777  0.18558  0.41936  1.0000
  Hf  Hf46      1.0  0.80568  0.17613  0.92206  1.0000
  Hf  Hf47      1.0  0.80655  0.68111  0.41954  1.0000
  Hf  Hf48      1.0  0.80365  0.68975  0.92148  1.0000
  Hf  Hf49      1.0  0.16130  0.38532  0.33320  1.0000
  Hf  Hf50      1.0  0.15826  0.39250  0.83544  1.0000
  Hf  Hf51      1.0  0.15588  0.88552  0.33987  1.0000
  Hf  Hf52      1.0  0.15546  0.88148  0.83644  1.0000
  Hf  Hf53      1.0  0.41164  0.39493  0.32577  1.0000
  Hf  Hf54      1.0  0.40559  0.38058  0.84734  1.0000
  Hf  Hf55      1.0  0.40850  0.88616  0.33357  1.0000
  Hf  Hf56      1.0  0.41263  0.89477  0.82602  1.0000
  Hf  Hf57      1.0  0.65921  0.39133  0.33022  1.0000
  Hf  Hf58      1.0  0.65566  0.39157  0.83109  1.0000
  Hf  Hf59      1.0  0.65613  0.89447  0.33194  1.0000
  Hf  Hf60      1.0  0.66174  0.89097  0.82652  1.0000
  Hf  Hf61      1.0  0.90933  0.38138  0.34225  1.0000
  Hf  Hf62      1.0  0.90779  0.38379  0.83892  1.0000
  Hf  Hf63      1.0  0.91083  0.88719  0.33027  1.0000
  Hf  Hf64      1.0  0.90757  0.88544  0.83974  1.0000
  Hf  Hf65      1.0  0.18985  0.31112  0.09277  1.0000
  Hf  Hf66      1.0  0.19144  0.31425  0.59241  1.0000
  Hf  Hf67      1.0  0.19355  0.81797  0.08635  1.0000
  Hf  Hf68      1.0  0.19143  0.81444  0.58628  1.0000
  Hf  Hf69      1.0  0.44373  0.31971  0.08697  1.0000
  Hf  Hf70      1.0  0.44214  0.31155  0.59157  1.0000
  Hf  Hf71      1.0  0.44042  0.82160  0.07992  1.0000
  Hf  Hf72      1.0  0.44580  0.81084  0.58092  1.0000
  Hf  Hf73      1.0  0.69489  0.32906  0.07547  1.0000
  Hf  Hf74      1.0  0.69424  0.32631  0.57329  1.0000
  Hf  Hf75      1.0  0.69417  0.82775  0.07686  1.0000
  Hf  Hf76      1.0  0.69602  0.81972  0.57691  1.0000
  Hf  Hf77      1.0  0.94265  0.32349  0.08465  1.0000
  Hf  Hf78      1.0  0.94376  0.31182  0.58827  1.0000
  Hf  Hf79      1.0  0.94581  0.81437  0.08508  1.0000
  Hf  Hf80      1.0  0.94222  0.81204  0.58796  1.0000
  Hf  Hf81      1.0  0.09365  0.10413  0.16409  1.0000
  Hf  Hf82      1.0  0.08785  0.11046  0.67337  1.0000
  Hf  Hf83      1.0  0.09197  0.61035  0.16194  1.0000
  Hf  Hf84      1.0  0.08849  0.60633  0.67603  1.0000
  Hf  Hf85      1.0  0.33696  0.10451  0.17275  1.0000
  Hf  Hf86      1.0  0.34195  0.11039  0.66451  1.0000
  Hf  Hf87      1.0  0.34105  0.61190  0.16743  1.0000
  Hf  Hf88      1.0  0.34448  0.61335  0.66118  1.0000
  Hf  Hf89      1.0  0.59069  0.11610  0.16543  1.0000
  Hf  Hf90      1.0  0.59374  0.11271  0.66477  1.0000
  Hf  Hf91      1.0  0.59673  0.61663  0.15792  1.0000
  Hf  Hf92      1.0  0.58984  0.61449  0.66480  1.0000
  Hf  Hf93      1.0  0.84233  0.10902  0.16888  1.0000
  Hf  Hf94      1.0  0.84280  0.10885  0.66765  1.0000
  Hf  Hf95      1.0  0.84303  0.60805  0.17468  1.0000
  Hf  Hf96      1.0  0.84169  0.60719  0.66718  1.0000
  F   F1        1.0  0.08622  0.12627  0.30479  1.0000
  F   F2        1.0  0.07693  0.13141  0.80184  1.0000
  F   F3        1.0  0.07572  0.62814  0.30795  1.0000
  F   F4        1.0  0.07635  0.61182  0.82091  1.0000
  F   F5        1.0  0.32364  0.12479  0.31048  1.0000
  F   F6        1.0  0.32458  0.12285  0.80830  1.0000
  F   F7        1.0  0.32478  0.61985  0.30753  1.0000
  F   F8        1.0  0.32463  0.62281  0.80689  1.0000
  F   F9        1.0  0.57639  0.12599  0.31348  1.0000
  F   F10       1.0  0.58499  0.12179  0.80039  1.0000
  F   F11       1.0  0.58500  0.64637  0.29062  1.0000
  F   F12       1.0  0.58361  0.63748  0.79079  1.0000
  F   F13       1.0  0.83347  0.13498  0.30165  1.0000
  F   F14       1.0  0.83106  0.12453  0.80747  1.0000
  F   F15       1.0  0.82882  0.63045  0.30549  1.0000
  F   F16       1.0  0.83105  0.63086  0.80067  1.0000
  F   F17       1.0  0.18572  0.34622  0.44781  1.0000
  F   F18       1.0  0.18042  0.33055  0.96503  1.0000
  F   F19       1.0  0.18118  0.84284  0.45452  1.0000
  F   F20       1.0  0.18136  0.83210  0.95103  1.0000
  F   F21       1.0  0.44229  0.34176  0.44471  1.0000
  F   F22       1.0  0.43702  0.33418  0.95844  1.0000
  F   F23       1.0  0.43118  0.83535  0.45438  1.0000
  F   F24       1.0  0.43595  0.84113  0.94627  1.0000
  F   F25       1.0  0.68829  0.34951  0.43718  1.0000
  F   F26       1.0  0.68506  0.34068  0.94688  1.0000
  F   F27       1.0  0.68782  0.83711  0.44662  1.0000
  F   F28       1.0  0.68513  0.86045  0.93466  1.0000
  F   F29       1.0  0.93756  0.33953  0.44850  1.0000
  F   F30       1.0  0.93310  0.33996  0.95262  1.0000
  F   F31       1.0  0.93646  0.84083  0.45180  1.0000
  F   F32       1.0  0.94077  0.83378  0.94486  1.0000
  F   F33       1.0  0.17187  0.37055  0.19763  1.0000
  F   F34       1.0  0.17499  0.37543  0.69029  1.0000
  F   F35       1.0  0.17188  0.87760  0.18797  1.0000
  F   F36       1.0  0.16671  0.86912  0.69765  1.0000
  F   F37       1.0  0.42302  0.38140  0.18976  1.0000
  F   F38       1.0  0.41916  0.35668  0.71129  1.0000
  F   F39       1.0  0.41384  0.87197  0.20008  1.0000
  F   F40       1.0  0.42747  0.87434  0.69085  1.0000
  F   F41       1.0  0.67386  0.38966  0.18302  1.0000
  F   F42       1.0  0.67040  0.37851  0.68550  1.0000
  F   F43       1.0  0.66856  0.88162  0.19318  1.0000
  F   F44       1.0  0.67180  0.86514  0.69300  1.0000
  F   F45       1.0  0.91863  0.37605  0.19839  1.0000
  F   F46       1.0  0.92687  0.37905  0.69071  1.0000
  F   F47       1.0  0.92458  0.87377  0.19194  1.0000
  F   F48       1.0  0.91583  0.84994  0.70900  1.0000
  F   F49       1.0  0.05808  0.15387  0.06116  1.0000
  F   F50       1.0  0.06435  0.16591  0.55348  1.0000
  F   F51       1.0  0.06175  0.66086  0.05464  1.0000
  F   F52       1.0  0.06742  0.65173  0.55443  1.0000
  F   F53       1.0  0.30747  0.14893  0.05788  1.0000
  F   F54       1.0  0.32201  0.16557  0.53782  1.0000
  F   F55       1.0  0.32047  0.66750  0.04196  1.0000
  F   F56       1.0  0.31409  0.65392  0.55235  1.0000
  F   F57       1.0  0.56970  0.16387  0.04429  1.0000
  F   F58       1.0  0.57437  0.16921  0.54344  1.0000
  F   F59       1.0  0.56542  0.66679  0.04854  1.0000
  F   F60       1.0  0.55965  0.65530  0.55807  1.0000
  F   F61       1.0  0.81664  0.16410  0.04897  1.0000
  F   F62       1.0  0.80570  0.13786  0.57038  1.0000
  F   F63       1.0  0.81573  0.65834  0.05240  1.0000
  F   F64       1.0  0.81626  0.65187  0.55292  1.0000
  F   F65       1.0  0.19659  0.20134  0.22564  1.0000
  F   F66       1.0  0.20592  0.20579  0.70980  1.0000
  F   F67       1.0  0.20028  0.70695  0.20844  1.0000
  F   F68       1.0  0.20785  0.69977  0.71261  1.0000
  F   F69       1.0  0.46036  0.20385  0.21546  1.0000
  F   F70       1.0  0.45885  0.20679  0.70915  1.0000
  F   F71       1.0  0.45512  0.69398  0.19575  1.0000
  F   F72       1.0  0.46061  0.70430  0.71100  1.0000
  F   F73       1.0  0.69472  0.20573  0.20439  1.0000
  F   F74       1.0  0.69977  0.20718  0.70419  1.0000
  F   F75       1.0  0.69689  0.71181  0.20212  1.0000
  F   F76       1.0  0.70685  0.69852  0.70238  1.0000
  F   F77       1.0  0.95629  0.19206  0.21746  1.0000
  F   F78       1.0  0.95161  0.20779  0.71852  1.0000
  F   F79       1.0  0.95474  0.70767  0.23028  1.0000
  F   F80       1.0  0.95724  0.69476  0.71383  1.0000
  F   F81       1.0  0.14958  0.08607  0.03147  1.0000
  F   F82       1.0  0.14872  0.09400  0.54609  1.0000
  F   F83       1.0  0.14853  0.58534  0.04299  1.0000
  F   F84       1.0  0.15021  0.59629  0.55103  1.0000
  F   F85       1.0  0.39376  0.08551  0.05185  1.0000
  F   F86       1.0  0.40061  0.09221  0.53512  1.0000
  F   F87       1.0  0.40821  0.59843  0.03074  1.0000
  F   F88       1.0  0.40248  0.62182  0.51987  1.0000
  F   F89       1.0  0.65027  0.08278  0.04032  1.0000
  F   F90       1.0  0.65303  0.07385  0.53399  1.0000
  F   F91       1.0  0.65478  0.59527  0.03016  1.0000
  F   F92       1.0  0.64871  0.59302  0.53886  1.0000
  F   F93       1.0  0.90170  0.09434  0.03816  1.0000
  F   F94       1.0  0.89939  0.09935  0.53438  1.0000
  F   F95       1.0  0.90117  0.58171  0.05899  1.0000
  F   F96       1.0  0.89684  0.57142  0.55270  1.0000
  F   F97       1.0  0.15319  0.17602  0.13146  1.0000
  F   F98       1.0  0.14907  0.19468  0.63643  1.0000
  F   F99       1.0  0.14771  0.69748  0.12348  1.0000
  F   F100      1.0  0.15163  0.68676  0.64330  1.0000
  F   F101      1.0  0.40176  0.19844  0.14361  1.0000
  F   F102      1.0  0.39937  0.19388  0.63953  1.0000
  F   F103      1.0  0.39961  0.70070  0.12000  1.0000
  F   F104      1.0  0.40755  0.68855  0.63039  1.0000
  F   F105      1.0  0.64585  0.20105  0.11866  1.0000
  F   F106      1.0  0.65092  0.21050  0.60152  1.0000
  F   F107      1.0  0.65084  0.70876  0.11108  1.0000
  F   F108      1.0  0.65472  0.69684  0.62163  1.0000
  F   F109      1.0  0.90161  0.20809  0.11655  1.0000
  F   F110      1.0  0.90841  0.17801  0.63817  1.0000
  F   F111      1.0  0.90480  0.68575  0.14104  1.0000
  F   F112      1.0  0.90083  0.69149  0.63078  1.0000
  F   F113      1.0  0.10049  0.29841  0.37010  1.0000
  F   F114      1.0  0.09793  0.31319  0.88346  1.0000
  F   F115      1.0  0.09848  0.80143  0.37629  1.0000
  F   F116      1.0  0.09408  0.80217  0.87385  1.0000
  F   F117      1.0  0.34170  0.30413  0.36394  1.0000
  F   F118      1.0  0.34302  0.30580  0.87684  1.0000
  F   F119      1.0  0.34638  0.80447  0.38828  1.0000
  F   F120      1.0  0.34736  0.80131  0.84293  1.0000
  F   F121      1.0  0.60012  0.31476  0.37783  1.0000
  F   F122      1.0  0.59842  0.31545  0.87286  1.0000
  F   F123      1.0  0.59374  0.81776  0.37409  1.0000
  F   F124      1.0  0.58905  0.81391  0.86976  1.0000
  F   F125      1.0  0.84673  0.28987  0.39591  1.0000
  F   F126      1.0  0.85151  0.30051  0.85273  1.0000
  F   F127      1.0  0.85269  0.79308  0.35774  1.0000
  F   F128      1.0  0.84296  0.79889  0.89453  1.0000
  F   F129      1.0  0.06103  0.24468  0.15236  1.0000
  F   F130      1.0  0.06126  0.25039  0.65119  1.0000
  F   F131      1.0  0.06251  0.74222  0.15051  1.0000
  F   F132      1.0  0.06518  0.74138  0.64953  1.0000
  F   F133      1.0  0.32332  0.25180  0.12668  1.0000
  F   F134      1.0  0.31278  0.24054  0.64507  1.0000
  F   F135      1.0  0.31456  0.75310  0.14399  1.0000
  F   F136      1.0  0.32733  0.75033  0.61297  1.0000
  F   F137      1.0  0.55914  0.25542  0.14655  1.0000
  F   F138      1.0  0.55474  0.25038  0.65556  1.0000
  F   F139      1.0  0.55422  0.75222  0.15015  1.0000
  F   F140      1.0  0.57785  0.76012  0.61405  1.0000
  F   F141      1.0  0.81171  0.25337  0.14725  1.0000
  F   F142      1.0  0.82688  0.25195  0.62245  1.0000
  F   F143      1.0  0.81656  0.75472  0.13344  1.0000
  F   F144      1.0  0.81958  0.75594  0.62636  1.0000
  F   F145      1.0  0.12108  0.34599  0.12298  1.0000
  F   F146      1.0  0.12497  0.37001  0.60847  1.0000
  F   F147      1.0  0.12883  0.87452  0.09967  1.0000
  F   F148      1.0  0.12089  0.86528  0.61153  1.0000
  F   F149      1.0  0.37313  0.37492  0.11361  1.0000
  F   F150      1.0  0.37000  0.36253  0.62171  1.0000
  F   F151      1.0  0.37429  0.88461  0.09406  1.0000
  F   F152      1.0  0.37452  0.86978  0.61357  1.0000
  F   F153      1.0  0.62319  0.35524  0.11787  1.0000
  F   F154      1.0  0.62550  0.36656  0.59636  1.0000
  F   F155      1.0  0.62243  0.87258  0.10605  1.0000
  F   F156      1.0  0.63607  0.89449  0.57630  1.0000
  F   F157      1.0  0.87312  0.37323  0.10841  1.0000
  F   F158      1.0  0.87742  0.36490  0.61336  1.0000
  F   F159      1.0  0.87877  0.86632  0.10237  1.0000
  F   F160      1.0  0.87481  0.86341  0.61123  1.0000
  F   F161      1.0  0.18053  0.24153  0.37486  1.0000
  F   F162      1.0  0.18780  0.25635  0.85481  1.0000
  F   F163      1.0  0.18296  0.74969  0.35748  1.0000
  F   F164      1.0  0.18241  0.74611  0.85854  1.0000
  F   F165      1.0  0.42390  0.25430  0.36636  1.0000
  F   F166      1.0  0.43188  0.23685  0.88334  1.0000
  F   F167      1.0  0.44476  0.76188  0.32702  1.0000
  F   F168      1.0  0.42017  0.75570  0.86714  1.0000
  F   F169      1.0  0.68349  0.25622  0.36872  1.0000
  F   F170      1.0  0.68797  0.25370  0.84473  1.0000
  F   F171      1.0  0.68283  0.75773  0.35331  1.0000
  F   F172      1.0  0.67795  0.75090  0.85969  1.0000
  F   F173      1.0  0.94277  0.25421  0.34671  1.0000
  F   F174      1.0  0.93161  0.24566  0.86593  1.0000
  F   F175      1.0  0.93609  0.74852  0.37599  1.0000
  F   F176      1.0  0.93236  0.74329  0.86395  1.0000
  F   F177      1.0  0.12564  0.12257  0.41291  1.0000
  F   F178      1.0  0.12285  0.14173  0.88186  1.0000
  F   F179      1.0  0.12579  0.62512  0.39028  1.0000
  F   F180      1.0  0.12881  0.62137  0.89140  1.0000
  F   F181      1.0  0.37862  0.13136  0.38138  1.0000
  F   F182      1.0  0.38305  0.13213  0.87018  1.0000
  F   F183      1.0  0.37709  0.63841  0.37999  1.0000
  F   F184      1.0  0.37905  0.62728  0.87946  1.0000
  F   F185      1.0  0.62842  0.15623  0.37528  1.0000
  F   F186      1.0  0.62502  0.13892  0.89187  1.0000
  F   F187      1.0  0.62299  0.63697  0.39482  1.0000
  F   F188      1.0  0.62862  0.64539  0.88061  1.0000
  F   F189      1.0  0.87862  0.12520  0.39958  1.0000
  F   F190      1.0  0.87240  0.10995  0.91120  1.0000
  F   F191      1.0  0.87775  0.62077  0.39417  1.0000
  F   F192      1.0  0.87413  0.62571  0.89414  1.0000
  F   F193      1.0  0.00692  0.35883  0.07101  1.0000
  F   F194      1.0  0.00498  0.34986  0.59462  1.0000
  F   F195      1.0  0.00970  0.87007  0.06373  1.0000
  F   F196      1.0  0.00945  0.85948  0.58034  1.0000
  F   F197      1.0  0.25791  0.36543  0.07779  1.0000
  F   F198      1.0  0.26105  0.35987  0.57127  1.0000
  F   F199      1.0  0.25895  0.85682  0.07756  1.0000
  F   F200      1.0  0.25570  0.84714  0.58815  1.0000
  F   F201      1.0  0.51095  0.36736  0.06579  1.0000
  F   F202      1.0  0.50477  0.36748  0.56585  1.0000
  F   F203      1.0  0.50026  0.86747  0.06928  1.0000
  F   F204      1.0  0.51235  0.87695  0.56550  1.0000
  F   F205      1.0  0.75601  0.36988  0.06030  1.0000
  F   F206      1.0  0.75752  0.36662  0.57048  1.0000
  F   F207      1.0  0.75485  0.86205  0.08456  1.0000
  F   F208      1.0  0.75970  0.86795  0.57343  1.0000
  F   F209      1.0  0.06783  0.48506  0.17468  1.0000
  F   F210      1.0  0.06970  0.48370  0.67332  1.0000
  F   F211      1.0  0.07387  0.98061  0.17327  1.0000
  F   F212      1.0  0.06752  0.98658  0.66397  1.0000
  F   F213      1.0  0.32358  0.48937  0.17984  1.0000
  F   F214      1.0  0.32328  0.48652  0.65864  1.0000
  F   F215      1.0  0.31174  0.98295  0.18826  1.0000
  F   F216      1.0  0.31923  0.98615  0.66751  1.0000
  F   F217      1.0  0.57666  0.48773  0.16062  1.0000
  F   F218      1.0  0.57423  0.47660  0.67277  1.0000
  F   F219      1.0  0.57139  0.99220  0.15855  1.0000
  F   F220      1.0  0.57386  0.98017  0.67485  1.0000
  F   F221      1.0  0.81653  0.49171  0.16608  1.0000
  F   F222      1.0  0.81299  0.47537  0.68474  1.0000
  F   F223      1.0  0.82134  0.99319  0.15990  1.0000
  F   F224      1.0  0.82022  0.98139  0.67576  1.0000
  F   F225      1.0  0.23893  0.13224  0.43817  1.0000
  F   F226      1.0  0.24031  0.13598  0.94328  1.0000
  F   F227      1.0  0.24328  0.64816  0.41876  1.0000
  F   F228      1.0  0.23642  0.62734  0.95055  1.0000
  F   F229      1.0  0.49255  0.16531  0.41121  1.0000
  F   F230      1.0  0.49295  0.13190  0.92958  1.0000
  F   F231      1.0  0.49446  0.64221  0.42076  1.0000
  F   F232      1.0  0.49541  0.64779  0.90886  1.0000
  F   F233      1.0  0.74251  0.14821  0.41236  1.0000
  F   F234      1.0  0.74123  0.12448  0.93330  1.0000
  F   F235      1.0  0.73882  0.63863  0.42635  1.0000
  F   F236      1.0  0.74158  0.64465  0.91297  1.0000
  F   F237      1.0  0.99055  0.13966  0.43074  1.0000
  F   F238      1.0  0.99562  0.14514  0.91307  1.0000
  F   F239      1.0  0.98872  0.64041  0.43390  1.0000
  F   F240      1.0  0.99007  0.63275  0.92549  1.0000
  F   F241      1.0  0.17939  0.01493  0.32554  1.0000
  F   F242      1.0  0.17591  0.02308  0.81856  1.0000
  F   F243      1.0  0.18051  0.51909  0.32761  1.0000
  F   F244      1.0  0.18220  0.50458  0.83647  1.0000
  F   F245      1.0  0.43272  0.01182  0.33011  1.0000
  F   F246      1.0  0.43272  0.01857  0.80693  1.0000
  F   F247      1.0  0.43644  0.52434  0.31452  1.0000
  F   F248      1.0  0.43287  0.50545  0.82949  1.0000
  F   F249      1.0  0.67715  0.01592  0.33019  1.0000
  F   F250      1.0  0.68455  0.02197  0.81289  1.0000
  F   F251      1.0  0.67971  0.52289  0.32213  1.0000
  F   F252      1.0  0.68174  0.51695  0.81796  1.0000
  F   F253      1.0  0.93149  0.00354  0.33894  1.0000
  F   F254      1.0  0.93068  0.02512  0.81742  1.0000
  F   F255      1.0  0.93272  0.50217  0.33510  1.0000
  F   F256      1.0  0.92653  0.50845  0.83509  1.0000
  F   F257      1.0  0.99375  0.24094  0.01046  1.0000
  F   F258      1.0  0.99934  0.23865  0.51518  1.0000
  F   F259      1.0  0.99348  0.72933  0.02736  1.0000
  F   F260      1.0  0.00535  0.75874  0.49356  1.0000
  F   F261      1.0  0.24873  0.25645  0.00704  1.0000
  F   F262      1.0  0.24496  0.24853  0.50209  1.0000
  F   F263      1.0  0.24915  0.75227  0.99687  1.0000
  F   F264      1.0  0.25082  0.76377  0.49038  1.0000
  F   F265      1.0  0.50069  0.23625  0.00911  1.0000
  F   F266      1.0  0.50473  0.24336  0.50136  1.0000
  F   F267      1.0  0.49456  0.74756  0.99782  1.0000
  F   F268      1.0  0.50159  0.75656  0.48626  1.0000
  F   F269      1.0  0.75032  0.24724  0.99322  1.0000
  F   F270      1.0  0.75621  0.27558  0.47881  1.0000
  F   F271      1.0  0.74514  0.75275  0.00194  1.0000
  F   F272      1.0  0.75635  0.76323  0.48181  1.0000
  F   F273      1.0  0.12067  0.98921  0.25829  1.0000
  F   F274      1.0  0.12024  0.98973  0.75535  1.0000
  F   F275      1.0  0.12142  0.50056  0.26424  1.0000
  F   F276      1.0  0.12930  0.49437  0.74668  1.0000
  F   F277      1.0  0.37033  0.98987  0.26226  1.0000
  F   F278      1.0  0.37274  0.00511  0.74974  1.0000
  F   F279      1.0  0.37648  0.51024  0.25745  1.0000
  F   F280      1.0  0.38214  0.49520  0.74887  1.0000
  F   F281      1.0  0.62424  0.00301  0.23865  1.0000
  F   F282      1.0  0.63106  0.00038  0.73853  1.0000
  F   F283      1.0  0.61926  0.50485  0.25540  1.0000
  F   F284      1.0  0.62821  0.51358  0.73547  1.0000
  F   F285      1.0  0.87617  0.00189  0.24827  1.0000
  F   F286      1.0  0.87623  0.98966  0.74605  1.0000
  F   F287      1.0  0.86472  0.47830  0.27215  1.0000
  F   F288      1.0  0.87030  0.48746  0.75911  1.0000
  F   F289      1.0  0.04770  0.02248  0.02080  1.0000
  F   F290      1.0  0.03964  0.03180  0.53143  1.0000
  F   F291      1.0  0.04485  0.53338  0.01826  1.0000
  F   F292      1.0  0.04030  0.52559  0.51895  1.0000
  F   F293      1.0  0.29902  0.02038  0.01506  1.0000
  F   F294      1.0  0.29046  0.03442  0.52161  1.0000
  F   F295      1.0  0.29208  0.53214  0.03422  1.0000
  F   F296      1.0  0.28966  0.53414  0.51443  1.0000
  F   F297      1.0  0.54449  0.02880  0.01349  1.0000
  F   F298      1.0  0.55038  0.04620  0.51184  1.0000
  F   F299      1.0  0.54172  0.53933  0.03083  1.0000
  F   F300      1.0  0.54561  0.52913  0.51411  1.0000
  F   F301      1.0  0.78791  0.02967  0.03646  1.0000
  F   F302      1.0  0.79320  0.02903  0.51076  1.0000
  F   F303      1.0  0.78581  0.54733  0.00902  1.0000
  F   F304      1.0  0.79497  0.52395  0.52253  1.0000
  F   F305      1.0  0.23436  0.43203  0.22096  1.0000
  F   F306      1.0  0.23840  0.42170  0.72227  1.0000
  F   F307      1.0  0.23311  0.91495  0.23045  1.0000
  F   F308      1.0  0.22912  0.91629  0.71039  1.0000
  F   F309      1.0  0.48417  0.42473  0.22622  1.0000
  F   F310      1.0  0.48595  0.40101  0.74058  1.0000
  F   F311      1.0  0.47979  0.92408  0.22624  1.0000
  F   F312      1.0  0.49174  0.91070  0.72063  1.0000
  F   F313      1.0  0.73451  0.42147  0.21832  1.0000
  F   F314      1.0  0.73373  0.41734  0.71787  1.0000
  F   F315      1.0  0.73275  0.91228  0.23364  1.0000
  F   F316      1.0  0.73482  0.92482  0.72196  1.0000
  F   F317      1.0  0.98128  0.42007  0.22392  1.0000
  F   F318      1.0  0.98772  0.41069  0.73800  1.0000
  F   F319      1.0  0.98215  0.92423  0.21820  1.0000
  F   F320      1.0  0.98190  0.90535  0.73814  1.0000
  F   F321      1.0  0.20619  0.47822  0.47707  1.0000
  F   F322      1.0  0.20056  0.46307  0.98585  1.0000
  F   F323      1.0  0.20817  0.95525  0.47825  1.0000
  F   F324      1.0  0.20890  0.96501  0.96466  1.0000
  F   F325      1.0  0.45057  0.47552  0.48583  1.0000
  F   F326      1.0  0.45220  0.46978  0.98021  1.0000
  F   F327      1.0  0.45667  0.96774  0.48075  1.0000
  F   F328      1.0  0.45733  0.97240  0.96531  1.0000
  F   F329      1.0  0.70879  0.47425  0.47438  1.0000
  F   F330      1.0  0.70535  0.47232  0.97391  1.0000
  F   F331      1.0  0.71595  0.96711  0.46572  1.0000
  F   F332      1.0  0.70985  0.97118  0.96443  1.0000
  F   F333      1.0  0.95877  0.45827  0.48354  1.0000
  F   F334      1.0  0.95604  0.46620  0.98140  1.0000
  F   F335      1.0  0.95644  0.95988  0.48302  1.0000
  F   F336      1.0  0.95509  0.96667  0.97668  1.0000
  F   F337      1.0  0.01853  0.08377  0.27343  1.0000
  F   F338      1.0  0.01735  0.08637  0.77163  1.0000
  F   F339      1.0  0.01253  0.58052  0.27646  1.0000
  F   F340      1.0  0.01102  0.57226  0.77760  1.0000
  F   F341      1.0  0.26111  0.08707  0.27538  1.0000
  F   F342      1.0  0.26508  0.08065  0.77238  1.0000
  F   F343      1.0  0.25965  0.58682  0.27338  1.0000
  F   F344      1.0  0.26233  0.57944  0.78322  1.0000
  F   F345      1.0  0.51719  0.07886  0.27274  1.0000
  F   F346      1.0  0.51642  0.08492  0.77385  1.0000
  F   F347      1.0  0.52244  0.57894  0.27600  1.0000
  F   F348      1.0  0.51763  0.57933  0.77369  1.0000
  F   F349      1.0  0.76266  0.09418  0.26093  1.0000
  F   F350      1.0  0.76318  0.09989  0.76930  1.0000
  F   F351      1.0  0.76398  0.58646  0.27700  1.0000
  F   F352      1.0  0.76629  0.57869  0.76426  1.0000
  F   F353      1.0  0.10186  0.40467  0.46033  1.0000
  F   F354      1.0  0.09704  0.40321  0.97610  1.0000
  F   F355      1.0  0.09702  0.90159  0.46793  1.0000
  F   F356      1.0  0.10014  0.89741  0.96243  1.0000
  F   F357      1.0  0.35603  0.40037  0.46175  1.0000
  F   F358      1.0  0.35142  0.40586  0.96616  1.0000
  F   F359      1.0  0.35181  0.92149  0.46522  1.0000
  F   F360      1.0  0.34922  0.89525  0.94935  1.0000
  F   F361      1.0  0.60225  0.41108  0.46540  1.0000
  F   F362      1.0  0.60473  0.42200  0.95855  1.0000
  F   F363      1.0  0.60081  0.91714  0.45609  1.0000
  F   F364      1.0  0.60069  0.89258  0.96229  1.0000
  F   F365      1.0  0.85563  0.40501  0.46283  1.0000
  F   F366      1.0  0.84603  0.40682  0.96871  1.0000
  F   F367      1.0  0.85445  0.90040  0.45170  1.0000
  F   F368      1.0  0.84772  0.91816  0.96470  1.0000
  F   F369      1.0  0.03897  0.30335  0.30427  1.0000
  F   F370      1.0  0.05088  0.29839  0.78588  1.0000
  F   F371      1.0  0.04821  0.79669  0.28714  1.0000
  F   F372      1.0  0.04667  0.79202  0.78952  1.0000
  F   F373      1.0  0.28832  0.29399  0.28589  1.0000
  F   F374      1.0  0.29146  0.29851  0.78332  1.0000
  F   F375      1.0  0.30507  0.80515  0.28969  1.0000
  F   F376      1.0  0.28641  0.78571  0.77806  1.0000
  F   F377      1.0  0.55460  0.31018  0.28140  1.0000
  F   F378      1.0  0.55067  0.29129  0.79568  1.0000
  F   F379      1.0  0.54645  0.81882  0.28661  1.0000
  F   F380      1.0  0.55023  0.79974  0.76724  1.0000
  F   F381      1.0  0.79663  0.30481  0.29353  1.0000
  F   F382      1.0  0.79755  0.28935  0.78230  1.0000
  F   F383      1.0  0.79140  0.79525  0.28461  1.0000
  F   F384      1.0  0.79132  0.80223  0.78780  1.0000
