data_image0
_chemical_formula_structural       Hf96F384
_chemical_formula_sum              "Hf96 F384"
_cell_length_a       31.0411
_cell_length_b       15.5233
_cell_length_c       15.5181
_cell_angle_alpha    63.342
_cell_angle_beta     63.342
_cell_angle_gamma    80.1625

_space_group_name_H-M_alt    "P 1"
_space_group_IT_number       1

loop_
  _space_group_symop_operation_xyz
  'x, y, z'

loop_
  _atom_site_type_symbol
  _atom_site_label
  _atom_site_symmetry_multiplicity
  _atom_site_fract_x
  _atom_site_fract_y
  _atom_site_fract_z
  _atom_site_occupancy
  Hf  Hf1       1.0  0.19723  0.10816  0.36924  1.0000
  Hf  Hf2       1.0  0.19510  0.10765  0.88178  1.0000
  Hf  Hf3       1.0  0.19689  0.59856  0.36979  1.0000
  Hf  Hf4       1.0  0.19791  0.61119  0.86612  1.0000
  Hf  Hf5       1.0  0.44772  0.10483  0.37978  1.0000
  Hf  Hf6       1.0  0.44421  0.09187  0.88948  1.0000
  Hf  Hf7       1.0  0.44488  0.60845  0.37965  1.0000
  Hf  Hf8       1.0  0.44699  0.61125  0.86809  1.0000
  Hf  Hf9       1.0  0.69968  0.11506  0.36374  1.0000
  Hf  Hf10      1.0  0.69563  0.12065  0.87607  1.0000
  Hf  Hf11      1.0  0.69750  0.61291  0.37123  1.0000
  Hf  Hf12      1.0  0.70029  0.62044  0.86236  1.0000
  Hf  Hf13      1.0  0.94409  0.11098  0.37578  1.0000
  Hf  Hf14      1.0  0.94583  0.11208  0.86662  1.0000
  Hf  Hf15      1.0  0.94592  0.61197  0.37469  1.0000
  Hf  Hf16      1.0  0.94919  0.61601  0.86548  1.0000
  Hf  Hf17      1.0  0.05214  0.39267  0.12266  1.0000
  Hf  Hf18      1.0  0.04824  0.39510  0.62904  1.0000
  Hf  Hf19      1.0  0.05558  0.88603  0.13089  1.0000
  Hf  Hf20      1.0  0.05761  0.89354  0.62391  1.0000
  Hf  Hf21      1.0  0.30307  0.38738  0.12428  1.0000
  Hf  Hf22      1.0  0.30227  0.38321  0.62798  1.0000
  Hf  Hf23      1.0  0.30293  0.88326  0.13556  1.0000
  Hf  Hf24      1.0  0.30497  0.90013  0.61276  1.0000
  Hf  Hf25      1.0  0.55362  0.39470  0.12664  1.0000
  Hf  Hf26      1.0  0.54934  0.38860  0.62527  1.0000
  Hf  Hf27      1.0  0.55371  0.89235  0.12430  1.0000
  Hf  Hf28      1.0  0.55131  0.88663  0.63229  1.0000
  Hf  Hf29      1.0  0.80415  0.39783  0.11376  1.0000
  Hf  Hf30      1.0  0.80153  0.39102  0.62966  1.0000
  Hf  Hf31      1.0  0.80250  0.89134  0.12221  1.0000
  Hf  Hf32      1.0  0.80304  0.89686  0.62355  1.0000
  Hf  Hf33      1.0  0.05867  0.18655  0.40997  1.0000
  Hf  Hf34      1.0  0.05435  0.17866  0.92327  1.0000
  Hf  Hf35      1.0  0.05684  0.67774  0.42211  1.0000
  Hf  Hf36      1.0  0.06067  0.68426  0.91005  1.0000
  Hf  Hf37      1.0  0.30665  0.18290  0.41491  1.0000
  Hf  Hf38      1.0  0.30342  0.17890  0.92933  1.0000
  Hf  Hf39      1.0  0.30494  0.67619  0.42458  1.0000
  Hf  Hf40      1.0  0.30452  0.68075  0.92154  1.0000
  Hf  Hf41      1.0  0.55567  0.18713  0.41731  1.0000
  Hf  Hf42      1.0  0.55155  0.17927  0.92606  1.0000
  Hf  Hf43      1.0  0.55686  0.68586  0.41981  1.0000
  Hf  Hf44      1.0  0.55370  0.68159  0.92414  1.0000
  Hf  Hf45      1.0  0.80228  0.18269  0.42155  1.0000
  Hf  Hf46      1.0  0.80490  0.18546  0.91770  1.0000
  Hf  Hf47      1.0  0.80641  0.69329  0.40782  1.0000
  Hf  Hf48      1.0  0.81116  0.69254  0.90767  1.0000
  Hf  Hf49      1.0  0.15931  0.38830  0.33280  1.0000
  Hf  Hf50      1.0  0.15479  0.38023  0.84137  1.0000
  Hf  Hf51      1.0  0.15381  0.87527  0.34265  1.0000
  Hf  Hf52      1.0  0.15826  0.88958  0.83598  1.0000
  Hf  Hf53      1.0  0.41067  0.39171  0.32804  1.0000
  Hf  Hf54      1.0  0.40910  0.37722  0.84145  1.0000
  Hf  Hf55      1.0  0.40777  0.88631  0.33350  1.0000
  Hf  Hf56      1.0  0.40374  0.88334  0.84644  1.0000
  Hf  Hf57      1.0  0.66004  0.38895  0.33904  1.0000
  Hf  Hf58      1.0  0.65772  0.39698  0.82926  1.0000
  Hf  Hf59      1.0  0.66322  0.89478  0.32512  1.0000
  Hf  Hf60      1.0  0.65985  0.89200  0.83057  1.0000
  Hf  Hf61      1.0  0.90486  0.38518  0.33211  1.0000
  Hf  Hf62      1.0  0.91125  0.38998  0.82771  1.0000
  Hf  Hf63      1.0  0.91136  0.89731  0.32479  1.0000
  Hf  Hf64      1.0  0.90844  0.89335  0.83041  1.0000
  Hf  Hf65      1.0  0.19487  0.32240  0.08043  1.0000
  Hf  Hf66      1.0  0.19181  0.30621  0.58925  1.0000
  Hf  Hf67      1.0  0.19509  0.82112  0.08412  1.0000
  Hf  Hf68      1.0  0.19569  0.82101  0.58110  1.0000
  Hf  Hf69      1.0  0.44300  0.31112  0.08881  1.0000
  Hf  Hf70      1.0  0.44023  0.30548  0.59702  1.0000
  Hf  Hf71      1.0  0.44284  0.80792  0.09405  1.0000
  Hf  Hf72      1.0  0.44185  0.81567  0.58170  1.0000
  Hf  Hf73      1.0  0.69378  0.31598  0.08196  1.0000
  Hf  Hf74      1.0  0.69160  0.32275  0.58986  1.0000
  Hf  Hf75      1.0  0.69215  0.81580  0.08037  1.0000
  Hf  Hf76      1.0  0.69137  0.82797  0.57809  1.0000
  Hf  Hf77      1.0  0.94201  0.31671  0.08593  1.0000
  Hf  Hf78      1.0  0.94418  0.32128  0.57740  1.0000
  Hf  Hf79      1.0  0.94659  0.81786  0.08069  1.0000
  Hf  Hf80      1.0  0.94871  0.81967  0.57411  1.0000
  Hf  Hf81      1.0  0.09258  0.10728  0.16496  1.0000
  Hf  Hf82      1.0  0.09389  0.11980  0.65885  1.0000
  Hf  Hf83      1.0  0.09580  0.60692  0.16443  1.0000
  Hf  Hf84      1.0  0.09414  0.60959  0.66558  1.0000
  Hf  Hf85      1.0  0.34123  0.10546  0.16987  1.0000
  Hf  Hf86      1.0  0.34228  0.10746  0.66520  1.0000
  Hf  Hf87      1.0  0.34320  0.60593  0.16902  1.0000
  Hf  Hf88      1.0  0.33672  0.60432  0.67201  1.0000
  Hf  Hf89      1.0  0.58892  0.10719  0.17116  1.0000
  Hf  Hf90      1.0  0.59144  0.10588  0.67567  1.0000
  Hf  Hf91      1.0  0.59244  0.60643  0.17623  1.0000
  Hf  Hf92      1.0  0.59091  0.61347  0.66888  1.0000
  Hf  Hf93      1.0  0.84283  0.11253  0.16578  1.0000
  Hf  Hf94      1.0  0.84036  0.11624  0.66274  1.0000
  Hf  Hf95      1.0  0.84623  0.61634  0.16360  1.0000
  Hf  Hf96      1.0  0.84356  0.61698  0.66058  1.0000
  F   F1        1.0  0.07587  0.12939  0.29616  1.0000
  F   F2        1.0  0.08191  0.13781  0.78981  1.0000
  F   F3        1.0  0.07674  0.61848  0.31077  1.0000
  F   F4        1.0  0.08466  0.61679  0.80989  1.0000
  F   F5        1.0  0.33645  0.13410  0.29579  1.0000
  F   F6        1.0  0.32626  0.12786  0.81556  1.0000
  F   F7        1.0  0.33572  0.62972  0.30038  1.0000
  F   F8        1.0  0.32947  0.60813  0.81310  1.0000
  F   F9        1.0  0.58165  0.13298  0.30508  1.0000
  F   F10       1.0  0.57673  0.12221  0.81652  1.0000
  F   F11       1.0  0.57865  0.63165  0.30750  1.0000
  F   F12       1.0  0.58241  0.63000  0.81395  1.0000
  F   F13       1.0  0.83321  0.13730  0.29838  1.0000
  F   F14       1.0  0.83182  0.14006  0.79864  1.0000
  F   F15       1.0  0.82991  0.63718  0.29968  1.0000
  F   F16       1.0  0.83267  0.63736  0.79209  1.0000
  F   F17       1.0  0.17687  0.32334  0.45410  1.0000
  F   F18       1.0  0.18287  0.33543  0.95041  1.0000
  F   F19       1.0  0.18154  0.83677  0.44807  1.0000
  F   F20       1.0  0.18263  0.84231  0.95471  1.0000
  F   F21       1.0  0.42990  0.34481  0.45553  1.0000
  F   F22       1.0  0.44167  0.34181  0.94285  1.0000
  F   F23       1.0  0.43288  0.83243  0.45335  1.0000
  F   F24       1.0  0.43487  0.84171  0.95196  1.0000
  F   F25       1.0  0.69091  0.34673  0.43939  1.0000
  F   F26       1.0  0.69490  0.36095  0.93534  1.0000
  F   F27       1.0  0.69481  0.84780  0.43000  1.0000
  F   F28       1.0  0.68819  0.84874  0.93972  1.0000
  F   F29       1.0  0.94158  0.34569  0.43622  1.0000
  F   F30       1.0  0.93622  0.32827  0.94455  1.0000
  F   F31       1.0  0.94361  0.85505  0.43591  1.0000
  F   F32       1.0  0.92916  0.84583  0.94966  1.0000
  F   F33       1.0  0.17509  0.36616  0.19385  1.0000
  F   F34       1.0  0.17034  0.34992  0.71199  1.0000
  F   F35       1.0  0.17546  0.86646  0.19447  1.0000
  F   F36       1.0  0.17087  0.88078  0.68771  1.0000
  F   F37       1.0  0.41600  0.36724  0.19475  1.0000
  F   F38       1.0  0.42183  0.34922  0.71356  1.0000
  F   F39       1.0  0.42139  0.87931  0.19987  1.0000
  F   F40       1.0  0.41626  0.86908  0.70237  1.0000
  F   F41       1.0  0.66981  0.36581  0.20187  1.0000
  F   F42       1.0  0.66641  0.38705  0.69095  1.0000
  F   F43       1.0  0.67324  0.87372  0.19164  1.0000
  F   F44       1.0  0.67008  0.88176  0.69256  1.0000
  F   F45       1.0  0.91323  0.35502  0.20484  1.0000
  F   F46       1.0  0.91531  0.36347  0.69478  1.0000
  F   F47       1.0  0.92803  0.89537  0.18003  1.0000
  F   F48       1.0  0.91747  0.85256  0.71160  1.0000
  F   F49       1.0  0.06912  0.15303  0.04759  1.0000
  F   F50       1.0  0.06732  0.17819  0.54331  1.0000
  F   F51       1.0  0.06492  0.65623  0.05213  1.0000
  F   F52       1.0  0.06144  0.65047  0.56354  1.0000
  F   F53       1.0  0.31600  0.15622  0.06330  1.0000
  F   F54       1.0  0.31362  0.15388  0.55870  1.0000
  F   F55       1.0  0.31979  0.66430  0.04394  1.0000
  F   F56       1.0  0.30738  0.65743  0.55767  1.0000
  F   F57       1.0  0.55143  0.14787  0.06708  1.0000
  F   F58       1.0  0.55763  0.15831  0.56168  1.0000
  F   F59       1.0  0.56438  0.66994  0.04991  1.0000
  F   F60       1.0  0.56052  0.66822  0.55738  1.0000
  F   F61       1.0  0.81389  0.16645  0.05728  1.0000
  F   F62       1.0  0.80961  0.16959  0.55981  1.0000
  F   F63       1.0  0.82894  0.65958  0.04460  1.0000
  F   F64       1.0  0.81869  0.66876  0.53960  1.0000
  F   F65       1.0  0.20837  0.20293  0.20326  1.0000
  F   F66       1.0  0.20389  0.18351  0.72510  1.0000
  F   F67       1.0  0.21010  0.69059  0.21219  1.0000
  F   F68       1.0  0.20388  0.69253  0.70722  1.0000
  F   F69       1.0  0.45124  0.18871  0.20412  1.0000
  F   F70       1.0  0.44638  0.17821  0.71438  1.0000
  F   F71       1.0  0.45206  0.69580  0.21760  1.0000
  F   F72       1.0  0.45313  0.69347  0.71103  1.0000
  F   F73       1.0  0.71003  0.20304  0.20659  1.0000
  F   F74       1.0  0.69151  0.22087  0.73557  1.0000
  F   F75       1.0  0.71268  0.71478  0.21016  1.0000
  F   F76       1.0  0.70004  0.71754  0.70889  1.0000
  F   F77       1.0  0.94542  0.19446  0.22226  1.0000
  F   F78       1.0  0.95068  0.19943  0.69602  1.0000
  F   F79       1.0  0.95258  0.70696  0.20780  1.0000
  F   F80       1.0  0.95407  0.70004  0.71042  1.0000
  F   F81       1.0  0.15068  0.08706  0.04605  1.0000
  F   F82       1.0  0.14710  0.09283  0.52961  1.0000
  F   F83       1.0  0.15191  0.58495  0.04437  1.0000
  F   F84       1.0  0.15060  0.59886  0.52797  1.0000
  F   F85       1.0  0.39532  0.07341  0.04681  1.0000
  F   F86       1.0  0.40620  0.09067  0.53225  1.0000
  F   F87       1.0  0.39751  0.58555  0.03333  1.0000
  F   F88       1.0  0.40182  0.60500  0.54021  1.0000
  F   F89       1.0  0.64208  0.11281  0.04343  1.0000
  F   F90       1.0  0.64181  0.10106  0.54341  1.0000
  F   F91       1.0  0.64835  0.60107  0.05857  1.0000
  F   F92       1.0  0.64553  0.59628  0.53916  1.0000
  F   F93       1.0  0.89698  0.08932  0.03726  1.0000
  F   F94       1.0  0.89468  0.08391  0.54140  1.0000
  F   F95       1.0  0.90783  0.59355  0.02151  1.0000
  F   F96       1.0  0.90450  0.59685  0.53446  1.0000
  F   F97       1.0  0.15073  0.20387  0.11813  1.0000
  F   F98       1.0  0.15928  0.17591  0.63315  1.0000
  F   F99       1.0  0.15445  0.68792  0.13106  1.0000
  F   F100      1.0  0.14897  0.70666  0.62489  1.0000
  F   F101      1.0  0.40726  0.17446  0.11402  1.0000
  F   F102      1.0  0.40547  0.19071  0.60856  1.0000
  F   F103      1.0  0.40439  0.68170  0.11839  1.0000
  F   F104      1.0  0.40630  0.69054  0.63744  1.0000
  F   F105      1.0  0.65305  0.19054  0.13973  1.0000
  F   F106      1.0  0.64959  0.20906  0.62596  1.0000
  F   F107      1.0  0.65407  0.69220  0.15341  1.0000
  F   F108      1.0  0.65428  0.70492  0.61459  1.0000
  F   F109      1.0  0.90118  0.19304  0.12318  1.0000
  F   F110      1.0  0.90055  0.19570  0.60609  1.0000
  F   F111      1.0  0.90373  0.69330  0.12621  1.0000
  F   F112      1.0  0.89991  0.71188  0.61310  1.0000
  F   F113      1.0  0.09902  0.29981  0.36810  1.0000
  F   F114      1.0  0.09544  0.29749  0.86864  1.0000
  F   F115      1.0  0.09487  0.79867  0.38836  1.0000
  F   F116      1.0  0.09981  0.80738  0.87342  1.0000
  F   F117      1.0  0.35884  0.29387  0.37815  1.0000
  F   F118      1.0  0.34783  0.30316  0.88457  1.0000
  F   F119      1.0  0.34844  0.79318  0.38029  1.0000
  F   F120      1.0  0.34284  0.81810  0.87346  1.0000
  F   F121      1.0  0.59795  0.30687  0.38142  1.0000
  F   F122      1.0  0.59366  0.30081  0.86803  1.0000
  F   F123      1.0  0.59760  0.80335  0.37044  1.0000
  F   F124      1.0  0.60409  0.79632  0.86462  1.0000
  F   F125      1.0  0.84091  0.31983  0.37738  1.0000
  F   F126      1.0  0.84892  0.29790  0.86923  1.0000
  F   F127      1.0  0.85294  0.81264  0.34733  1.0000
  F   F128      1.0  0.84770  0.80384  0.89080  1.0000
  F   F129      1.0  0.06516  0.25366  0.13322  1.0000
  F   F130      1.0  0.07639  0.26666  0.61863  1.0000
  F   F131      1.0  0.06819  0.74908  0.14755  1.0000
  F   F132      1.0  0.06618  0.74706  0.64204  1.0000
  F   F133      1.0  0.30337  0.23872  0.16163  1.0000
  F   F134      1.0  0.31991  0.24270  0.63915  1.0000
  F   F135      1.0  0.32155  0.75102  0.13412  1.0000
  F   F136      1.0  0.32538  0.75074  0.62391  1.0000
  F   F137      1.0  0.57188  0.25019  0.13499  1.0000
  F   F138      1.0  0.55807  0.24899  0.64416  1.0000
  F   F139      1.0  0.57193  0.74885  0.13419  1.0000
  F   F140      1.0  0.56051  0.74202  0.66072  1.0000
  F   F141      1.0  0.80318  0.24367  0.17033  1.0000
  F   F142      1.0  0.80782  0.24904  0.65790  1.0000
  F   F143      1.0  0.81577  0.75175  0.13819  1.0000
  F   F144      1.0  0.81223  0.75600  0.63730  1.0000
  F   F145      1.0  0.12745  0.38640  0.10334  1.0000
  F   F146      1.0  0.12803  0.35816  0.60772  1.0000
  F   F147      1.0  0.12373  0.86767  0.11853  1.0000
  F   F148      1.0  0.12588  0.88233  0.59682  1.0000
  F   F149      1.0  0.37216  0.33133  0.11607  1.0000
  F   F150      1.0  0.37236  0.35949  0.62196  1.0000
  F   F151      1.0  0.37499  0.88262  0.11491  1.0000
  F   F152      1.0  0.37265  0.87750  0.59870  1.0000
  F   F153      1.0  0.62492  0.36856  0.10599  1.0000
  F   F154      1.0  0.62018  0.36413  0.61130  1.0000
  F   F155      1.0  0.62459  0.88422  0.09273  1.0000
  F   F156      1.0  0.62331  0.88093  0.58628  1.0000
  F   F157      1.0  0.86576  0.35346  0.12606  1.0000
  F   F158      1.0  0.87645  0.36052  0.60336  1.0000
  F   F159      1.0  0.87714  0.85861  0.12032  1.0000
  F   F160      1.0  0.86910  0.87933  0.60418  1.0000
  F   F161      1.0  0.18561  0.24587  0.35595  1.0000
  F   F162      1.0  0.18403  0.24421  0.86592  1.0000
  F   F163      1.0  0.18078  0.73867  0.35414  1.0000
  F   F164      1.0  0.18849  0.75047  0.85210  1.0000
  F   F165      1.0  0.44024  0.25554  0.34871  1.0000
  F   F166      1.0  0.43780  0.23673  0.86977  1.0000
  F   F167      1.0  0.43319  0.74410  0.36143  1.0000
  F   F168      1.0  0.42764  0.75078  0.86433  1.0000
  F   F169      1.0  0.69568  0.26534  0.34000  1.0000
  F   F170      1.0  0.67497  0.26000  0.88734  1.0000
  F   F171      1.0  0.68068  0.75100  0.37375  1.0000
  F   F172      1.0  0.68469  0.74393  0.87304  1.0000
  F   F173      1.0  0.93351  0.25364  0.35816  1.0000
  F   F174      1.0  0.94396  0.25214  0.83689  1.0000
  F   F175      1.0  0.94300  0.76923  0.34452  1.0000
  F   F176      1.0  0.93326  0.74726  0.86879  1.0000
  F   F177      1.0  0.12823  0.14732  0.36734  1.0000
  F   F178      1.0  0.12526  0.11335  0.90358  1.0000
  F   F179      1.0  0.12738  0.60956  0.39017  1.0000
  F   F180      1.0  0.12489  0.63047  0.89888  1.0000
  F   F181      1.0  0.37732  0.12745  0.39997  1.0000
  F   F182      1.0  0.37885  0.15293  0.87711  1.0000
  F   F183      1.0  0.37281  0.61580  0.41360  1.0000
  F   F184      1.0  0.37370  0.63814  0.87558  1.0000
  F   F185      1.0  0.63417  0.15017  0.36317  1.0000
  F   F186      1.0  0.62498  0.12986  0.89670  1.0000
  F   F187      1.0  0.62171  0.62363  0.40180  1.0000
  F   F188      1.0  0.62947  0.62304  0.90888  1.0000
  F   F189      1.0  0.87143  0.14563  0.39771  1.0000
  F   F190      1.0  0.87711  0.12601  0.90059  1.0000
  F   F191      1.0  0.87535  0.63836  0.38337  1.0000
  F   F192      1.0  0.87990  0.64654  0.87228  1.0000
  F   F193      1.0  0.00778  0.36280  0.05743  1.0000
  F   F194      1.0  0.00634  0.36155  0.57015  1.0000
  F   F195      1.0  0.01028  0.84953  0.07541  1.0000
  F   F196      1.0  0.00895  0.85720  0.58289  1.0000
  F   F197      1.0  0.26115  0.36874  0.04938  1.0000
  F   F198      1.0  0.25045  0.36466  0.57489  1.0000
  F   F199      1.0  0.26075  0.85897  0.08022  1.0000
  F   F200      1.0  0.26038  0.85416  0.57063  1.0000
  F   F201      1.0  0.50158  0.35076  0.10329  1.0000
  F   F202      1.0  0.50355  0.36388  0.58128  1.0000
  F   F203      1.0  0.49986  0.83914  0.11490  1.0000
  F   F204      1.0  0.50684  0.86225  0.58083  1.0000
  F   F205      1.0  0.75688  0.37443  0.04942  1.0000
  F   F206      1.0  0.75314  0.36549  0.58287  1.0000
  F   F207      1.0  0.76016  0.86549  0.04682  1.0000
  F   F208      1.0  0.75151  0.87375  0.55980  1.0000
  F   F209      1.0  0.06382  0.48624  0.17862  1.0000
  F   F210      1.0  0.06639  0.48095  0.68059  1.0000
  F   F211      1.0  0.07490  0.98138  0.17519  1.0000
  F   F212      1.0  0.06600  0.98573  0.67529  1.0000
  F   F213      1.0  0.32884  0.47513  0.16012  1.0000
  F   F214      1.0  0.32672  0.48490  0.65677  1.0000
  F   F215      1.0  0.30956  0.98885  0.18242  1.0000
  F   F216      1.0  0.31373  0.98284  0.68133  1.0000
  F   F217      1.0  0.56384  0.48559  0.17607  1.0000
  F   F218      1.0  0.56321  0.49218  0.68340  1.0000
  F   F219      1.0  0.57164  0.98799  0.17242  1.0000
  F   F220      1.0  0.56981  0.98714  0.67886  1.0000
  F   F221      1.0  0.82397  0.49095  0.16012  1.0000
  F   F222      1.0  0.82596  0.49099  0.65682  1.0000
  F   F223      1.0  0.81787  0.97849  0.16225  1.0000
  F   F224      1.0  0.81372  0.97278  0.69244  1.0000
  F   F225      1.0  0.24688  0.13512  0.42281  1.0000
  F   F226      1.0  0.23793  0.12898  0.93254  1.0000
  F   F227      1.0  0.24242  0.62295  0.42179  1.0000
  F   F228      1.0  0.24278  0.64289  0.92257  1.0000
  F   F229      1.0  0.49551  0.13867  0.42607  1.0000
  F   F230      1.0  0.48758  0.12572  0.94504  1.0000
  F   F231      1.0  0.49304  0.62335  0.43527  1.0000
  F   F232      1.0  0.49303  0.64600  0.91698  1.0000
  F   F233      1.0  0.73861  0.13609  0.43222  1.0000
  F   F234      1.0  0.74206  0.15193  0.91237  1.0000
  F   F235      1.0  0.74505  0.64033  0.42317  1.0000
  F   F236      1.0  0.74410  0.64360  0.91303  1.0000
  F   F237      1.0  0.99100  0.13897  0.42423  1.0000
  F   F238      1.0  0.99385  0.14297  0.92282  1.0000
  F   F239      1.0  0.99094  0.64696  0.41560  1.0000
  F   F240      1.0  0.99715  0.65401  0.91227  1.0000
  F   F241      1.0  0.18408  0.01682  0.32066  1.0000
  F   F242      1.0  0.18210  0.01097  0.82775  1.0000
  F   F243      1.0  0.18877  0.50614  0.30610  1.0000
  F   F244      1.0  0.17575  0.51245  0.82621  1.0000
  F   F245      1.0  0.42801  0.01272  0.33983  1.0000
  F   F246      1.0  0.42462  0.01228  0.83235  1.0000
  F   F247      1.0  0.43358  0.52982  0.30479  1.0000
  F   F248      1.0  0.43115  0.51269  0.82883  1.0000
  F   F249      1.0  0.68711  0.02122  0.31729  1.0000
  F   F250      1.0  0.68017  0.02492  0.82314  1.0000
  F   F251      1.0  0.68499  0.52460  0.31582  1.0000
  F   F252      1.0  0.68785  0.51661  0.80936  1.0000
  F   F253      1.0  0.92863  0.01359  0.32465  1.0000
  F   F254      1.0  0.93209  0.01922  0.82302  1.0000
  F   F255      1.0  0.93672  0.52132  0.31757  1.0000
  F   F256      1.0  0.93264  0.50740  0.84147  1.0000
  F   F257      1.0  0.99720  0.24525  0.00233  1.0000
  F   F258      1.0  0.00201  0.24166  0.50197  1.0000
  F   F259      1.0  0.99714  0.74030  0.99849  1.0000
  F   F260      1.0  0.99854  0.73690  0.50595  1.0000
  F   F261      1.0  0.24913  0.23597  0.01231  1.0000
  F   F262      1.0  0.25261  0.27032  0.47026  1.0000
  F   F263      1.0  0.24800  0.74342  0.01381  1.0000
  F   F264      1.0  0.24939  0.75354  0.48564  1.0000
  F   F265      1.0  0.50189  0.26417  0.98937  1.0000
  F   F266      1.0  0.49634  0.25903  0.49470  1.0000
  F   F267      1.0  0.50112  0.76199  0.99511  1.0000
  F   F268      1.0  0.49961  0.75989  0.49327  1.0000
  F   F269      1.0  0.74491  0.23452  0.00836  1.0000
  F   F270      1.0  0.74038  0.24283  0.52422  1.0000
  F   F271      1.0  0.75082  0.72873  0.00986  1.0000
  F   F272      1.0  0.74994  0.75427  0.49130  1.0000
  F   F273      1.0  0.12960  0.99302  0.24730  1.0000
  F   F274      1.0  0.12442  0.00385  0.75437  1.0000
  F   F275      1.0  0.13049  0.49608  0.23472  1.0000
  F   F276      1.0  0.12991  0.49600  0.74467  1.0000
  F   F277      1.0  0.37003  0.98488  0.26047  1.0000
  F   F278      1.0  0.37746  0.00957  0.74553  1.0000
  F   F279      1.0  0.37865  0.50100  0.24266  1.0000
  F   F280      1.0  0.37124  0.49182  0.75459  1.0000
  F   F281      1.0  0.62260  0.00085  0.25087  1.0000
  F   F282      1.0  0.62514  0.99708  0.75505  1.0000
  F   F283      1.0  0.62817  0.50280  0.26475  1.0000
  F   F284      1.0  0.61667  0.50204  0.76911  1.0000
  F   F285      1.0  0.86799  0.99980  0.26125  1.0000
  F   F286      1.0  0.88561  0.00880  0.73501  1.0000
  F   F287      1.0  0.88051  0.50814  0.23821  1.0000
  F   F288      1.0  0.88895  0.51558  0.72944  1.0000
  F   F289      1.0  0.04543  0.02581  0.02406  1.0000
  F   F290      1.0  0.04996  0.03906  0.51968  1.0000
  F   F291      1.0  0.04281  0.53114  0.02069  1.0000
  F   F292      1.0  0.03727  0.52916  0.53279  1.0000
  F   F293      1.0  0.29325  0.03433  0.02472  1.0000
  F   F294      1.0  0.29891  0.02818  0.50334  1.0000
  F   F295      1.0  0.29207  0.52562  0.03235  1.0000
  F   F296      1.0  0.29071  0.52402  0.53967  1.0000
  F   F297      1.0  0.54143  0.02096  0.02673  1.0000
  F   F298      1.0  0.55072  0.02420  0.52521  1.0000
  F   F299      1.0  0.53736  0.53804  0.02987  1.0000
  F   F300      1.0  0.54661  0.52862  0.52468  1.0000
  F   F301      1.0  0.79365  0.04093  0.01465  1.0000
  F   F302      1.0  0.80173  0.02316  0.51389  1.0000
  F   F303      1.0  0.79730  0.53824  0.00897  1.0000
  F   F304      1.0  0.80103  0.53068  0.50165  1.0000
  F   F305      1.0  0.23718  0.40149  0.22013  1.0000
  F   F306      1.0  0.23069  0.40960  0.72088  1.0000
  F   F307      1.0  0.23249  0.90719  0.23713  1.0000
  F   F308      1.0  0.23299  0.92280  0.71624  1.0000
  F   F309      1.0  0.48196  0.41671  0.23553  1.0000
  F   F310      1.0  0.48288  0.41624  0.72316  1.0000
  F   F311      1.0  0.48813  0.90234  0.24376  1.0000
  F   F312      1.0  0.48615  0.92435  0.72732  1.0000
  F   F313      1.0  0.73602  0.42276  0.21116  1.0000
  F   F314      1.0  0.73824  0.42390  0.71838  1.0000
  F   F315      1.0  0.73516  0.91140  0.21485  1.0000
  F   F316      1.0  0.73529  0.91134  0.72878  1.0000
  F   F317      1.0  0.98108  0.41842  0.20948  1.0000
  F   F318      1.0  0.98070  0.42177  0.72282  1.0000
  F   F319      1.0  0.99025  0.93342  0.21893  1.0000
  F   F320      1.0  0.98611  0.90682  0.72829  1.0000
  F   F321      1.0  0.19934  0.45896  0.47917  1.0000
  F   F322      1.0  0.21418  0.47186  0.95853  1.0000
  F   F323      1.0  0.20832  0.96431  0.47779  1.0000
  F   F324      1.0  0.21076  0.95978  0.97429  1.0000
  F   F325      1.0  0.44701  0.47398  0.48624  1.0000
  F   F326      1.0  0.45531  0.47058  0.98115  1.0000
  F   F327      1.0  0.45486  0.96403  0.48264  1.0000
  F   F328      1.0  0.46073  0.95387  0.99265  1.0000
  F   F329      1.0  0.70385  0.48156  0.48265  1.0000
  F   F330      1.0  0.69915  0.48366  0.98206  1.0000
  F   F331      1.0  0.69908  0.98741  0.47846  1.0000
  F   F332      1.0  0.69564  0.99116  0.99208  1.0000
  F   F333      1.0  0.96078  0.47452  0.47210  1.0000
  F   F334      1.0  0.95572  0.45946  0.98506  1.0000
  F   F335      1.0  0.95380  0.96425  0.49486  1.0000
  F   F336      1.0  0.95834  0.97345  0.97219  1.0000
  F   F337      1.0  0.00826  0.08141  0.26707  1.0000
  F   F338      1.0  0.01832  0.09563  0.75532  1.0000
  F   F339      1.0  0.01308  0.58726  0.27596  1.0000
  F   F340      1.0  0.01797  0.59277  0.76361  1.0000
  F   F341      1.0  0.26829  0.07581  0.28541  1.0000
  F   F342      1.0  0.26999  0.09053  0.77211  1.0000
  F   F343      1.0  0.27152  0.56684  0.27173  1.0000
  F   F344      1.0  0.26563  0.58697  0.76028  1.0000
  F   F345      1.0  0.51648  0.10882  0.26214  1.0000
  F   F346      1.0  0.51271  0.07904  0.78336  1.0000
  F   F347      1.0  0.52042  0.58203  0.27302  1.0000
  F   F348      1.0  0.51536  0.58427  0.77736  1.0000
  F   F349      1.0  0.76995  0.07663  0.27422  1.0000
  F   F350      1.0  0.76205  0.09273  0.78109  1.0000
  F   F351      1.0  0.76930  0.59649  0.27070  1.0000
  F   F352      1.0  0.76892  0.59417  0.75305  1.0000
  F   F353      1.0  0.10144  0.41887  0.44744  1.0000
  F   F354      1.0  0.09861  0.41879  0.95193  1.0000
  F   F355      1.0  0.09876  0.90923  0.45527  1.0000
  F   F356      1.0  0.10204  0.90453  0.95997  1.0000
  F   F357      1.0  0.35108  0.40402  0.46734  1.0000
  F   F358      1.0  0.34912  0.41484  0.96210  1.0000
  F   F359      1.0  0.34811  0.92001  0.45659  1.0000
  F   F360      1.0  0.34880  0.92046  0.96801  1.0000
  F   F361      1.0  0.59969  0.40968  0.45693  1.0000
  F   F362      1.0  0.59508  0.41225  0.96701  1.0000
  F   F363      1.0  0.60352  0.91113  0.44485  1.0000
  F   F364      1.0  0.59611  0.90865  0.95205  1.0000
  F   F365      1.0  0.85356  0.38916  0.46392  1.0000
  F   F366      1.0  0.85328  0.40764  0.95979  1.0000
  F   F367      1.0  0.85224  0.88474  0.46425  1.0000
  F   F368      1.0  0.85155  0.92573  0.95450  1.0000
  F   F369      1.0  0.04262  0.29351  0.27977  1.0000
  F   F370      1.0  0.04382  0.29375  0.78579  1.0000
  F   F371      1.0  0.04986  0.79776  0.28641  1.0000
  F   F372      1.0  0.05264  0.79738  0.78330  1.0000
  F   F373      1.0  0.30116  0.30106  0.28594  1.0000
  F   F374      1.0  0.28761  0.29252  0.79991  1.0000
  F   F375      1.0  0.29337  0.78949  0.28929  1.0000
  F   F376      1.0  0.30170  0.77985  0.78387  1.0000
  F   F377      1.0  0.54620  0.29620  0.28558  1.0000
  F   F378      1.0  0.54339  0.29390  0.78540  1.0000
  F   F379      1.0  0.54888  0.79490  0.28905  1.0000
  F   F380      1.0  0.55366  0.79962  0.78717  1.0000
  F   F381      1.0  0.78575  0.30228  0.31645  1.0000
  F   F382      1.0  0.79032  0.31201  0.78638  1.0000
  F   F383      1.0  0.79544  0.79872  0.28400  1.0000
  F   F384      1.0  0.79669  0.79649  0.79236  1.0000
