data_image0
_chemical_formula_structural       Hf96F384
_chemical_formula_sum              "Hf96 F384"
_cell_length_a       31.0527
_cell_length_b       15.5312
_cell_length_c       15.5119
_cell_angle_alpha    63.342
_cell_angle_beta     63.342
_cell_angle_gamma    80.1625

_space_group_name_H-M_alt    "P 1"
_space_group_IT_number       1

loop_
  _space_group_symop_operation_xyz
  'x, y, z'

loop_
  _atom_site_type_symbol
  _atom_site_label
  _atom_site_symmetry_multiplicity
  _atom_site_fract_x
  _atom_site_fract_y
  _atom_site_fract_z
  _atom_site_occupancy
  Hf  Hf1       1.0  0.19617  0.10678  0.37205  1.0000
  Hf  Hf2       1.0  0.19746  0.10533  0.87827  1.0000
  Hf  Hf3       1.0  0.19464  0.61321  0.36948  1.0000
  Hf  Hf4       1.0  0.19168  0.60613  0.88969  1.0000
  Hf  Hf5       1.0  0.44492  0.11348  0.37055  1.0000
  Hf  Hf6       1.0  0.44459  0.09946  0.88700  1.0000
  Hf  Hf7       1.0  0.44601  0.60865  0.37808  1.0000
  Hf  Hf8       1.0  0.44514  0.61053  0.87441  1.0000
  Hf  Hf9       1.0  0.69131  0.10443  0.37878  1.0000
  Hf  Hf10      1.0  0.69564  0.10733  0.87323  1.0000
  Hf  Hf11      1.0  0.69660  0.60958  0.37354  1.0000
  Hf  Hf12      1.0  0.70147  0.60828  0.86569  1.0000
  Hf  Hf13      1.0  0.94558  0.09635  0.37998  1.0000
  Hf  Hf14      1.0  0.95078  0.11346  0.86443  1.0000
  Hf  Hf15      1.0  0.94525  0.60488  0.37634  1.0000
  Hf  Hf16      1.0  0.94407  0.59940  0.88960  1.0000
  Hf  Hf17      1.0  0.04775  0.39319  0.12963  1.0000
  Hf  Hf18      1.0  0.05675  0.39252  0.62719  1.0000
  Hf  Hf19      1.0  0.05856  0.89415  0.11708  1.0000
  Hf  Hf20      1.0  0.05635  0.89932  0.61242  1.0000
  Hf  Hf21      1.0  0.30096  0.39436  0.13171  1.0000
  Hf  Hf22      1.0  0.30130  0.39665  0.62920  1.0000
  Hf  Hf23      1.0  0.30486  0.89653  0.12636  1.0000
  Hf  Hf24      1.0  0.30492  0.89206  0.62602  1.0000
  Hf  Hf25      1.0  0.55250  0.39583  0.12653  1.0000
  Hf  Hf26      1.0  0.55595  0.39040  0.62567  1.0000
  Hf  Hf27      1.0  0.55573  0.89865  0.11724  1.0000
  Hf  Hf28      1.0  0.55460  0.89425  0.62077  1.0000
  Hf  Hf29      1.0  0.79865  0.39370  0.12694  1.0000
  Hf  Hf30      1.0  0.80151  0.38446  0.63006  1.0000
  Hf  Hf31      1.0  0.80325  0.88535  0.12649  1.0000
  Hf  Hf32      1.0  0.80539  0.88465  0.61453  1.0000
  Hf  Hf33      1.0  0.05432  0.18799  0.42127  1.0000
  Hf  Hf34      1.0  0.05588  0.18181  0.91711  1.0000
  Hf  Hf35      1.0  0.05596  0.68429  0.42111  1.0000
  Hf  Hf36      1.0  0.05456  0.68056  0.92314  1.0000
  Hf  Hf37      1.0  0.30515  0.18324  0.41937  1.0000
  Hf  Hf38      1.0  0.30775  0.18714  0.91165  1.0000
  Hf  Hf39      1.0  0.30671  0.68050  0.41427  1.0000
  Hf  Hf40      1.0  0.30417  0.68818  0.92027  1.0000
  Hf  Hf41      1.0  0.55302  0.18226  0.41761  1.0000
  Hf  Hf42      1.0  0.55631  0.17945  0.92187  1.0000
  Hf  Hf43      1.0  0.55693  0.68113  0.41681  1.0000
  Hf  Hf44      1.0  0.55855  0.68431  0.91410  1.0000
  Hf  Hf45      1.0  0.80517  0.17557  0.41692  1.0000
  Hf  Hf46      1.0  0.80905  0.17481  0.92617  1.0000
  Hf  Hf47      1.0  0.80740  0.67132  0.42027  1.0000
  Hf  Hf48      1.0  0.80813  0.68635  0.90943  1.0000
  Hf  Hf49      1.0  0.15619  0.37976  0.33878  1.0000
  Hf  Hf50      1.0  0.16012  0.38801  0.83456  1.0000
  Hf  Hf51      1.0  0.15731  0.89441  0.32996  1.0000
  Hf  Hf52      1.0  0.16118  0.88354  0.83942  1.0000
  Hf  Hf53      1.0  0.41145  0.39150  0.33049  1.0000
  Hf  Hf54      1.0  0.40782  0.39114  0.83607  1.0000
  Hf  Hf55      1.0  0.40762  0.89546  0.33234  1.0000
  Hf  Hf56      1.0  0.41247  0.90016  0.81853  1.0000
  Hf  Hf57      1.0  0.65554  0.38045  0.34422  1.0000
  Hf  Hf58      1.0  0.65713  0.38726  0.83515  1.0000
  Hf  Hf59      1.0  0.65755  0.88866  0.32954  1.0000
  Hf  Hf60      1.0  0.66710  0.89280  0.81685  1.0000
  Hf  Hf61      1.0  0.90575  0.37975  0.33559  1.0000
  Hf  Hf62      1.0  0.90896  0.39292  0.83417  1.0000
  Hf  Hf63      1.0  0.90901  0.88105  0.32966  1.0000
  Hf  Hf64      1.0  0.91268  0.88918  0.83192  1.0000
  Hf  Hf65      1.0  0.19604  0.31503  0.08308  1.0000
  Hf  Hf66      1.0  0.19827  0.32574  0.57555  1.0000
  Hf  Hf67      1.0  0.19637  0.82404  0.08485  1.0000
  Hf  Hf68      1.0  0.19373  0.81215  0.59114  1.0000
  Hf  Hf69      1.0  0.44125  0.32149  0.07990  1.0000
  Hf  Hf70      1.0  0.44135  0.32336  0.59254  1.0000
  Hf  Hf71      1.0  0.44515  0.80264  0.08800  1.0000
  Hf  Hf72      1.0  0.44253  0.81845  0.58253  1.0000
  Hf  Hf73      1.0  0.69438  0.31242  0.08291  1.0000
  Hf  Hf74      1.0  0.69448  0.31777  0.58076  1.0000
  Hf  Hf75      1.0  0.69258  0.81164  0.08214  1.0000
  Hf  Hf76      1.0  0.69189  0.81417  0.58293  1.0000
  Hf  Hf77      1.0  0.93973  0.30956  0.08838  1.0000
  Hf  Hf78      1.0  0.94502  0.32032  0.58060  1.0000
  Hf  Hf79      1.0  0.94725  0.82274  0.07611  1.0000
  Hf  Hf80      1.0  0.94493  0.81304  0.58606  1.0000
  Hf  Hf81      1.0  0.08844  0.11390  0.16965  1.0000
  Hf  Hf82      1.0  0.09240  0.11662  0.66498  1.0000
  Hf  Hf83      1.0  0.08971  0.61111  0.17200  1.0000
  Hf  Hf84      1.0  0.09459  0.61435  0.66117  1.0000
  Hf  Hf85      1.0  0.33992  0.12194  0.16279  1.0000
  Hf  Hf86      1.0  0.34171  0.12016  0.66103  1.0000
  Hf  Hf87      1.0  0.34082  0.61166  0.16933  1.0000
  Hf  Hf88      1.0  0.34108  0.61419  0.67215  1.0000
  Hf  Hf89      1.0  0.58793  0.10942  0.17163  1.0000
  Hf  Hf90      1.0  0.58947  0.10456  0.67103  1.0000
  Hf  Hf91      1.0  0.59648  0.61732  0.16031  1.0000
  Hf  Hf92      1.0  0.58691  0.61585  0.67082  1.0000
  Hf  Hf93      1.0  0.83982  0.11189  0.16524  1.0000
  Hf  Hf94      1.0  0.83815  0.10442  0.67126  1.0000
  Hf  Hf95      1.0  0.84300  0.61335  0.16006  1.0000
  Hf  Hf96      1.0  0.84361  0.60376  0.66737  1.0000
  F   F1        1.0  0.07461  0.13766  0.30057  1.0000
  F   F2        1.0  0.07865  0.13074  0.80783  1.0000
  F   F3        1.0  0.08059  0.62204  0.30721  1.0000
  F   F4        1.0  0.09157  0.65686  0.79596  1.0000
  F   F5        1.0  0.33511  0.14613  0.29529  1.0000
  F   F6        1.0  0.32024  0.12215  0.81638  1.0000
  F   F7        1.0  0.32598  0.61718  0.30987  1.0000
  F   F8        1.0  0.32834  0.63596  0.80860  1.0000
  F   F9        1.0  0.57471  0.13519  0.30314  1.0000
  F   F10       1.0  0.57479  0.11651  0.81896  1.0000
  F   F11       1.0  0.58858  0.64133  0.28930  1.0000
  F   F12       1.0  0.57718  0.64353  0.79972  1.0000
  F   F13       1.0  0.82902  0.11886  0.30633  1.0000
  F   F14       1.0  0.82199  0.09931  0.82591  1.0000
  F   F15       1.0  0.83238  0.63293  0.29783  1.0000
  F   F16       1.0  0.83534  0.62710  0.78993  1.0000
  F   F17       1.0  0.17942  0.32935  0.45444  1.0000
  F   F18       1.0  0.18433  0.34169  0.95175  1.0000
  F   F19       1.0  0.18071  0.82898  0.44548  1.0000
  F   F20       1.0  0.19063  0.84002  0.94812  1.0000
  F   F21       1.0  0.43620  0.34245  0.44191  1.0000
  F   F22       1.0  0.44164  0.35623  0.92932  1.0000
  F   F23       1.0  0.43626  0.84217  0.45013  1.0000
  F   F24       1.0  0.42803  0.83594  0.95016  1.0000
  F   F25       1.0  0.67288  0.33102  0.46630  1.0000
  F   F26       1.0  0.68599  0.36194  0.93855  1.0000
  F   F27       1.0  0.68236  0.84004  0.43847  1.0000
  F   F28       1.0  0.68443  0.84564  0.93483  1.0000
  F   F29       1.0  0.93340  0.33936  0.45321  1.0000
  F   F30       1.0  0.93249  0.34103  0.94670  1.0000
  F   F31       1.0  0.93762  0.83596  0.44645  1.0000
  F   F32       1.0  0.93905  0.85280  0.94074  1.0000
  F   F33       1.0  0.16806  0.36473  0.19926  1.0000
  F   F34       1.0  0.17869  0.37594  0.68969  1.0000
  F   F35       1.0  0.17226  0.87625  0.19262  1.0000
  F   F36       1.0  0.17095  0.87550  0.69603  1.0000
  F   F37       1.0  0.42289  0.38257  0.18326  1.0000
  F   F38       1.0  0.42279  0.38892  0.68741  1.0000
  F   F39       1.0  0.42066  0.86088  0.19986  1.0000
  F   F40       1.0  0.42473  0.88491  0.68626  1.0000
  F   F41       1.0  0.67677  0.37222  0.19959  1.0000
  F   F42       1.0  0.67406  0.37570  0.69842  1.0000
  F   F43       1.0  0.67203  0.87886  0.19063  1.0000
  F   F44       1.0  0.67666  0.87828  0.68112  1.0000
  F   F45       1.0  0.92190  0.36934  0.19157  1.0000
  F   F46       1.0  0.91872  0.36115  0.71077  1.0000
  F   F47       1.0  0.92522  0.87935  0.18887  1.0000
  F   F48       1.0  0.92313  0.87955  0.68553  1.0000
  F   F49       1.0  0.06713  0.15492  0.04796  1.0000
  F   F50       1.0  0.05594  0.16091  0.56278  1.0000
  F   F51       1.0  0.06747  0.66935  0.05811  1.0000
  F   F52       1.0  0.07320  0.67048  0.54298  1.0000
  F   F53       1.0  0.31865  0.16992  0.05268  1.0000
  F   F54       1.0  0.31508  0.16690  0.54420  1.0000
  F   F55       1.0  0.31418  0.65504  0.05459  1.0000
  F   F56       1.0  0.31982  0.65231  0.54388  1.0000
  F   F57       1.0  0.55872  0.15453  0.06248  1.0000
  F   F58       1.0  0.56346  0.15748  0.55719  1.0000
  F   F59       1.0  0.56274  0.66526  0.04644  1.0000
  F   F60       1.0  0.56509  0.65279  0.55523  1.0000
  F   F61       1.0  0.79871  0.14294  0.07545  1.0000
  F   F62       1.0  0.81955  0.15780  0.53708  1.0000
  F   F63       1.0  0.82221  0.67134  0.03169  1.0000
  F   F64       1.0  0.81995  0.66353  0.54037  1.0000
  F   F65       1.0  0.20842  0.18899  0.20083  1.0000
  F   F66       1.0  0.20698  0.21068  0.70301  1.0000
  F   F67       1.0  0.20493  0.69753  0.20483  1.0000
  F   F68       1.0  0.19629  0.70397  0.71761  1.0000
  F   F69       1.0  0.45142  0.20019  0.19733  1.0000
  F   F70       1.0  0.44780  0.19419  0.70790  1.0000
  F   F71       1.0  0.45925  0.69501  0.21515  1.0000
  F   F72       1.0  0.45065  0.70993  0.70862  1.0000
  F   F73       1.0  0.70674  0.20450  0.19697  1.0000
  F   F74       1.0  0.69897  0.20751  0.71556  1.0000
  F   F75       1.0  0.70403  0.69921  0.20756  1.0000
  F   F76       1.0  0.69643  0.69725  0.71398  1.0000
  F   F77       1.0  0.95629  0.19808  0.21130  1.0000
  F   F78       1.0  0.95731  0.20126  0.70786  1.0000
  F   F79       1.0  0.95240  0.71171  0.20723  1.0000
  F   F80       1.0  0.95660  0.69724  0.72378  1.0000
  F   F81       1.0  0.15067  0.07815  0.05171  1.0000
  F   F82       1.0  0.14927  0.09685  0.53094  1.0000
  F   F83       1.0  0.14855  0.58429  0.06197  1.0000
  F   F84       1.0  0.15022  0.57801  0.53396  1.0000
  F   F85       1.0  0.39868  0.08701  0.03542  1.0000
  F   F86       1.0  0.40404  0.10529  0.53065  1.0000
  F   F87       1.0  0.39845  0.61086  0.03850  1.0000
  F   F88       1.0  0.40164  0.58530  0.54151  1.0000
  F   F89       1.0  0.64388  0.08524  0.05061  1.0000
  F   F90       1.0  0.64963  0.08948  0.53931  1.0000
  F   F91       1.0  0.64983  0.61516  0.03273  1.0000
  F   F92       1.0  0.64633  0.59907  0.54156  1.0000
  F   F93       1.0  0.89544  0.10698  0.03484  1.0000
  F   F94       1.0  0.89651  0.09126  0.52915  1.0000
  F   F95       1.0  0.89532  0.58000  0.04056  1.0000
  F   F96       1.0  0.89854  0.60851  0.52648  1.0000
  F   F97       1.0  0.14777  0.19256  0.12992  1.0000
  F   F98       1.0  0.15186  0.19500  0.62662  1.0000
  F   F99       1.0  0.14714  0.69620  0.13223  1.0000
  F   F100      1.0  0.15648  0.68423  0.61286  1.0000
  F   F101      1.0  0.39921  0.20997  0.10804  1.0000
  F   F102      1.0  0.39247  0.20497  0.62680  1.0000
  F   F103      1.0  0.40029  0.69721  0.13441  1.0000
  F   F104      1.0  0.40218  0.68670  0.62372  1.0000
  F   F105      1.0  0.65320  0.20127  0.10952  1.0000
  F   F106      1.0  0.65444  0.18011  0.62842  1.0000
  F   F107      1.0  0.65292  0.70148  0.12542  1.0000
  F   F108      1.0  0.64837  0.69779  0.62265  1.0000
  F   F109      1.0  0.90573  0.20171  0.10881  1.0000
  F   F110      1.0  0.89653  0.19051  0.64423  1.0000
  F   F111      1.0  0.90337  0.68432  0.11478  1.0000
  F   F112      1.0  0.90806  0.68802  0.63602  1.0000
  F   F113      1.0  0.09983  0.30052  0.38411  1.0000
  F   F114      1.0  0.09987  0.29736  0.88487  1.0000
  F   F115      1.0  0.09735  0.81605  0.39168  1.0000
  F   F116      1.0  0.10644  0.80101  0.87113  1.0000
  F   F117      1.0  0.35252  0.30785  0.36223  1.0000
  F   F118      1.0  0.34823  0.30603  0.88158  1.0000
  F   F119      1.0  0.34626  0.82116  0.37198  1.0000
  F   F120      1.0  0.35115  0.80506  0.87162  1.0000
  F   F121      1.0  0.59852  0.30040  0.36703  1.0000
  F   F122      1.0  0.59713  0.30866  0.88437  1.0000
  F   F123      1.0  0.60236  0.79381  0.38021  1.0000
  F   F124      1.0  0.60462  0.80237  0.86645  1.0000
  F   F125      1.0  0.84895  0.29877  0.36921  1.0000
  F   F126      1.0  0.85277  0.28808  0.89294  1.0000
  F   F127      1.0  0.85579  0.79526  0.35699  1.0000
  F   F128      1.0  0.84864  0.80845  0.85869  1.0000
  F   F129      1.0  0.05864  0.25362  0.14289  1.0000
  F   F130      1.0  0.06847  0.25869  0.63621  1.0000
  F   F131      1.0  0.05875  0.74537  0.16645  1.0000
  F   F132      1.0  0.06318  0.74754  0.65227  1.0000
  F   F133      1.0  0.30471  0.24490  0.16566  1.0000
  F   F134      1.0  0.30431  0.24606  0.66182  1.0000
  F   F135      1.0  0.31524  0.74664  0.14170  1.0000
  F   F136      1.0  0.31947  0.75328  0.61954  1.0000
  F   F137      1.0  0.56634  0.25469  0.14398  1.0000
  F   F138      1.0  0.56541  0.24964  0.64637  1.0000
  F   F139      1.0  0.57472  0.75195  0.13756  1.0000
  F   F140      1.0  0.55850  0.75413  0.63741  1.0000
  F   F141      1.0  0.81879  0.24903  0.13451  1.0000
  F   F142      1.0  0.81975  0.24406  0.63796  1.0000
  F   F143      1.0  0.81835  0.75377  0.13150  1.0000
  F   F144      1.0  0.82961  0.75232  0.61978  1.0000
  F   F145      1.0  0.11964  0.36460  0.10374  1.0000
  F   F146      1.0  0.12518  0.36689  0.61036  1.0000
  F   F147      1.0  0.12668  0.87121  0.10532  1.0000
  F   F148      1.0  0.11869  0.85973  0.62525  1.0000
  F   F149      1.0  0.36614  0.34802  0.14127  1.0000
  F   F150      1.0  0.37099  0.36843  0.61465  1.0000
  F   F151      1.0  0.37645  0.87183  0.11052  1.0000
  F   F152      1.0  0.37289  0.85550  0.63130  1.0000
  F   F153      1.0  0.62878  0.35938  0.12331  1.0000
  F   F154      1.0  0.62486  0.37507  0.60278  1.0000
  F   F155      1.0  0.62406  0.86144  0.11720  1.0000
  F   F156      1.0  0.62529  0.87739  0.60292  1.0000
  F   F157      1.0  0.87115  0.37383  0.10186  1.0000
  F   F158      1.0  0.87421  0.38947  0.60035  1.0000
  F   F159      1.0  0.87637  0.85256  0.12125  1.0000
  F   F160      1.0  0.87395  0.86773  0.61171  1.0000
  F   F161      1.0  0.19214  0.25084  0.34162  1.0000
  F   F162      1.0  0.18082  0.25480  0.85261  1.0000
  F   F163      1.0  0.17984  0.75717  0.34655  1.0000
  F   F164      1.0  0.18296  0.75197  0.85867  1.0000
  F   F165      1.0  0.44648  0.26481  0.32212  1.0000
  F   F166      1.0  0.42868  0.24181  0.85435  1.0000
  F   F167      1.0  0.43438  0.74885  0.36928  1.0000
  F   F168      1.0  0.43379  0.75246  0.84729  1.0000
  F   F169      1.0  0.69212  0.24589  0.34742  1.0000
  F   F170      1.0  0.67766  0.24721  0.86945  1.0000
  F   F171      1.0  0.69497  0.75485  0.33694  1.0000
  F   F172      1.0  0.69575  0.74799  0.84680  1.0000
  F   F173      1.0  0.93518  0.25457  0.34973  1.0000
  F   F174      1.0  0.93949  0.24402  0.86702  1.0000
  F   F175      1.0  0.93543  0.74427  0.36154  1.0000
  F   F176      1.0  0.94078  0.74644  0.87080  1.0000
  F   F177      1.0  0.12672  0.15717  0.36448  1.0000
  F   F178      1.0  0.12310  0.12093  0.90363  1.0000
  F   F179      1.0  0.12621  0.63608  0.38385  1.0000
  F   F180      1.0  0.12348  0.58384  0.93548  1.0000
  F   F181      1.0  0.37826  0.12908  0.40156  1.0000
  F   F182      1.0  0.37376  0.13126  0.88609  1.0000
  F   F183      1.0  0.37524  0.64635  0.38280  1.0000
  F   F184      1.0  0.37746  0.62806  0.88965  1.0000
  F   F185      1.0  0.62249  0.13750  0.39407  1.0000
  F   F186      1.0  0.62591  0.14523  0.88517  1.0000
  F   F187      1.0  0.62931  0.61559  0.39197  1.0000
  F   F188      1.0  0.62501  0.62006  0.89987  1.0000
  F   F189      1.0  0.87943  0.12657  0.38007  1.0000
  F   F190      1.0  0.87390  0.11244  0.90288  1.0000
  F   F191      1.0  0.87750  0.61840  0.39445  1.0000
  F   F192      1.0  0.87514  0.62680  0.88629  1.0000
  F   F193      1.0  0.00531  0.36431  0.07444  1.0000
  F   F194      1.0  0.00474  0.37623  0.57341  1.0000
  F   F195      1.0  0.01319  0.85666  0.06563  1.0000
  F   F196      1.0  0.01225  0.85975  0.56645  1.0000
  F   F197      1.0  0.25603  0.36016  0.07576  1.0000
  F   F198      1.0  0.26227  0.36947  0.56603  1.0000
  F   F199      1.0  0.25554  0.86376  0.09040  1.0000
  F   F200      1.0  0.26032  0.84798  0.57609  1.0000
  F   F201      1.0  0.50679  0.36209  0.07335  1.0000
  F   F202      1.0  0.50810  0.36011  0.57060  1.0000
  F   F203      1.0  0.51061  0.85292  0.07756  1.0000
  F   F204      1.0  0.50785  0.87926  0.56554  1.0000
  F   F205      1.0  0.76401  0.36828  0.05264  1.0000
  F   F206      1.0  0.75788  0.35104  0.57786  1.0000
  F   F207      1.0  0.75590  0.85000  0.08724  1.0000
  F   F208      1.0  0.75546  0.85285  0.58075  1.0000
  F   F209      1.0  0.06964  0.49204  0.16427  1.0000
  F   F210      1.0  0.06825  0.48864  0.67584  1.0000
  F   F211      1.0  0.07300  0.99222  0.16914  1.0000
  F   F212      1.0  0.06671  0.99433  0.66184  1.0000
  F   F213      1.0  0.32411  0.47923  0.17438  1.0000
  F   F214      1.0  0.32003  0.49471  0.67344  1.0000
  F   F215      1.0  0.31388  0.99123  0.17808  1.0000
  F   F216      1.0  0.32366  0.97995  0.66875  1.0000
  F   F217      1.0  0.58070  0.48832  0.15375  1.0000
  F   F218      1.0  0.56276  0.47964  0.68540  1.0000
  F   F219      1.0  0.56672  0.97785  0.18341  1.0000
  F   F220      1.0  0.56672  0.98584  0.67757  1.0000
  F   F221      1.0  0.81765  0.48335  0.17595  1.0000
  F   F222      1.0  0.81736  0.49068  0.66735  1.0000
  F   F223      1.0  0.82717  0.98352  0.16440  1.0000
  F   F224      1.0  0.81792  0.97786  0.67240  1.0000
  F   F225      1.0  0.23708  0.14223  0.44153  1.0000
  F   F226      1.0  0.24056  0.15607  0.91632  1.0000
  F   F227      1.0  0.24376  0.63386  0.42272  1.0000
  F   F228      1.0  0.23907  0.65023  0.93992  1.0000
  F   F229      1.0  0.49065  0.12410  0.42544  1.0000
  F   F230      1.0  0.48548  0.13294  0.94146  1.0000
  F   F231      1.0  0.49102  0.62135  0.44961  1.0000
  F   F232      1.0  0.49446  0.65296  0.90891  1.0000
  F   F233      1.0  0.74532  0.12443  0.42776  1.0000
  F   F234      1.0  0.73378  0.11877  0.94055  1.0000
  F   F235      1.0  0.73921  0.62401  0.43634  1.0000
  F   F236      1.0  0.74380  0.62532  0.92681  1.0000
  F   F237      1.0  0.98627  0.13605  0.43301  1.0000
  F   F238      1.0  0.99128  0.13079  0.92909  1.0000
  F   F239      1.0  0.99279  0.65616  0.41405  1.0000
  F   F240      1.0  0.99187  0.62127  0.93834  1.0000
  F   F241      1.0  0.17792  0.01135  0.33219  1.0000
  F   F242      1.0  0.18191  0.01327  0.82658  1.0000
  F   F243      1.0  0.17999  0.51385  0.33144  1.0000
  F   F244      1.0  0.18740  0.52632  0.81089  1.0000
  F   F245      1.0  0.43499  0.03234  0.30299  1.0000
  F   F246      1.0  0.43491  0.02796  0.82022  1.0000
  F   F247      1.0  0.43289  0.52560  0.31878  1.0000
  F   F248      1.0  0.43666  0.52623  0.79637  1.0000
  F   F249      1.0  0.68092  0.03057  0.31399  1.0000
  F   F250      1.0  0.67994  0.02254  0.81174  1.0000
  F   F251      1.0  0.68913  0.50855  0.32131  1.0000
  F   F252      1.0  0.68183  0.51432  0.81101  1.0000
  F   F253      1.0  0.92847  0.00888  0.33715  1.0000
  F   F254      1.0  0.93129  0.01507  0.81964  1.0000
  F   F255      1.0  0.93002  0.51229  0.33110  1.0000
  F   F256      1.0  0.93384  0.51419  0.83160  1.0000
  F   F257      1.0  0.99498  0.24464  0.99500  1.0000
  F   F258      1.0  0.99985  0.26103  0.49656  1.0000
  F   F259      1.0  0.99443  0.73936  0.00764  1.0000
  F   F260      1.0  0.99736  0.72914  0.52268  1.0000
  F   F261      1.0  0.25300  0.24894  0.99721  1.0000
  F   F262      1.0  0.24930  0.24120  0.50971  1.0000
  F   F263      1.0  0.25679  0.76496  0.00031  1.0000
  F   F264      1.0  0.24883  0.74268  0.50276  1.0000
  F   F265      1.0  0.49812  0.26823  0.97908  1.0000
  F   F266      1.0  0.49523  0.24127  0.50156  1.0000
  F   F267      1.0  0.49980  0.74674  0.99350  1.0000
  F   F268      1.0  0.49838  0.75495  0.50785  1.0000
  F   F269      1.0  0.74834  0.23477  0.99022  1.0000
  F   F270      1.0  0.74917  0.24659  0.50811  1.0000
  F   F271      1.0  0.75016  0.76092  0.98298  1.0000
  F   F272      1.0  0.74558  0.74891  0.49867  1.0000
  F   F273      1.0  0.11812  0.00226  0.25339  1.0000
  F   F274      1.0  0.11437  0.99795  0.76335  1.0000
  F   F275      1.0  0.12119  0.48853  0.25878  1.0000
  F   F276      1.0  0.11748  0.50696  0.75746  1.0000
  F   F277      1.0  0.38025  0.01055  0.23623  1.0000
  F   F278      1.0  0.37910  0.01999  0.74724  1.0000
  F   F279      1.0  0.37833  0.50595  0.25700  1.0000
  F   F280      1.0  0.36427  0.48956  0.78030  1.0000
  F   F281      1.0  0.61658  0.99744  0.26349  1.0000
  F   F282      1.0  0.62554  0.00249  0.74408  1.0000
  F   F283      1.0  0.62079  0.48302  0.25771  1.0000
  F   F284      1.0  0.61562  0.50093  0.77004  1.0000
  F   F285      1.0  0.88102  0.00599  0.23580  1.0000
  F   F286      1.0  0.87007  0.99613  0.75799  1.0000
  F   F287      1.0  0.87191  0.50010  0.25033  1.0000
  F   F288      1.0  0.87902  0.49281  0.73838  1.0000
  F   F289      1.0  0.03179  0.03503  0.03438  1.0000
  F   F290      1.0  0.04482  0.03725  0.51748  1.0000
  F   F291      1.0  0.03498  0.53425  0.03110  1.0000
  F   F292      1.0  0.04646  0.53477  0.52373  1.0000
  F   F293      1.0  0.29394  0.04360  0.01758  1.0000
  F   F294      1.0  0.29625  0.02944  0.51015  1.0000
  F   F295      1.0  0.28812  0.53858  0.02752  1.0000
  F   F296      1.0  0.29376  0.53737  0.51663  1.0000
  F   F297      1.0  0.54095  0.02854  0.02591  1.0000
  F   F298      1.0  0.54516  0.02732  0.52888  1.0000
  F   F299      1.0  0.53803  0.53811  0.01418  1.0000
  F   F300      1.0  0.54803  0.52729  0.51494  1.0000
  F   F301      1.0  0.79550  0.01570  0.02736  1.0000
  F   F302      1.0  0.79573  0.02396  0.52543  1.0000
  F   F303      1.0  0.79199  0.53703  0.02232  1.0000
  F   F304      1.0  0.79141  0.52318  0.51371  1.0000
  F   F305      1.0  0.23240  0.41672  0.22047  1.0000
  F   F306      1.0  0.23564  0.41504  0.72434  1.0000
  F   F307      1.0  0.23314  0.93539  0.21127  1.0000
  F   F308      1.0  0.23406  0.91371  0.72309  1.0000
  F   F309      1.0  0.48748  0.42452  0.22412  1.0000
  F   F310      1.0  0.48633  0.38800  0.73517  1.0000
  F   F311      1.0  0.48529  0.91338  0.22251  1.0000
  F   F312      1.0  0.48349  0.92521  0.73817  1.0000
  F   F313      1.0  0.73731  0.41641  0.22781  1.0000
  F   F314      1.0  0.73749  0.39750  0.73808  1.0000
  F   F315      1.0  0.73687  0.92378  0.22167  1.0000
  F   F316      1.0  0.73633  0.92105  0.73180  1.0000
  F   F317      1.0  0.98302  0.43114  0.22369  1.0000
  F   F318      1.0  0.98501  0.42708  0.72971  1.0000
  F   F319      1.0  0.99166  0.88865  0.23817  1.0000
  F   F320      1.0  0.99032  0.91149  0.72816  1.0000
  F   F321      1.0  0.20840  0.46694  0.47688  1.0000
  F   F322      1.0  0.20825  0.47818  0.97718  1.0000
  F   F323      1.0  0.19813  0.96230  0.48384  1.0000
  F   F324      1.0  0.20508  0.96922  0.97498  1.0000
  F   F325      1.0  0.45438  0.46123  0.47914  1.0000
  F   F326      1.0  0.44915  0.47894  0.97753  1.0000
  F   F327      1.0  0.45089  0.97182  0.47523  1.0000
  F   F328      1.0  0.46653  0.94767  0.96474  1.0000
  F   F329      1.0  0.70081  0.46306  0.47257  1.0000
  F   F330      1.0  0.70852  0.47572  0.97357  1.0000
  F   F331      1.0  0.70825  0.96379  0.47392  1.0000
  F   F332      1.0  0.70046  0.97311  0.96620  1.0000
  F   F333      1.0  0.96213  0.47000  0.47515  1.0000
  F   F334      1.0  0.95753  0.45777  0.98257  1.0000
  F   F335      1.0  0.95548  0.96769  0.48038  1.0000
  F   F336      1.0  0.95409  0.97175  0.98908  1.0000
  F   F337      1.0  0.01690  0.07272  0.27008  1.0000
  F   F338      1.0  0.01793  0.09316  0.76446  1.0000
  F   F339      1.0  0.01413  0.57912  0.27690  1.0000
  F   F340      1.0  0.02159  0.58860  0.78211  1.0000
  F   F341      1.0  0.26422  0.08257  0.27998  1.0000
  F   F342      1.0  0.26279  0.08245  0.77532  1.0000
  F   F343      1.0  0.26392  0.59130  0.25905  1.0000
  F   F344      1.0  0.26368  0.59622  0.77171  1.0000
  F   F345      1.0  0.51531  0.08906  0.26074  1.0000
  F   F346      1.0  0.51280  0.09135  0.76875  1.0000
  F   F347      1.0  0.52369  0.59369  0.26008  1.0000
  F   F348      1.0  0.51123  0.59476  0.76756  1.0000
  F   F349      1.0  0.76249  0.08728  0.27866  1.0000
  F   F350      1.0  0.76716  0.09070  0.75638  1.0000
  F   F351      1.0  0.76666  0.60104  0.26324  1.0000
  F   F352      1.0  0.76773  0.59551  0.75869  1.0000
  F   F353      1.0  0.09825  0.41070  0.46500  1.0000
  F   F354      1.0  0.10692  0.42214  0.94589  1.0000
  F   F355      1.0  0.09967  0.92455  0.46052  1.0000
  F   F356      1.0  0.10100  0.90922  0.96175  1.0000
  F   F357      1.0  0.35258  0.41979  0.46052  1.0000
  F   F358      1.0  0.35201  0.42415  0.97923  1.0000
  F   F359      1.0  0.35401  0.91772  0.46215  1.0000
  F   F360      1.0  0.35103  0.90573  0.96014  1.0000
  F   F361      1.0  0.59856  0.40669  0.45298  1.0000
  F   F362      1.0  0.60063  0.40568  0.97517  1.0000
  F   F363      1.0  0.60270  0.91814  0.45557  1.0000
  F   F364      1.0  0.59969  0.91513  0.97090  1.0000
  F   F365      1.0  0.84795  0.40442  0.45603  1.0000
  F   F366      1.0  0.85036  0.42282  0.94159  1.0000
  F   F367      1.0  0.84471  0.91160  0.45414  1.0000
  F   F368      1.0  0.85862  0.89905  0.95490  1.0000
  F   F369      1.0  0.04797  0.31151  0.28214  1.0000
  F   F370      1.0  0.05159  0.30101  0.77912  1.0000
  F   F371      1.0  0.06091  0.80379  0.29288  1.0000
  F   F372      1.0  0.04106  0.79497  0.81514  1.0000
  F   F373      1.0  0.28877  0.29430  0.30679  1.0000
  F   F374      1.0  0.29934  0.30020  0.78828  1.0000
  F   F375      1.0  0.30037  0.79404  0.28005  1.0000
  F   F376      1.0  0.29512  0.78809  0.79094  1.0000
  F   F377      1.0  0.54524  0.30460  0.28790  1.0000
  F   F378      1.0  0.55542  0.28924  0.78600  1.0000
  F   F379      1.0  0.54032  0.78921  0.29720  1.0000
  F   F380      1.0  0.54992  0.80343  0.77649  1.0000
  F   F381      1.0  0.79754  0.28782  0.29122  1.0000
  F   F382      1.0  0.80397  0.28521  0.78323  1.0000
  F   F383      1.0  0.79157  0.79624  0.29689  1.0000
  F   F384      1.0  0.78917  0.79368  0.78012  1.0000
