data_image0
_chemical_formula_structural       Hf96F384
_chemical_formula_sum              "Hf96 F384"
_cell_length_a       31.0167
_cell_length_b       15.5057
_cell_length_c       15.4973
_cell_angle_alpha    63.342
_cell_angle_beta     63.342
_cell_angle_gamma    80.1625

_space_group_name_H-M_alt    "P 1"
_space_group_IT_number       1

loop_
  _space_group_symop_operation_xyz
  'x, y, z'

loop_
  _atom_site_type_symbol
  _atom_site_label
  _atom_site_symmetry_multiplicity
  _atom_site_fract_x
  _atom_site_fract_y
  _atom_site_fract_z
  _atom_site_occupancy
  Hf  Hf1       1.0  0.19751  0.10900  0.38119  1.0000
  Hf  Hf2       1.0  0.19386  0.10226  0.87919  1.0000
  Hf  Hf3       1.0  0.19428  0.59703  0.38177  1.0000
  Hf  Hf4       1.0  0.19611  0.60926  0.87318  1.0000
  Hf  Hf5       1.0  0.44284  0.10092  0.38461  1.0000
  Hf  Hf6       1.0  0.44730  0.09713  0.88469  1.0000
  Hf  Hf7       1.0  0.44439  0.60811  0.37336  1.0000
  Hf  Hf8       1.0  0.44738  0.60402  0.87614  1.0000
  Hf  Hf9       1.0  0.69574  0.11580  0.37082  1.0000
  Hf  Hf10      1.0  0.69531  0.11688  0.87053  1.0000
  Hf  Hf11      1.0  0.69426  0.61322  0.37049  1.0000
  Hf  Hf12      1.0  0.69770  0.60998  0.87008  1.0000
  Hf  Hf13      1.0  0.94780  0.11881  0.36078  1.0000
  Hf  Hf14      1.0  0.94347  0.10622  0.87651  1.0000
  Hf  Hf15      1.0  0.94911  0.60896  0.37590  1.0000
  Hf  Hf16      1.0  0.94668  0.60506  0.88120  1.0000
  Hf  Hf17      1.0  0.05224  0.39067  0.13458  1.0000
  Hf  Hf18      1.0  0.05532  0.38689  0.61858  1.0000
  Hf  Hf19      1.0  0.05616  0.88996  0.12945  1.0000
  Hf  Hf20      1.0  0.05542  0.88732  0.62936  1.0000
  Hf  Hf21      1.0  0.30454  0.38729  0.12353  1.0000
  Hf  Hf22      1.0  0.30390  0.38928  0.62348  1.0000
  Hf  Hf23      1.0  0.30312  0.89314  0.12686  1.0000
  Hf  Hf24      1.0  0.30518  0.89318  0.63179  1.0000
  Hf  Hf25      1.0  0.55260  0.39265  0.12711  1.0000
  Hf  Hf26      1.0  0.54749  0.39400  0.63770  1.0000
  Hf  Hf27      1.0  0.55017  0.89144  0.13004  1.0000
  Hf  Hf28      1.0  0.55396  0.89532  0.62916  1.0000
  Hf  Hf29      1.0  0.80388  0.39576  0.12503  1.0000
  Hf  Hf30      1.0  0.80535  0.39626  0.61964  1.0000
  Hf  Hf31      1.0  0.80249  0.90048  0.12322  1.0000
  Hf  Hf32      1.0  0.80439  0.89629  0.61583  1.0000
  Hf  Hf33      1.0  0.05871  0.18240  0.41570  1.0000
  Hf  Hf34      1.0  0.05331  0.18472  0.91702  1.0000
  Hf  Hf35      1.0  0.05747  0.68157  0.41303  1.0000
  Hf  Hf36      1.0  0.05765  0.68199  0.91369  1.0000
  Hf  Hf37      1.0  0.30532  0.18056  0.42246  1.0000
  Hf  Hf38      1.0  0.30592  0.17383  0.92309  1.0000
  Hf  Hf39      1.0  0.30411  0.67835  0.41852  1.0000
  Hf  Hf40      1.0  0.30316  0.68355  0.91868  1.0000
  Hf  Hf41      1.0  0.55349  0.17741  0.42092  1.0000
  Hf  Hf42      1.0  0.55486  0.18152  0.91686  1.0000
  Hf  Hf43      1.0  0.55452  0.68982  0.41519  1.0000
  Hf  Hf44      1.0  0.55609  0.67741  0.91838  1.0000
  Hf  Hf45      1.0  0.80376  0.19179  0.41416  1.0000
  Hf  Hf46      1.0  0.80257  0.18989  0.90887  1.0000
  Hf  Hf47      1.0  0.81056  0.68277  0.41176  1.0000
  Hf  Hf48      1.0  0.80690  0.68939  0.90763  1.0000
  Hf  Hf49      1.0  0.15995  0.38705  0.33418  1.0000
  Hf  Hf50      1.0  0.15840  0.38070  0.84557  1.0000
  Hf  Hf51      1.0  0.16054  0.88629  0.33276  1.0000
  Hf  Hf52      1.0  0.16099  0.89059  0.83268  1.0000
  Hf  Hf53      1.0  0.40510  0.38716  0.33726  1.0000
  Hf  Hf54      1.0  0.40878  0.37518  0.84093  1.0000
  Hf  Hf55      1.0  0.40655  0.88428  0.33786  1.0000
  Hf  Hf56      1.0  0.41021  0.88920  0.83521  1.0000
  Hf  Hf57      1.0  0.65808  0.38635  0.33552  1.0000
  Hf  Hf58      1.0  0.65907  0.39319  0.82739  1.0000
  Hf  Hf59      1.0  0.66132  0.88807  0.33328  1.0000
  Hf  Hf60      1.0  0.65701  0.88711  0.83105  1.0000
  Hf  Hf61      1.0  0.91148  0.40246  0.32255  1.0000
  Hf  Hf62      1.0  0.91064  0.39114  0.83244  1.0000
  Hf  Hf63      1.0  0.91107  0.89328  0.33179  1.0000
  Hf  Hf64      1.0  0.90815  0.88769  0.83383  1.0000
  Hf  Hf65      1.0  0.19438  0.31127  0.08981  1.0000
  Hf  Hf66      1.0  0.19070  0.30555  0.59734  1.0000
  Hf  Hf67      1.0  0.19569  0.81863  0.08008  1.0000
  Hf  Hf68      1.0  0.19659  0.81537  0.58330  1.0000
  Hf  Hf69      1.0  0.44028  0.30983  0.09302  1.0000
  Hf  Hf70      1.0  0.44430  0.32198  0.57466  1.0000
  Hf  Hf71      1.0  0.44387  0.80764  0.08455  1.0000
  Hf  Hf72      1.0  0.44394  0.81913  0.58640  1.0000
  Hf  Hf73      1.0  0.69498  0.32016  0.08306  1.0000
  Hf  Hf74      1.0  0.69587  0.32387  0.57958  1.0000
  Hf  Hf75      1.0  0.69417  0.82580  0.07393  1.0000
  Hf  Hf76      1.0  0.69640  0.81086  0.58583  1.0000
  Hf  Hf77      1.0  0.94126  0.31709  0.08377  1.0000
  Hf  Hf78      1.0  0.94639  0.31294  0.58466  1.0000
  Hf  Hf79      1.0  0.94838  0.82472  0.07446  1.0000
  Hf  Hf80      1.0  0.94799  0.81764  0.58131  1.0000
  Hf  Hf81      1.0  0.09243  0.10754  0.17016  1.0000
  Hf  Hf82      1.0  0.09117  0.10336  0.67264  1.0000
  Hf  Hf83      1.0  0.09495  0.61671  0.15742  1.0000
  Hf  Hf84      1.0  0.08912  0.60374  0.67114  1.0000
  Hf  Hf85      1.0  0.34150  0.10518  0.17232  1.0000
  Hf  Hf86      1.0  0.33807  0.10955  0.67495  1.0000
  Hf  Hf87      1.0  0.34127  0.60705  0.16534  1.0000
  Hf  Hf88      1.0  0.34348  0.61116  0.66931  1.0000
  Hf  Hf89      1.0  0.59081  0.11622  0.16504  1.0000
  Hf  Hf90      1.0  0.59190  0.11942  0.65973  1.0000
  Hf  Hf91      1.0  0.59001  0.61063  0.16757  1.0000
  Hf  Hf92      1.0  0.59317  0.62027  0.65186  1.0000
  Hf  Hf93      1.0  0.84157  0.11689  0.15471  1.0000
  Hf  Hf94      1.0  0.84008  0.11058  0.66575  1.0000
  Hf  Hf95      1.0  0.84000  0.61761  0.16389  1.0000
  Hf  Hf96      1.0  0.84048  0.61064  0.66443  1.0000
  F   F1        1.0  0.08283  0.13049  0.30114  1.0000
  F   F2        1.0  0.07936  0.13041  0.79929  1.0000
  F   F3        1.0  0.08162  0.62508  0.30030  1.0000
  F   F4        1.0  0.07858  0.62371  0.80847  1.0000
  F   F5        1.0  0.32434  0.11392  0.30799  1.0000
  F   F6        1.0  0.33110  0.12513  0.80748  1.0000
  F   F7        1.0  0.33219  0.61652  0.30398  1.0000
  F   F8        1.0  0.33350  0.63456  0.79476  1.0000
  F   F9        1.0  0.57520  0.12267  0.31102  1.0000
  F   F10       1.0  0.57605  0.13517  0.80247  1.0000
  F   F11       1.0  0.57889  0.62876  0.30366  1.0000
  F   F12       1.0  0.58109  0.63716  0.80163  1.0000
  F   F13       1.0  0.82951  0.14554  0.30095  1.0000
  F   F14       1.0  0.82159  0.13447  0.80288  1.0000
  F   F15       1.0  0.83056  0.63546  0.29129  1.0000
  F   F16       1.0  0.82408  0.63232  0.80452  1.0000
  F   F17       1.0  0.18679  0.34780  0.45063  1.0000
  F   F18       1.0  0.19836  0.34699  0.92732  1.0000
  F   F19       1.0  0.18851  0.84988  0.43816  1.0000
  F   F20       1.0  0.17920  0.84121  0.95647  1.0000
  F   F21       1.0  0.43463  0.34566  0.44555  1.0000
  F   F22       1.0  0.42893  0.31220  0.95602  1.0000
  F   F23       1.0  0.43085  0.84071  0.45357  1.0000
  F   F24       1.0  0.43845  0.83595  0.93924  1.0000
  F   F25       1.0  0.68226  0.33952  0.44752  1.0000
  F   F26       1.0  0.68654  0.35072  0.93799  1.0000
  F   F27       1.0  0.69403  0.84670  0.43857  1.0000
  F   F28       1.0  0.69118  0.84435  0.93848  1.0000
  F   F29       1.0  0.93534  0.33798  0.44825  1.0000
  F   F30       1.0  0.93547  0.34324  0.94852  1.0000
  F   F31       1.0  0.93236  0.84255  0.45492  1.0000
  F   F32       1.0  0.93416  0.84717  0.94330  1.0000
  F   F33       1.0  0.17779  0.36932  0.19527  1.0000
  F   F34       1.0  0.16768  0.36113  0.70577  1.0000
  F   F35       1.0  0.17003  0.87847  0.18802  1.0000
  F   F36       1.0  0.17647  0.87320  0.69419  1.0000
  F   F37       1.0  0.41590  0.36722  0.20262  1.0000
  F   F38       1.0  0.41449  0.37110  0.70548  1.0000
  F   F39       1.0  0.42717  0.85798  0.19656  1.0000
  F   F40       1.0  0.42456  0.87651  0.69824  1.0000
  F   F41       1.0  0.66236  0.36883  0.20253  1.0000
  F   F42       1.0  0.67015  0.37702  0.69327  1.0000
  F   F43       1.0  0.66882  0.86449  0.19705  1.0000
  F   F44       1.0  0.67139  0.87038  0.69204  1.0000
  F   F45       1.0  0.91626  0.37023  0.20114  1.0000
  F   F46       1.0  0.92176  0.36713  0.68768  1.0000
  F   F47       1.0  0.91533  0.87194  0.20081  1.0000
  F   F48       1.0  0.91366  0.86631  0.70911  1.0000
  F   F49       1.0  0.06463  0.16101  0.05796  1.0000
  F   F50       1.0  0.06611  0.14548  0.55292  1.0000
  F   F51       1.0  0.06399  0.66950  0.04700  1.0000
  F   F52       1.0  0.06242  0.65324  0.54503  1.0000
  F   F53       1.0  0.31674  0.13914  0.06007  1.0000
  F   F54       1.0  0.30872  0.15574  0.56850  1.0000
  F   F55       1.0  0.31154  0.66552  0.05738  1.0000
  F   F56       1.0  0.31033  0.64988  0.56053  1.0000
  F   F57       1.0  0.55862  0.14719  0.06124  1.0000
  F   F58       1.0  0.55990  0.15639  0.55770  1.0000
  F   F59       1.0  0.55784  0.64616  0.06256  1.0000
  F   F60       1.0  0.56404  0.66301  0.54396  1.0000
  F   F61       1.0  0.81190  0.15850  0.04857  1.0000
  F   F62       1.0  0.80943  0.15406  0.56249  1.0000
  F   F63       1.0  0.81636  0.66387  0.04826  1.0000
  F   F64       1.0  0.81625  0.65647  0.55333  1.0000
  F   F65       1.0  0.20840  0.20233  0.22006  1.0000
  F   F66       1.0  0.19528  0.18752  0.72313  1.0000
  F   F67       1.0  0.20049  0.70194  0.21875  1.0000
  F   F68       1.0  0.20349  0.69309  0.71057  1.0000
  F   F69       1.0  0.45149  0.19503  0.21529  1.0000
  F   F70       1.0  0.44697  0.20639  0.69062  1.0000
  F   F71       1.0  0.45791  0.69083  0.21120  1.0000
  F   F72       1.0  0.45442  0.69740  0.71080  1.0000
  F   F73       1.0  0.71059  0.21487  0.19866  1.0000
  F   F74       1.0  0.70162  0.21238  0.70772  1.0000
  F   F75       1.0  0.70824  0.70878  0.21408  1.0000
  F   F76       1.0  0.70633  0.69456  0.70881  1.0000
  F   F77       1.0  0.95796  0.19100  0.20965  1.0000
  F   F78       1.0  0.95650  0.19255  0.71777  1.0000
  F   F79       1.0  0.95045  0.70288  0.20527  1.0000
  F   F80       1.0  0.95833  0.70395  0.71151  1.0000
  F   F81       1.0  0.14790  0.08259  0.04329  1.0000
  F   F82       1.0  0.14989  0.07915  0.53946  1.0000
  F   F83       1.0  0.15422  0.59985  0.03492  1.0000
  F   F84       1.0  0.14975  0.59933  0.53726  1.0000
  F   F85       1.0  0.40164  0.08835  0.04520  1.0000
  F   F86       1.0  0.39452  0.07941  0.53828  1.0000
  F   F87       1.0  0.39596  0.57512  0.02992  1.0000
  F   F88       1.0  0.39616  0.61000  0.53621  1.0000
  F   F89       1.0  0.64543  0.10531  0.03378  1.0000
  F   F90       1.0  0.64772  0.10390  0.53306  1.0000
  F   F91       1.0  0.64672  0.60850  0.03373  1.0000
  F   F92       1.0  0.65001  0.59061  0.54364  1.0000
  F   F93       1.0  0.89568  0.08484  0.03506  1.0000
  F   F94       1.0  0.89805  0.08487  0.54913  1.0000
  F   F95       1.0  0.89754  0.59029  0.02941  1.0000
  F   F96       1.0  0.90352  0.60975  0.51815  1.0000
  F   F97       1.0  0.15608  0.19757  0.12153  1.0000
  F   F98       1.0  0.15338  0.18538  0.61253  1.0000
  F   F99       1.0  0.15152  0.70585  0.13181  1.0000
  F   F100      1.0  0.14706  0.70650  0.62656  1.0000
  F   F101      1.0  0.39915  0.19022  0.14131  1.0000
  F   F102      1.0  0.39497  0.18998  0.60643  1.0000
  F   F103      1.0  0.39912  0.68744  0.12802  1.0000
  F   F104      1.0  0.40169  0.70065  0.63342  1.0000
  F   F105      1.0  0.65035  0.20003  0.12474  1.0000
  F   F106      1.0  0.64541  0.20564  0.62602  1.0000
  F   F107      1.0  0.65690  0.70672  0.12866  1.0000
  F   F108      1.0  0.65177  0.70220  0.61322  1.0000
  F   F109      1.0  0.90357  0.19057  0.10286  1.0000
  F   F110      1.0  0.90472  0.19162  0.63375  1.0000
  F   F111      1.0  0.89476  0.70735  0.11720  1.0000
  F   F112      1.0  0.89840  0.69642  0.62869  1.0000
  F   F113      1.0  0.09570  0.30850  0.36454  1.0000
  F   F114      1.0  0.09429  0.30125  0.88288  1.0000
  F   F115      1.0  0.09892  0.79901  0.36616  1.0000
  F   F116      1.0  0.10068  0.81022  0.86110  1.0000
  F   F117      1.0  0.34158  0.30111  0.39570  1.0000
  F   F118      1.0  0.35051  0.28561  0.90727  1.0000
  F   F119      1.0  0.34988  0.80208  0.37512  1.0000
  F   F120      1.0  0.34704  0.81583  0.87127  1.0000
  F   F121      1.0  0.59553  0.29326  0.37529  1.0000
  F   F122      1.0  0.60206  0.29934  0.87609  1.0000
  F   F123      1.0  0.59544  0.81158  0.37197  1.0000
  F   F124      1.0  0.59504  0.79774  0.87308  1.0000
  F   F125      1.0  0.84999  0.29910  0.38639  1.0000
  F   F126      1.0  0.84515  0.31309  0.87131  1.0000
  F   F127      1.0  0.85004  0.78689  0.38748  1.0000
  F   F128      1.0  0.84674  0.81081  0.88859  1.0000
  F   F129      1.0  0.06512  0.24851  0.15145  1.0000
  F   F130      1.0  0.06554  0.25057  0.63762  1.0000
  F   F131      1.0  0.07423  0.75768  0.13383  1.0000
  F   F132      1.0  0.05892  0.74047  0.64428  1.0000
  F   F133      1.0  0.31659  0.25059  0.13122  1.0000
  F   F134      1.0  0.29779  0.24450  0.67314  1.0000
  F   F135      1.0  0.31298  0.74723  0.14929  1.0000
  F   F136      1.0  0.31855  0.75173  0.63913  1.0000
  F   F137      1.0  0.56686  0.25386  0.12329  1.0000
  F   F138      1.0  0.55656  0.26158  0.64524  1.0000
  F   F139      1.0  0.57540  0.75820  0.12223  1.0000
  F   F140      1.0  0.57029  0.75359  0.63278  1.0000
  F   F141      1.0  0.81752  0.25861  0.13481  1.0000
  F   F142      1.0  0.81814  0.25615  0.62700  1.0000
  F   F143      1.0  0.80652  0.76070  0.14465  1.0000
  F   F144      1.0  0.79951  0.74885  0.65788  1.0000
  F   F145      1.0  0.12466  0.37257  0.10768  1.0000
  F   F146      1.0  0.12394  0.35926  0.61139  1.0000
  F   F147      1.0  0.12527  0.87592  0.10568  1.0000
  F   F148      1.0  0.12550  0.86808  0.61218  1.0000
  F   F149      1.0  0.37273  0.36676  0.10542  1.0000
  F   F150      1.0  0.37147  0.35055  0.61887  1.0000
  F   F151      1.0  0.37799  0.86366  0.10188  1.0000
  F   F152      1.0  0.37475  0.86356  0.61521  1.0000
  F   F153      1.0  0.62455  0.38286  0.09882  1.0000
  F   F154      1.0  0.61731  0.38431  0.60940  1.0000
  F   F155      1.0  0.62524  0.88533  0.09159  1.0000
  F   F156      1.0  0.62595  0.87153  0.60696  1.0000
  F   F157      1.0  0.87445  0.37036  0.10342  1.0000
  F   F158      1.0  0.87373  0.37532  0.60318  1.0000
  F   F159      1.0  0.87802  0.87714  0.09979  1.0000
  F   F160      1.0  0.87361  0.86601  0.60648  1.0000
  F   F161      1.0  0.17686  0.24598  0.37939  1.0000
  F   F162      1.0  0.18688  0.24711  0.85393  1.0000
  F   F163      1.0  0.18333  0.75223  0.35404  1.0000
  F   F164      1.0  0.17950  0.74294  0.86421  1.0000
  F   F165      1.0  0.43604  0.25261  0.35392  1.0000
  F   F166      1.0  0.44867  0.24334  0.82774  1.0000
  F   F167      1.0  0.43918  0.75381  0.35068  1.0000
  F   F168      1.0  0.44553  0.74601  0.84255  1.0000
  F   F169      1.0  0.68407  0.25807  0.34861  1.0000
  F   F170      1.0  0.68691  0.25198  0.85420  1.0000
  F   F171      1.0  0.67740  0.74729  0.36513  1.0000
  F   F172      1.0  0.68516  0.74737  0.85702  1.0000
  F   F173      1.0  0.93852  0.25829  0.34240  1.0000
  F   F174      1.0  0.93154  0.24992  0.85711  1.0000
  F   F175      1.0  0.94062  0.75845  0.34621  1.0000
  F   F176      1.0  0.93777  0.74808  0.85851  1.0000
  F   F177      1.0  0.12923  0.14837  0.37386  1.0000
  F   F178      1.0  0.11783  0.12924  0.90100  1.0000
  F   F179      1.0  0.12389  0.62141  0.39586  1.0000
  F   F180      1.0  0.12547  0.62538  0.89581  1.0000
  F   F181      1.0  0.37490  0.14794  0.38040  1.0000
  F   F182      1.0  0.37721  0.12786  0.89134  1.0000
  F   F183      1.0  0.37477  0.64165  0.38841  1.0000
  F   F184      1.0  0.37392  0.64898  0.88495  1.0000
  F   F185      1.0  0.62751  0.13814  0.38434  1.0000
  F   F186      1.0  0.62285  0.12789  0.89120  1.0000
  F   F187      1.0  0.62724  0.63545  0.38186  1.0000
  F   F188      1.0  0.62614  0.62995  0.89973  1.0000
  F   F189      1.0  0.87717  0.13781  0.39164  1.0000
  F   F190      1.0  0.87558  0.12980  0.88208  1.0000
  F   F191      1.0  0.87634  0.62375  0.38729  1.0000
  F   F192      1.0  0.87868  0.64751  0.87439  1.0000
  F   F193      1.0  0.00514  0.36533  0.08138  1.0000
  F   F194      1.0  0.01006  0.35639  0.57296  1.0000
  F   F195      1.0  0.00846  0.85437  0.08730  1.0000
  F   F196      1.0  0.00618  0.86742  0.57144  1.0000
  F   F197      1.0  0.25970  0.35950  0.07049  1.0000
  F   F198      1.0  0.25457  0.35708  0.57558  1.0000
  F   F199      1.0  0.26250  0.86111  0.06536  1.0000
  F   F200      1.0  0.25571  0.86121  0.59229  1.0000
  F   F201      1.0  0.50319  0.35927  0.08384  1.0000
  F   F202      1.0  0.50244  0.38461  0.56455  1.0000
  F   F203      1.0  0.51256  0.84092  0.08252  1.0000
  F   F204      1.0  0.51052  0.85935  0.57466  1.0000
  F   F205      1.0  0.75831  0.36249  0.06765  1.0000
  F   F206      1.0  0.75720  0.36252  0.57255  1.0000
  F   F207      1.0  0.75563  0.87888  0.06476  1.0000
  F   F208      1.0  0.75627  0.87516  0.55735  1.0000
  F   F209      1.0  0.07047  0.48929  0.17482  1.0000
  F   F210      1.0  0.06744  0.48025  0.67383  1.0000
  F   F211      1.0  0.07000  0.97635  0.18132  1.0000
  F   F212      1.0  0.06846  0.97238  0.68080  1.0000
  F   F213      1.0  0.31304  0.47917  0.18116  1.0000
  F   F214      1.0  0.32426  0.48315  0.65952  1.0000
  F   F215      1.0  0.32465  0.97646  0.17522  1.0000
  F   F216      1.0  0.31578  0.98133  0.69010  1.0000
  F   F217      1.0  0.56912  0.48863  0.18017  1.0000
  F   F218      1.0  0.56575  0.48980  0.68021  1.0000
  F   F219      1.0  0.56992  0.99581  0.17356  1.0000
  F   F220      1.0  0.57457  0.99279  0.66802  1.0000
  F   F221      1.0  0.81994  0.48932  0.16604  1.0000
  F   F222      1.0  0.82290  0.48769  0.66582  1.0000
  F   F223      1.0  0.81834  0.98324  0.17203  1.0000
  F   F224      1.0  0.81862  0.97974  0.68340  1.0000
  F   F225      1.0  0.24132  0.13706  0.43480  1.0000
  F   F226      1.0  0.24111  0.12672  0.93096  1.0000
  F   F227      1.0  0.23874  0.64002  0.42395  1.0000
  F   F228      1.0  0.24878  0.63623  0.91210  1.0000
  F   F229      1.0  0.48787  0.12954  0.44260  1.0000
  F   F230      1.0  0.49095  0.12032  0.95182  1.0000
  F   F231      1.0  0.49439  0.64876  0.41217  1.0000
  F   F232      1.0  0.48935  0.62204  0.94607  1.0000
  F   F233      1.0  0.74270  0.15106  0.41739  1.0000
  F   F234      1.0  0.73820  0.14564  0.92710  1.0000
  F   F235      1.0  0.74401  0.63520  0.42366  1.0000
  F   F236      1.0  0.73882  0.62064  0.93760  1.0000
  F   F237      1.0  0.99329  0.14643  0.41796  1.0000
  F   F238      1.0  0.99255  0.14242  0.92275  1.0000
  F   F239      1.0  0.99211  0.63522  0.43159  1.0000
  F   F240      1.0  0.98938  0.61940  0.94486  1.0000
  F   F241      1.0  0.18133  0.01175  0.33859  1.0000
  F   F242      1.0  0.18051  0.01340  0.83158  1.0000
  F   F243      1.0  0.18203  0.51334  0.32620  1.0000
  F   F244      1.0  0.18406  0.50827  0.81983  1.0000
  F   F245      1.0  0.42797  0.00711  0.34486  1.0000
  F   F246      1.0  0.43822  0.02092  0.81657  1.0000
  F   F247      1.0  0.41991  0.51564  0.33490  1.0000
  F   F248      1.0  0.43340  0.51083  0.83324  1.0000
  F   F249      1.0  0.68677  0.02632  0.31320  1.0000
  F   F250      1.0  0.68668  0.01594  0.82480  1.0000
  F   F251      1.0  0.67846  0.51740  0.33053  1.0000
  F   F252      1.0  0.68066  0.52036  0.82108  1.0000
  F   F253      1.0  0.92133  0.01634  0.33552  1.0000
  F   F254      1.0  0.93151  0.01882  0.82253  1.0000
  F   F255      1.0  0.94209  0.51492  0.31606  1.0000
  F   F256      1.0  0.93307  0.52111  0.83006  1.0000
  F   F257      1.0  0.99787  0.24469  0.01550  1.0000
  F   F258      1.0  0.00474  0.25744  0.48536  1.0000
  F   F259      1.0  0.99979  0.75230  0.99512  1.0000
  F   F260      1.0  0.99927  0.76115  0.48953  1.0000
  F   F261      1.0  0.24974  0.22564  0.01619  1.0000
  F   F262      1.0  0.24742  0.23167  0.51701  1.0000
  F   F263      1.0  0.24636  0.74150  0.00513  1.0000
  F   F264      1.0  0.25212  0.75428  0.50230  1.0000
  F   F265      1.0  0.49986  0.25118  0.00194  1.0000
  F   F266      1.0  0.50038  0.25417  0.49152  1.0000
  F   F267      1.0  0.50206  0.74759  0.99493  1.0000
  F   F268      1.0  0.49966  0.74618  0.50218  1.0000
  F   F269      1.0  0.75025  0.24821  0.99565  1.0000
  F   F270      1.0  0.74682  0.25248  0.50286  1.0000
  F   F271      1.0  0.75277  0.75451  0.00086  1.0000
  F   F272      1.0  0.74748  0.72763  0.51655  1.0000
  F   F273      1.0  0.12956  0.99921  0.25116  1.0000
  F   F274      1.0  0.12406  0.99656  0.75796  1.0000
  F   F275      1.0  0.13655  0.50186  0.22956  1.0000
  F   F276      1.0  0.12820  0.49776  0.74318  1.0000
  F   F277      1.0  0.38541  0.00560  0.23653  1.0000
  F   F278      1.0  0.37773  0.00734  0.74325  1.0000
  F   F279      1.0  0.36937  0.48533  0.25065  1.0000
  F   F280      1.0  0.37466  0.49950  0.75524  1.0000
  F   F281      1.0  0.62738  0.99816  0.25503  1.0000
  F   F282      1.0  0.62847  0.00569  0.74545  1.0000
  F   F283      1.0  0.62741  0.50834  0.25386  1.0000
  F   F284      1.0  0.61948  0.49851  0.75841  1.0000
  F   F285      1.0  0.86513  0.99972  0.25911  1.0000
  F   F286      1.0  0.87481  0.00751  0.75228  1.0000
  F   F287      1.0  0.88716  0.52103  0.22585  1.0000
  F   F288      1.0  0.88162  0.50707  0.73945  1.0000
  F   F289      1.0  0.03593  0.03492  0.02374  1.0000
  F   F290      1.0  0.04730  0.02395  0.51953  1.0000
  F   F291      1.0  0.04617  0.53037  0.01901  1.0000
  F   F292      1.0  0.04129  0.51820  0.52064  1.0000
  F   F293      1.0  0.28856  0.01799  0.02760  1.0000
  F   F294      1.0  0.29045  0.03333  0.52968  1.0000
  F   F295      1.0  0.29878  0.52959  0.02338  1.0000
  F   F296      1.0  0.29158  0.52915  0.51767  1.0000
  F   F297      1.0  0.54746  0.02567  0.02101  1.0000
  F   F298      1.0  0.55160  0.03246  0.51339  1.0000
  F   F299      1.0  0.54720  0.52256  0.01721  1.0000
  F   F300      1.0  0.55024  0.53104  0.51451  1.0000
  F   F301      1.0  0.79144  0.03561  0.01950  1.0000
  F   F302      1.0  0.79733  0.03611  0.51852  1.0000
  F   F303      1.0  0.79346  0.54220  0.01659  1.0000
  F   F304      1.0  0.79230  0.53118  0.52150  1.0000
  F   F305      1.0  0.23772  0.41261  0.22567  1.0000
  F   F306      1.0  0.23444  0.40931  0.71970  1.0000
  F   F307      1.0  0.23551  0.90808  0.23278  1.0000
  F   F308      1.0  0.23935  0.90557  0.75046  1.0000
  F   F309      1.0  0.48641  0.41940  0.22966  1.0000
  F   F310      1.0  0.48139  0.42493  0.71516  1.0000
  F   F311      1.0  0.48320  0.90867  0.23380  1.0000
  F   F312      1.0  0.48952  0.93324  0.71293  1.0000
  F   F313      1.0  0.73490  0.41603  0.21371  1.0000
  F   F314      1.0  0.73491  0.42032  0.71842  1.0000
  F   F315      1.0  0.73460  0.91613  0.22403  1.0000
  F   F316      1.0  0.73527  0.92705  0.70743  1.0000
  F   F317      1.0  0.98559  0.43359  0.21320  1.0000
  F   F318      1.0  0.98040  0.41743  0.72339  1.0000
  F   F319      1.0  0.97846  0.94442  0.21807  1.0000
  F   F320      1.0  0.98503  0.91204  0.73073  1.0000
  F   F321      1.0  0.20132  0.46720  0.49392  1.0000
  F   F322      1.0  0.20703  0.46751  0.98192  1.0000
  F   F323      1.0  0.20707  0.96514  0.48617  1.0000
  F   F324      1.0  0.20824  0.95975  0.98238  1.0000
  F   F325      1.0  0.44236  0.47980  0.48736  1.0000
  F   F326      1.0  0.46486  0.44498  0.97910  1.0000
  F   F327      1.0  0.46230  0.95686  0.48166  1.0000
  F   F328      1.0  0.46395  0.95856  0.99014  1.0000
  F   F329      1.0  0.71213  0.46222  0.47471  1.0000
  F   F330      1.0  0.70574  0.47317  0.98672  1.0000
  F   F331      1.0  0.70302  0.98354  0.47815  1.0000
  F   F332      1.0  0.70564  0.97905  0.97350  1.0000
  F   F333      1.0  0.95150  0.47075  0.48216  1.0000
  F   F334      1.0  0.96038  0.45295  0.98228  1.0000
  F   F335      1.0  0.95656  0.96933  0.47704  1.0000
  F   F336      1.0  0.96471  0.97275  0.97145  1.0000
  F   F337      1.0  0.01817  0.07713  0.27947  1.0000
  F   F338      1.0  0.01451  0.08733  0.76776  1.0000
  F   F339      1.0  0.01906  0.60661  0.25983  1.0000
  F   F340      1.0  0.01802  0.57240  0.77258  1.0000
  F   F341      1.0  0.26444  0.08754  0.27219  1.0000
  F   F342      1.0  0.26004  0.08982  0.76961  1.0000
  F   F343      1.0  0.26210  0.58114  0.28328  1.0000
  F   F344      1.0  0.26681  0.57564  0.77248  1.0000
  F   F345      1.0  0.51145  0.09384  0.28024  1.0000
  F   F346      1.0  0.51738  0.08905  0.76976  1.0000
  F   F347      1.0  0.51401  0.56773  0.28871  1.0000
  F   F348      1.0  0.51823  0.59578  0.76766  1.0000
  F   F349      1.0  0.76744  0.09951  0.26476  1.0000
  F   F350      1.0  0.76242  0.09254  0.76780  1.0000
  F   F351      1.0  0.76279  0.58331  0.26930  1.0000
  F   F352      1.0  0.76770  0.56956  0.77038  1.0000
  F   F353      1.0  0.10360  0.40735  0.45393  1.0000
  F   F354      1.0  0.10223  0.41049  0.95581  1.0000
  F   F355      1.0  0.09902  0.89690  0.47143  1.0000
  F   F356      1.0  0.09884  0.90719  0.96516  1.0000
  F   F357      1.0  0.34876  0.40193  0.47094  1.0000
  F   F358      1.0  0.34913  0.41363  0.95666  1.0000
  F   F359      1.0  0.34709  0.91387  0.46063  1.0000
  F   F360      1.0  0.35341  0.91681  0.96040  1.0000
  F   F361      1.0  0.60076  0.39559  0.45705  1.0000
  F   F362      1.0  0.60123  0.40012  0.96677  1.0000
  F   F363      1.0  0.60889  0.90568  0.45774  1.0000
  F   F364      1.0  0.60118  0.90240  0.95137  1.0000
  F   F365      1.0  0.85754  0.41580  0.44787  1.0000
  F   F366      1.0  0.85813  0.42630  0.95249  1.0000
  F   F367      1.0  0.84825  0.90949  0.46112  1.0000
  F   F368      1.0  0.85430  0.92601  0.95801  1.0000
  F   F369      1.0  0.04401  0.31169  0.28501  1.0000
  F   F370      1.0  0.04269  0.30015  0.79262  1.0000
  F   F371      1.0  0.03778  0.79763  0.28949  1.0000
  F   F372      1.0  0.04591  0.78758  0.79157  1.0000
  F   F373      1.0  0.29405  0.29591  0.29231  1.0000
  F   F374      1.0  0.30099  0.29733  0.81597  1.0000
  F   F375      1.0  0.30193  0.80017  0.28327  1.0000
  F   F376      1.0  0.30135  0.80970  0.78522  1.0000
  F   F377      1.0  0.54535  0.29065  0.28789  1.0000
  F   F378      1.0  0.54044  0.30780  0.80054  1.0000
  F   F379      1.0  0.54923  0.80089  0.27966  1.0000
  F   F380      1.0  0.54357  0.80489  0.77857  1.0000
  F   F381      1.0  0.79667  0.31570  0.28072  1.0000
  F   F382      1.0  0.79601  0.29949  0.77630  1.0000
  F   F383      1.0  0.80122  0.80275  0.29062  1.0000
  F   F384      1.0  0.79535  0.80433  0.78370  1.0000
