data_image0
_chemical_formula_structural       Hf96F384
_chemical_formula_sum              "Hf96 F384"
_cell_length_a       31.027
_cell_length_b       15.511
_cell_length_c       15.508
_cell_angle_alpha    63.342
_cell_angle_beta     63.342
_cell_angle_gamma    80.1625

_space_group_name_H-M_alt    "P 1"
_space_group_IT_number       1

loop_
  _space_group_symop_operation_xyz
  'x, y, z'

loop_
  _atom_site_type_symbol
  _atom_site_label
  _atom_site_symmetry_multiplicity
  _atom_site_fract_x
  _atom_site_fract_y
  _atom_site_fract_z
  _atom_site_occupancy
  Hf  Hf1       1.0  0.19839  0.10658  0.38165  1.0000
  Hf  Hf2       1.0  0.19803  0.10245  0.87700  1.0000
  Hf  Hf3       1.0  0.19523  0.59933  0.39391  1.0000
  Hf  Hf4       1.0  0.19487  0.60074  0.87530  1.0000
  Hf  Hf5       1.0  0.44680  0.11740  0.36935  1.0000
  Hf  Hf6       1.0  0.44698  0.10954  0.86686  1.0000
  Hf  Hf7       1.0  0.45050  0.61128  0.37475  1.0000
  Hf  Hf8       1.0  0.44207  0.60861  0.87654  1.0000
  Hf  Hf9       1.0  0.69905  0.11398  0.36667  1.0000
  Hf  Hf10      1.0  0.69657  0.10187  0.88612  1.0000
  Hf  Hf11      1.0  0.69677  0.61028  0.37101  1.0000
  Hf  Hf12      1.0  0.69561  0.61315  0.86715  1.0000
  Hf  Hf13      1.0  0.94472  0.10694  0.37715  1.0000
  Hf  Hf14      1.0  0.94444  0.10851  0.87561  1.0000
  Hf  Hf15      1.0  0.94569  0.60514  0.37618  1.0000
  Hf  Hf16      1.0  0.94891  0.61094  0.86856  1.0000
  Hf  Hf17      1.0  0.05176  0.38601  0.13067  1.0000
  Hf  Hf18      1.0  0.05332  0.39184  0.63104  1.0000
  Hf  Hf19      1.0  0.05326  0.88868  0.12234  1.0000
  Hf  Hf20      1.0  0.05303  0.88780  0.63537  1.0000
  Hf  Hf21      1.0  0.30490  0.38778  0.12480  1.0000
  Hf  Hf22      1.0  0.30357  0.38375  0.63369  1.0000
  Hf  Hf23      1.0  0.30277  0.89619  0.12254  1.0000
  Hf  Hf24      1.0  0.30132  0.89193  0.62519  1.0000
  Hf  Hf25      1.0  0.55207  0.39731  0.11630  1.0000
  Hf  Hf26      1.0  0.55207  0.39221  0.63240  1.0000
  Hf  Hf27      1.0  0.55275  0.89641  0.11916  1.0000
  Hf  Hf28      1.0  0.55342  0.89637  0.61479  1.0000
  Hf  Hf29      1.0  0.80280  0.39066  0.12675  1.0000
  Hf  Hf30      1.0  0.80405  0.38926  0.63245  1.0000
  Hf  Hf31      1.0  0.80327  0.89386  0.11969  1.0000
  Hf  Hf32      1.0  0.80771  0.89470  0.61913  1.0000
  Hf  Hf33      1.0  0.05656  0.17919  0.42509  1.0000
  Hf  Hf34      1.0  0.05857  0.17455  0.91370  1.0000
  Hf  Hf35      1.0  0.05639  0.68273  0.41797  1.0000
  Hf  Hf36      1.0  0.05778  0.67369  0.92399  1.0000
  Hf  Hf37      1.0  0.30505  0.18387  0.41858  1.0000
  Hf  Hf38      1.0  0.30851  0.18412  0.91359  1.0000
  Hf  Hf39      1.0  0.30584  0.68448  0.42057  1.0000
  Hf  Hf40      1.0  0.30102  0.67787  0.91830  1.0000
  Hf  Hf41      1.0  0.55837  0.18558  0.40696  1.0000
  Hf  Hf42      1.0  0.55305  0.17653  0.92469  1.0000
  Hf  Hf43      1.0  0.55814  0.69341  0.41138  1.0000
  Hf  Hf44      1.0  0.55553  0.69432  0.90547  1.0000
  Hf  Hf45      1.0  0.80459  0.18560  0.41353  1.0000
  Hf  Hf46      1.0  0.80364  0.17651  0.92329  1.0000
  Hf  Hf47      1.0  0.80582  0.68218  0.41297  1.0000
  Hf  Hf48      1.0  0.80742  0.67679  0.92005  1.0000
  Hf  Hf49      1.0  0.16309  0.39417  0.33419  1.0000
  Hf  Hf50      1.0  0.15681  0.38284  0.84639  1.0000
  Hf  Hf51      1.0  0.15765  0.88552  0.33904  1.0000
  Hf  Hf52      1.0  0.15804  0.87990  0.83871  1.0000
  Hf  Hf53      1.0  0.40650  0.39955  0.32433  1.0000
  Hf  Hf54      1.0  0.41096  0.39417  0.82746  1.0000
  Hf  Hf55      1.0  0.41087  0.89155  0.33393  1.0000
  Hf  Hf56      1.0  0.40654  0.88922  0.83111  1.0000
  Hf  Hf57      1.0  0.65824  0.38593  0.33692  1.0000
  Hf  Hf58      1.0  0.66084  0.38605  0.82719  1.0000
  Hf  Hf59      1.0  0.66088  0.89530  0.32536  1.0000
  Hf  Hf60      1.0  0.66006  0.89295  0.83220  1.0000
  Hf  Hf61      1.0  0.90800  0.38970  0.33114  1.0000
  Hf  Hf62      1.0  0.90681  0.39041  0.83131  1.0000
  Hf  Hf63      1.0  0.91084  0.88753  0.33067  1.0000
  Hf  Hf64      1.0  0.90804  0.88740  0.83371  1.0000
  Hf  Hf65      1.0  0.19344  0.30880  0.09294  1.0000
  Hf  Hf66      1.0  0.19371  0.31062  0.58995  1.0000
  Hf  Hf67      1.0  0.19789  0.81709  0.07612  1.0000
  Hf  Hf68      1.0  0.19463  0.81340  0.58425  1.0000
  Hf  Hf69      1.0  0.44217  0.31034  0.08704  1.0000
  Hf  Hf70      1.0  0.44370  0.31851  0.58475  1.0000
  Hf  Hf71      1.0  0.44065  0.82172  0.08487  1.0000
  Hf  Hf72      1.0  0.44369  0.82820  0.58205  1.0000
  Hf  Hf73      1.0  0.69266  0.32669  0.07844  1.0000
  Hf  Hf74      1.0  0.69430  0.31941  0.58385  1.0000
  Hf  Hf75      1.0  0.69589  0.81882  0.07718  1.0000
  Hf  Hf76      1.0  0.69350  0.82313  0.57935  1.0000
  Hf  Hf77      1.0  0.94348  0.30268  0.08739  1.0000
  Hf  Hf78      1.0  0.94725  0.32152  0.58220  1.0000
  Hf  Hf79      1.0  0.94446  0.81475  0.08364  1.0000
  Hf  Hf80      1.0  0.94406  0.81542  0.58088  1.0000
  Hf  Hf81      1.0  0.09149  0.11052  0.16630  1.0000
  Hf  Hf82      1.0  0.08870  0.11200  0.67391  1.0000
  Hf  Hf83      1.0  0.09056  0.60321  0.17258  1.0000
  Hf  Hf84      1.0  0.09111  0.60949  0.67369  1.0000
  Hf  Hf85      1.0  0.33953  0.10697  0.17149  1.0000
  Hf  Hf86      1.0  0.34395  0.11237  0.65744  1.0000
  Hf  Hf87      1.0  0.33900  0.61751  0.16348  1.0000
  Hf  Hf88      1.0  0.34126  0.61051  0.66901  1.0000
  Hf  Hf89      1.0  0.59311  0.11960  0.15739  1.0000
  Hf  Hf90      1.0  0.59342  0.11405  0.65656  1.0000
  Hf  Hf91      1.0  0.59322  0.60957  0.16836  1.0000
  Hf  Hf92      1.0  0.59157  0.61232  0.66438  1.0000
  Hf  Hf93      1.0  0.83999  0.10658  0.16575  1.0000
  Hf  Hf94      1.0  0.84168  0.11972  0.66517  1.0000
  Hf  Hf95      1.0  0.84046  0.61361  0.16846  1.0000
  Hf  Hf96      1.0  0.84332  0.61460  0.66237  1.0000
  F   F1        1.0  0.08131  0.12643  0.30069  1.0000
  F   F2        1.0  0.08185  0.12068  0.80601  1.0000
  F   F3        1.0  0.08885  0.62441  0.30541  1.0000
  F   F4        1.0  0.08388  0.62721  0.80303  1.0000
  F   F5        1.0  0.31961  0.11861  0.31948  1.0000
  F   F6        1.0  0.34206  0.14931  0.78622  1.0000
  F   F7        1.0  0.33239  0.62877  0.30439  1.0000
  F   F8        1.0  0.32053  0.61440  0.81254  1.0000
  F   F9        1.0  0.57973  0.12253  0.29700  1.0000
  F   F10       1.0  0.57816  0.13376  0.80559  1.0000
  F   F11       1.0  0.58354  0.63662  0.30217  1.0000
  F   F12       1.0  0.57503  0.62686  0.80820  1.0000
  F   F13       1.0  0.83431  0.15067  0.28961  1.0000
  F   F14       1.0  0.82364  0.11781  0.81307  1.0000
  F   F15       1.0  0.83320  0.61741  0.30889  1.0000
  F   F16       1.0  0.83010  0.63624  0.80170  1.0000
  F   F17       1.0  0.18409  0.32717  0.45986  1.0000
  F   F18       1.0  0.18416  0.33818  0.95224  1.0000
  F   F19       1.0  0.18814  0.84390  0.44752  1.0000
  F   F20       1.0  0.18497  0.84094  0.94586  1.0000
  F   F21       1.0  0.43732  0.34960  0.44169  1.0000
  F   F22       1.0  0.43558  0.33506  0.94077  1.0000
  F   F23       1.0  0.43791  0.85745  0.44152  1.0000
  F   F24       1.0  0.42502  0.84738  0.94981  1.0000
  F   F25       1.0  0.68675  0.35574  0.44799  1.0000
  F   F26       1.0  0.68831  0.35049  0.94134  1.0000
  F   F27       1.0  0.68573  0.84506  0.43800  1.0000
  F   F28       1.0  0.68935  0.85353  0.93716  1.0000
  F   F29       1.0  0.93406  0.32746  0.46043  1.0000
  F   F30       1.0  0.93050  0.33588  0.95190  1.0000
  F   F31       1.0  0.94327  0.85444  0.44091  1.0000
  F   F32       1.0  0.92602  0.84129  0.95343  1.0000
  F   F33       1.0  0.17250  0.36722  0.19884  1.0000
  F   F34       1.0  0.16678  0.36189  0.70813  1.0000
  F   F35       1.0  0.17136  0.85705  0.20494  1.0000
  F   F36       1.0  0.17036  0.85428  0.70544  1.0000
  F   F37       1.0  0.41916  0.37955  0.18316  1.0000
  F   F38       1.0  0.42908  0.39061  0.68622  1.0000
  F   F39       1.0  0.42233  0.88226  0.19465  1.0000
  F   F40       1.0  0.41724  0.88807  0.68726  1.0000
  F   F41       1.0  0.66536  0.37038  0.20498  1.0000
  F   F42       1.0  0.67945  0.39380  0.67785  1.0000
  F   F43       1.0  0.66952  0.87572  0.19141  1.0000
  F   F44       1.0  0.66934  0.86883  0.69650  1.0000
  F   F45       1.0  0.92564  0.37529  0.19531  1.0000
  F   F46       1.0  0.92232  0.37478  0.69431  1.0000
  F   F47       1.0  0.92249  0.85214  0.20209  1.0000
  F   F48       1.0  0.91468  0.85574  0.70950  1.0000
  F   F49       1.0  0.06335  0.15676  0.05274  1.0000
  F   F50       1.0  0.06205  0.15109  0.56073  1.0000
  F   F51       1.0  0.06596  0.65316  0.05712  1.0000
  F   F52       1.0  0.07275  0.67006  0.54446  1.0000
  F   F53       1.0  0.31224  0.15756  0.05313  1.0000
  F   F54       1.0  0.32526  0.17373  0.53048  1.0000
  F   F55       1.0  0.31691  0.67540  0.04466  1.0000
  F   F56       1.0  0.31786  0.65261  0.55518  1.0000
  F   F57       1.0  0.55447  0.15856  0.05751  1.0000
  F   F58       1.0  0.56815  0.15701  0.53572  1.0000
  F   F59       1.0  0.56770  0.66521  0.04832  1.0000
  F   F60       1.0  0.56450  0.66008  0.55664  1.0000
  F   F61       1.0  0.80829  0.14345  0.06249  1.0000
  F   F62       1.0  0.82348  0.16821  0.53587  1.0000
  F   F63       1.0  0.80522  0.65355  0.05967  1.0000
  F   F64       1.0  0.81349  0.65925  0.55447  1.0000
  F   F65       1.0  0.19893  0.19982  0.21263  1.0000
  F   F66       1.0  0.20532  0.19073  0.71749  1.0000
  F   F67       1.0  0.19477  0.70112  0.21104  1.0000
  F   F68       1.0  0.19655  0.69678  0.71126  1.0000
  F   F69       1.0  0.45315  0.19942  0.20986  1.0000
  F   F70       1.0  0.44229  0.20019  0.71579  1.0000
  F   F71       1.0  0.44704  0.70977  0.20854  1.0000
  F   F72       1.0  0.45947  0.71562  0.70961  1.0000
  F   F73       1.0  0.71183  0.21357  0.20183  1.0000
  F   F74       1.0  0.69301  0.21098  0.71751  1.0000
  F   F75       1.0  0.69646  0.70546  0.21247  1.0000
  F   F76       1.0  0.70586  0.70934  0.71040  1.0000
  F   F77       1.0  0.95133  0.20228  0.22403  1.0000
  F   F78       1.0  0.96327  0.19871  0.72140  1.0000
  F   F79       1.0  0.95964  0.69453  0.22229  1.0000
  F   F80       1.0  0.95642  0.68734  0.71343  1.0000
  F   F81       1.0  0.15515  0.09028  0.03521  1.0000
  F   F82       1.0  0.14803  0.09865  0.53986  1.0000
  F   F83       1.0  0.15288  0.57375  0.03974  1.0000
  F   F84       1.0  0.15384  0.56914  0.54994  1.0000
  F   F85       1.0  0.39204  0.07943  0.05144  1.0000
  F   F86       1.0  0.40174  0.08849  0.53619  1.0000
  F   F87       1.0  0.39434  0.57927  0.04172  1.0000
  F   F88       1.0  0.40242  0.60083  0.53804  1.0000
  F   F89       1.0  0.66148  0.09160  0.05219  1.0000
  F   F90       1.0  0.65264  0.10292  0.52045  1.0000
  F   F91       1.0  0.64572  0.58019  0.04652  1.0000
  F   F92       1.0  0.64768  0.58948  0.54543  1.0000
  F   F93       1.0  0.89332  0.08109  0.03483  1.0000
  F   F94       1.0  0.90241  0.09734  0.54327  1.0000
  F   F95       1.0  0.89902  0.61626  0.04219  1.0000
  F   F96       1.0  0.90011  0.58963  0.53942  1.0000
  F   F97       1.0  0.14577  0.20660  0.12262  1.0000
  F   F98       1.0  0.15047  0.19618  0.64340  1.0000
  F   F99       1.0  0.15483  0.69982  0.10704  1.0000
  F   F100      1.0  0.14954  0.68774  0.61923  1.0000
  F   F101      1.0  0.39346  0.18898  0.14458  1.0000
  F   F102      1.0  0.40232  0.19412  0.60520  1.0000
  F   F103      1.0  0.40084  0.69947  0.10267  1.0000
  F   F104      1.0  0.40344  0.70884  0.62782  1.0000
  F   F105      1.0  0.64991  0.21316  0.12895  1.0000
  F   F106      1.0  0.65085  0.20423  0.60961  1.0000
  F   F107      1.0  0.65045  0.70050  0.11196  1.0000
  F   F108      1.0  0.65176  0.69130  0.64033  1.0000
  F   F109      1.0  0.90292  0.17571  0.12356  1.0000
  F   F110      1.0  0.89845  0.20760  0.64595  1.0000
  F   F111      1.0  0.90354  0.69732  0.14140  1.0000
  F   F112      1.0  0.90142  0.69521  0.62822  1.0000
  F   F113      1.0  0.09864  0.31393  0.37383  1.0000
  F   F114      1.0  0.09707  0.29810  0.87323  1.0000
  F   F115      1.0  0.09665  0.80466  0.37004  1.0000
  F   F116      1.0  0.09525  0.79752  0.88035  1.0000
  F   F117      1.0  0.34452  0.30873  0.35917  1.0000
  F   F118      1.0  0.35323  0.29947  0.86511  1.0000
  F   F119      1.0  0.35187  0.78691  0.37992  1.0000
  F   F120      1.0  0.34904  0.80647  0.87242  1.0000
  F   F121      1.0  0.59687  0.30943  0.38776  1.0000
  F   F122      1.0  0.60214  0.29341  0.85984  1.0000
  F   F123      1.0  0.60023  0.80400  0.38208  1.0000
  F   F124      1.0  0.58938  0.81588  0.87899  1.0000
  F   F125      1.0  0.84336  0.30200  0.35725  1.0000
  F   F126      1.0  0.84604  0.31594  0.88913  1.0000
  F   F127      1.0  0.84504  0.80125  0.36982  1.0000
  F   F128      1.0  0.84559  0.79648  0.90138  1.0000
  F   F129      1.0  0.05778  0.24577  0.15995  1.0000
  F   F130      1.0  0.07084  0.25197  0.63647  1.0000
  F   F131      1.0  0.06701  0.75191  0.13524  1.0000
  F   F132      1.0  0.05731  0.74447  0.66122  1.0000
  F   F133      1.0  0.31383  0.24104  0.14077  1.0000
  F   F134      1.0  0.31880  0.25421  0.63529  1.0000
  F   F135      1.0  0.31387  0.75865  0.13603  1.0000
  F   F136      1.0  0.31146  0.74796  0.64311  1.0000
  F   F137      1.0  0.56527  0.25575  0.13556  1.0000
  F   F138      1.0  0.56196  0.24337  0.65059  1.0000
  F   F139      1.0  0.56365  0.75431  0.14380  1.0000
  F   F140      1.0  0.56910  0.76057  0.61990  1.0000
  F   F141      1.0  0.82637  0.25133  0.11174  1.0000
  F   F142      1.0  0.81799  0.25120  0.64557  1.0000
  F   F143      1.0  0.82763  0.75433  0.12760  1.0000
  F   F144      1.0  0.81942  0.75781  0.62917  1.0000
  F   F145      1.0  0.12931  0.36418  0.10514  1.0000
  F   F146      1.0  0.12790  0.39268  0.59039  1.0000
  F   F147      1.0  0.12710  0.87168  0.10820  1.0000
  F   F148      1.0  0.12638  0.86554  0.60229  1.0000
  F   F149      1.0  0.37150  0.35692  0.11494  1.0000
  F   F150      1.0  0.37404  0.36553  0.61659  1.0000
  F   F151      1.0  0.36974  0.86566  0.11729  1.0000
  F   F152      1.0  0.37540  0.87708  0.60618  1.0000
  F   F153      1.0  0.62195  0.37674  0.10208  1.0000
  F   F154      1.0  0.62504  0.36225  0.61607  1.0000
  F   F155      1.0  0.62750  0.86999  0.10015  1.0000
  F   F156      1.0  0.62686  0.86998  0.59953  1.0000
  F   F157      1.0  0.87439  0.34537  0.12881  1.0000
  F   F158      1.0  0.87674  0.39883  0.58636  1.0000
  F   F159      1.0  0.87534  0.88983  0.10362  1.0000
  F   F160      1.0  0.87632  0.86946  0.60630  1.0000
  F   F161      1.0  0.19353  0.25062  0.34040  1.0000
  F   F162      1.0  0.18603  0.23999  0.86766  1.0000
  F   F163      1.0  0.18092  0.74598  0.37250  1.0000
  F   F164      1.0  0.18145  0.74059  0.86926  1.0000
  F   F165      1.0  0.43158  0.25690  0.35067  1.0000
  F   F166      1.0  0.43630  0.25486  0.84823  1.0000
  F   F167      1.0  0.43885  0.75008  0.35559  1.0000
  F   F168      1.0  0.42961  0.74732  0.86284  1.0000
  F   F169      1.0  0.68498  0.25437  0.36513  1.0000
  F   F170      1.0  0.67909  0.24123  0.86443  1.0000
  F   F171      1.0  0.68649  0.75059  0.35035  1.0000
  F   F172      1.0  0.66873  0.74892  0.88552  1.0000
  F   F173      1.0  0.92992  0.24818  0.36423  1.0000
  F   F174      1.0  0.92825  0.24518  0.86912  1.0000
  F   F175      1.0  0.93257  0.74717  0.37425  1.0000
  F   F176      1.0  0.93590  0.75426  0.85868  1.0000
  F   F177      1.0  0.12722  0.14728  0.38662  1.0000
  F   F178      1.0  0.12732  0.12210  0.89510  1.0000
  F   F179      1.0  0.12774  0.63108  0.40942  1.0000
  F   F180      1.0  0.12453  0.61766  0.89315  1.0000
  F   F181      1.0  0.37798  0.14177  0.37935  1.0000
  F   F182      1.0  0.37243  0.12848  0.91029  1.0000
  F   F183      1.0  0.37922  0.61588  0.40218  1.0000
  F   F184      1.0  0.37521  0.63736  0.87339  1.0000
  F   F185      1.0  0.62981  0.14423  0.36623  1.0000
  F   F186      1.0  0.62162  0.10776  0.93094  1.0000
  F   F187      1.0  0.62697  0.64394  0.38104  1.0000
  F   F188      1.0  0.62862  0.63958  0.86730  1.0000
  F   F189      1.0  0.87650  0.11754  0.39595  1.0000
  F   F190      1.0  0.87441  0.15659  0.87233  1.0000
  F   F191      1.0  0.88081  0.63487  0.38031  1.0000
  F   F192      1.0  0.87836  0.63544  0.88781  1.0000
  F   F193      1.0  0.00352  0.35571  0.07268  1.0000
  F   F194      1.0  0.00633  0.36368  0.57529  1.0000
  F   F195      1.0  0.00789  0.86041  0.06863  1.0000
  F   F196      1.0  0.00633  0.84966  0.58098  1.0000
  F   F197      1.0  0.25667  0.35823  0.08398  1.0000
  F   F198      1.0  0.25562  0.34807  0.59833  1.0000
  F   F199      1.0  0.25671  0.86443  0.07941  1.0000
  F   F200      1.0  0.25846  0.85458  0.57161  1.0000
  F   F201      1.0  0.50816  0.35874  0.07583  1.0000
  F   F202      1.0  0.50691  0.36008  0.57283  1.0000
  F   F203      1.0  0.50475  0.87126  0.06928  1.0000
  F   F204      1.0  0.51101  0.87589  0.56188  1.0000
  F   F205      1.0  0.75731  0.37209  0.07124  1.0000
  F   F206      1.0  0.76172  0.36195  0.57798  1.0000
  F   F207      1.0  0.76049  0.84615  0.07657  1.0000
  F   F208      1.0  0.75536  0.87196  0.58078  1.0000
  F   F209      1.0  0.06831  0.47432  0.18036  1.0000
  F   F210      1.0  0.06829  0.48729  0.67489  1.0000
  F   F211      1.0  0.06811  0.99262  0.17156  1.0000
  F   F212      1.0  0.06905  0.97944  0.68148  1.0000
  F   F213      1.0  0.32445  0.47978  0.16485  1.0000
  F   F214      1.0  0.32324  0.47854  0.67832  1.0000
  F   F215      1.0  0.31437  0.97186  0.19836  1.0000
  F   F216      1.0  0.31901  0.98025  0.67164  1.0000
  F   F217      1.0  0.56656  0.48986  0.16357  1.0000
  F   F218      1.0  0.57584  0.48019  0.66625  1.0000
  F   F219      1.0  0.57458  0.99080  0.17160  1.0000
  F   F220      1.0  0.57339  0.99226  0.66719  1.0000
  F   F221      1.0  0.82420  0.48645  0.16521  1.0000
  F   F222      1.0  0.81469  0.49464  0.67455  1.0000
  F   F223      1.0  0.81019  0.97672  0.19949  1.0000
  F   F224      1.0  0.81783  0.98982  0.67165  1.0000
  F   F225      1.0  0.23708  0.13724  0.45043  1.0000
  F   F226      1.0  0.24597  0.13954  0.91558  1.0000
  F   F227      1.0  0.24272  0.63288  0.43065  1.0000
  F   F228      1.0  0.24123  0.63731  0.92025  1.0000
  F   F229      1.0  0.49436  0.14220  0.42332  1.0000
  F   F230      1.0  0.48879  0.13358  0.92279  1.0000
  F   F231      1.0  0.49443  0.64066  0.43886  1.0000
  F   F232      1.0  0.48883  0.63576  0.92805  1.0000
  F   F233      1.0  0.73907  0.13939  0.43028  1.0000
  F   F234      1.0  0.74472  0.12586  0.92621  1.0000
  F   F235      1.0  0.74326  0.62764  0.43312  1.0000
  F   F236      1.0  0.73612  0.64778  0.91596  1.0000
  F   F237      1.0  0.99444  0.14799  0.41765  1.0000
  F   F238      1.0  0.99156  0.12699  0.92620  1.0000
  F   F239      1.0  0.99424  0.62071  0.42043  1.0000
  F   F240      1.0  0.99304  0.62581  0.92768  1.0000
  F   F241      1.0  0.18078  0.01497  0.33384  1.0000
  F   F242      1.0  0.18649  0.00604  0.81406  1.0000
  F   F243      1.0  0.17967  0.51337  0.33816  1.0000
  F   F244      1.0  0.17232  0.50502  0.84533  1.0000
  F   F245      1.0  0.42690  0.02268  0.32945  1.0000
  F   F246      1.0  0.43410  0.02120  0.80999  1.0000
  F   F247      1.0  0.43332  0.52223  0.30725  1.0000
  F   F248      1.0  0.42935  0.52083  0.82279  1.0000
  F   F249      1.0  0.68504  0.02061  0.31602  1.0000
  F   F250      1.0  0.68063  0.01937  0.82135  1.0000
  F   F251      1.0  0.68644  0.52165  0.31647  1.0000
  F   F252      1.0  0.68511  0.51309  0.81447  1.0000
  F   F253      1.0  0.93378  0.00948  0.32703  1.0000
  F   F254      1.0  0.93482  0.01791  0.82341  1.0000
  F   F255      1.0  0.92473  0.50112  0.35027  1.0000
  F   F256      1.0  0.92961  0.50735  0.83529  1.0000
  F   F257      1.0  0.00006  0.22919  0.99845  1.0000
  F   F258      1.0  0.00313  0.25879  0.49955  1.0000
  F   F259      1.0  0.99578  0.73896  0.00158  1.0000
  F   F260      1.0  0.99680  0.73204  0.50883  1.0000
  F   F261      1.0  0.25195  0.26471  0.98354  1.0000
  F   F262      1.0  0.25065  0.24708  0.51096  1.0000
  F   F263      1.0  0.25540  0.76597  0.98302  1.0000
  F   F264      1.0  0.24894  0.74260  0.51203  1.0000
  F   F265      1.0  0.50148  0.26940  0.99107  1.0000
  F   F266      1.0  0.49980  0.26312  0.49273  1.0000
  F   F267      1.0  0.49370  0.75708  0.98569  1.0000
  F   F268      1.0  0.50244  0.76359  0.50089  1.0000
  F   F269      1.0  0.74518  0.24452  0.00958  1.0000
  F   F270      1.0  0.74494  0.23491  0.51257  1.0000
  F   F271      1.0  0.74346  0.74631  0.99790  1.0000
  F   F272      1.0  0.74773  0.75075  0.49633  1.0000
  F   F273      1.0  0.12332  0.99717  0.24706  1.0000
  F   F274      1.0  0.12279  0.99741  0.75278  1.0000
  F   F275      1.0  0.13035  0.49794  0.24966  1.0000
  F   F276      1.0  0.12599  0.49442  0.76581  1.0000
  F   F277      1.0  0.36811  0.97761  0.26891  1.0000
  F   F278      1.0  0.36619  0.00915  0.75895  1.0000
  F   F279      1.0  0.37179  0.50332  0.24772  1.0000
  F   F280      1.0  0.37880  0.50177  0.74970  1.0000
  F   F281      1.0  0.62346  0.99595  0.24634  1.0000
  F   F282      1.0  0.62631  0.00579  0.74335  1.0000
  F   F283      1.0  0.62784  0.50383  0.25122  1.0000
  F   F284      1.0  0.62278  0.49766  0.75645  1.0000
  F   F285      1.0  0.87205  0.98666  0.24921  1.0000
  F   F286      1.0  0.88447  0.00691  0.73689  1.0000
  F   F287      1.0  0.87386  0.49430  0.24865  1.0000
  F   F288      1.0  0.86513  0.49966  0.77663  1.0000
  F   F289      1.0  0.04534  0.02891  0.02262  1.0000
  F   F290      1.0  0.04715  0.02115  0.52002  1.0000
  F   F291      1.0  0.04318  0.52491  0.02032  1.0000
  F   F292      1.0  0.04207  0.53229  0.52781  1.0000
  F   F293      1.0  0.28826  0.02744  0.03498  1.0000
  F   F294      1.0  0.28860  0.03022  0.53317  1.0000
  F   F295      1.0  0.28947  0.53224  0.03000  1.0000
  F   F296      1.0  0.29677  0.52649  0.52126  1.0000
  F   F297      1.0  0.53691  0.02187  0.02552  1.0000
  F   F298      1.0  0.54009  0.03533  0.51695  1.0000
  F   F299      1.0  0.54572  0.52926  0.01149  1.0000
  F   F300      1.0  0.54545  0.52566  0.52618  1.0000
  F   F301      1.0  0.79636  0.02941  0.02293  1.0000
  F   F302      1.0  0.79684  0.03466  0.51429  1.0000
  F   F303      1.0  0.78799  0.53616  0.01867  1.0000
  F   F304      1.0  0.79936  0.52872  0.51757  1.0000
  F   F305      1.0  0.23895  0.43688  0.21770  1.0000
  F   F306      1.0  0.23251  0.40753  0.74017  1.0000
  F   F307      1.0  0.23162  0.92533  0.22788  1.0000
  F   F308      1.0  0.23108  0.91282  0.71928  1.0000
  F   F309      1.0  0.48456  0.41089  0.22606  1.0000
  F   F310      1.0  0.48783  0.43221  0.73367  1.0000
  F   F311      1.0  0.48407  0.91450  0.23701  1.0000
  F   F312      1.0  0.48216  0.90078  0.73239  1.0000
  F   F313      1.0  0.73056  0.41587  0.22621  1.0000
  F   F314      1.0  0.73842  0.40299  0.73954  1.0000
  F   F315      1.0  0.73329  0.92214  0.20822  1.0000
  F   F316      1.0  0.73673  0.90951  0.72795  1.0000
  F   F317      1.0  0.98365  0.41587  0.22263  1.0000
  F   F318      1.0  0.98546  0.41407  0.72689  1.0000
  F   F319      1.0  0.98464  0.90799  0.23290  1.0000
  F   F320      1.0  0.98019  0.90868  0.72906  1.0000
  F   F321      1.0  0.21053  0.44837  0.48330  1.0000
  F   F322      1.0  0.21083  0.47136  0.96424  1.0000
  F   F323      1.0  0.21066  0.97139  0.47936  1.0000
  F   F324      1.0  0.21301  0.96469  0.96954  1.0000
  F   F325      1.0  0.46326  0.47869  0.46283  1.0000
  F   F326      1.0  0.45782  0.46755  0.95931  1.0000
  F   F327      1.0  0.45825  0.98069  0.47001  1.0000
  F   F328      1.0  0.45527  0.96978  0.97167  1.0000
  F   F329      1.0  0.71193  0.47796  0.47687  1.0000
  F   F330      1.0  0.70505  0.47078  0.98582  1.0000
  F   F331      1.0  0.70520  0.98047  0.46986  1.0000
  F   F332      1.0  0.71428  0.96465  0.97275  1.0000
  F   F333      1.0  0.95570  0.46594  0.48071  1.0000
  F   F334      1.0  0.93686  0.47759  0.99781  1.0000
  F   F335      1.0  0.94949  0.97071  0.49994  1.0000
  F   F336      1.0  0.96049  0.96082  0.97960  1.0000
  F   F337      1.0  0.01227  0.08249  0.28232  1.0000
  F   F338      1.0  0.01947  0.07783  0.77814  1.0000
  F   F339      1.0  0.01964  0.57296  0.26857  1.0000
  F   F340      1.0  0.01881  0.56827  0.77812  1.0000
  F   F341      1.0  0.25972  0.09376  0.27719  1.0000
  F   F342      1.0  0.27073  0.08876  0.76523  1.0000
  F   F343      1.0  0.26728  0.58583  0.26547  1.0000
  F   F344      1.0  0.26015  0.59219  0.76310  1.0000
  F   F345      1.0  0.51189  0.08414  0.27476  1.0000
  F   F346      1.0  0.51643  0.09413  0.76118  1.0000
  F   F347      1.0  0.51861  0.58315  0.27668  1.0000
  F   F348      1.0  0.51361  0.59162  0.76451  1.0000
  F   F349      1.0  0.76750  0.09770  0.26399  1.0000
  F   F350      1.0  0.75796  0.09148  0.76759  1.0000
  F   F351      1.0  0.76401  0.60005  0.26352  1.0000
  F   F352      1.0  0.76413  0.59184  0.77656  1.0000
  F   F353      1.0  0.09843  0.40549  0.47112  1.0000
  F   F354      1.0  0.09597  0.39555  0.98042  1.0000
  F   F355      1.0  0.09813  0.89130  0.46406  1.0000
  F   F356      1.0  0.09709  0.89759  0.97407  1.0000
  F   F357      1.0  0.35068  0.41186  0.46150  1.0000
  F   F358      1.0  0.35096  0.41035  0.96353  1.0000
  F   F359      1.0  0.34776  0.91822  0.46162  1.0000
  F   F360      1.0  0.35497  0.92053  0.96094  1.0000
  F   F361      1.0  0.59896  0.41133  0.46749  1.0000
  F   F362      1.0  0.60394  0.41211  0.94294  1.0000
  F   F363      1.0  0.60188  0.92444  0.45551  1.0000
  F   F364      1.0  0.60092  0.91047  0.96014  1.0000
  F   F365      1.0  0.85132  0.39136  0.46225  1.0000
  F   F366      1.0  0.85101  0.42794  0.97379  1.0000
  F   F367      1.0  0.84757  0.90960  0.45551  1.0000
  F   F368      1.0  0.85190  0.92308  0.95660  1.0000
  F   F369      1.0  0.04971  0.30012  0.28610  1.0000
  F   F370      1.0  0.05081  0.29065  0.78502  1.0000
  F   F371      1.0  0.04087  0.79141  0.29517  1.0000
  F   F372      1.0  0.04788  0.80085  0.78977  1.0000
  F   F373      1.0  0.29231  0.29018  0.28548  1.0000
  F   F374      1.0  0.29683  0.29887  0.78361  1.0000
  F   F375      1.0  0.29711  0.79368  0.28690  1.0000
  F   F376      1.0  0.28914  0.78757  0.79209  1.0000
  F   F377      1.0  0.55277  0.29549  0.28241  1.0000
  F   F378      1.0  0.54211  0.29767  0.79762  1.0000
  F   F379      1.0  0.54614  0.80969  0.29437  1.0000
  F   F380      1.0  0.55364  0.80549  0.77190  1.0000
  F   F381      1.0  0.78968  0.28480  0.27739  1.0000
  F   F382      1.0  0.79707  0.29424  0.79640  1.0000
  F   F383      1.0  0.79302  0.78640  0.27811  1.0000
  F   F384      1.0  0.79718  0.79952  0.79529  1.0000
