data_image0
_chemical_formula_structural       Hf96F384
_chemical_formula_sum              "Hf96 F384"
_cell_length_a       31.0426
_cell_length_b       15.5221
_cell_length_c       15.5119
_cell_angle_alpha    63.342
_cell_angle_beta     63.342
_cell_angle_gamma    80.1625

_space_group_name_H-M_alt    "P 1"
_space_group_IT_number       1

loop_
  _space_group_symop_operation_xyz
  'x, y, z'

loop_
  _atom_site_type_symbol
  _atom_site_label
  _atom_site_symmetry_multiplicity
  _atom_site_fract_x
  _atom_site_fract_y
  _atom_site_fract_z
  _atom_site_occupancy
  Hf  Hf1       1.0  0.19773  0.11182  0.36756  1.0000
  Hf  Hf2       1.0  0.19830  0.10765  0.87023  1.0000
  Hf  Hf3       1.0  0.19743  0.61370  0.37143  1.0000
  Hf  Hf4       1.0  0.19448  0.60819  0.88254  1.0000
  Hf  Hf5       1.0  0.44275  0.09653  0.38191  1.0000
  Hf  Hf6       1.0  0.44544  0.11466  0.86473  1.0000
  Hf  Hf7       1.0  0.44535  0.60453  0.36951  1.0000
  Hf  Hf8       1.0  0.45084  0.60602  0.87399  1.0000
  Hf  Hf9       1.0  0.69246  0.09912  0.39027  1.0000
  Hf  Hf10      1.0  0.69885  0.10742  0.87471  1.0000
  Hf  Hf11      1.0  0.69616  0.60117  0.37943  1.0000
  Hf  Hf12      1.0  0.70005  0.61065  0.87704  1.0000
  Hf  Hf13      1.0  0.94353  0.10192  0.38023  1.0000
  Hf  Hf14      1.0  0.94585  0.11073  0.87377  1.0000
  Hf  Hf15      1.0  0.94318  0.60822  0.38185  1.0000
  Hf  Hf16      1.0  0.94635  0.60534  0.88034  1.0000
  Hf  Hf17      1.0  0.04914  0.39053  0.12197  1.0000
  Hf  Hf18      1.0  0.05787  0.40413  0.61775  1.0000
  Hf  Hf19      1.0  0.05220  0.89483  0.13460  1.0000
  Hf  Hf20      1.0  0.05360  0.89167  0.62879  1.0000
  Hf  Hf21      1.0  0.30272  0.39148  0.13022  1.0000
  Hf  Hf22      1.0  0.30267  0.39495  0.61766  1.0000
  Hf  Hf23      1.0  0.30112  0.89799  0.12522  1.0000
  Hf  Hf24      1.0  0.30477  0.89205  0.62203  1.0000
  Hf  Hf25      1.0  0.55453  0.39079  0.12172  1.0000
  Hf  Hf26      1.0  0.55427  0.39890  0.61334  1.0000
  Hf  Hf27      1.0  0.55653  0.89282  0.11162  1.0000
  Hf  Hf28      1.0  0.55131  0.88749  0.62490  1.0000
  Hf  Hf29      1.0  0.80898  0.38811  0.12313  1.0000
  Hf  Hf30      1.0  0.79995  0.38881  0.63115  1.0000
  Hf  Hf31      1.0  0.80188  0.88563  0.13222  1.0000
  Hf  Hf32      1.0  0.80471  0.89500  0.63013  1.0000
  Hf  Hf33      1.0  0.05742  0.19208  0.41565  1.0000
  Hf  Hf34      1.0  0.05718  0.18942  0.91323  1.0000
  Hf  Hf35      1.0  0.05588  0.67712  0.41903  1.0000
  Hf  Hf36      1.0  0.05808  0.67340  0.91684  1.0000
  Hf  Hf37      1.0  0.30649  0.17639  0.42494  1.0000
  Hf  Hf38      1.0  0.30537  0.19276  0.91310  1.0000
  Hf  Hf39      1.0  0.30792  0.69147  0.40636  1.0000
  Hf  Hf40      1.0  0.30961  0.68482  0.91356  1.0000
  Hf  Hf41      1.0  0.55187  0.17822  0.41850  1.0000
  Hf  Hf42      1.0  0.55591  0.18554  0.91039  1.0000
  Hf  Hf43      1.0  0.55958  0.68615  0.40703  1.0000
  Hf  Hf44      1.0  0.55891  0.67670  0.91291  1.0000
  Hf  Hf45      1.0  0.80064  0.17877  0.42585  1.0000
  Hf  Hf46      1.0  0.80803  0.17853  0.91580  1.0000
  Hf  Hf47      1.0  0.80473  0.68011  0.42119  1.0000
  Hf  Hf48      1.0  0.80954  0.67529  0.92656  1.0000
  Hf  Hf49      1.0  0.16195  0.40090  0.32821  1.0000
  Hf  Hf50      1.0  0.15943  0.39463  0.82429  1.0000
  Hf  Hf51      1.0  0.15614  0.89023  0.34273  1.0000
  Hf  Hf52      1.0  0.15836  0.88768  0.82978  1.0000
  Hf  Hf53      1.0  0.40582  0.38126  0.34206  1.0000
  Hf  Hf54      1.0  0.41116  0.39528  0.82691  1.0000
  Hf  Hf55      1.0  0.41085  0.88844  0.32475  1.0000
  Hf  Hf56      1.0  0.41179  0.88674  0.82705  1.0000
  Hf  Hf57      1.0  0.66373  0.38982  0.32554  1.0000
  Hf  Hf58      1.0  0.65908  0.39174  0.83345  1.0000
  Hf  Hf59      1.0  0.65880  0.89053  0.33108  1.0000
  Hf  Hf60      1.0  0.65777  0.89750  0.82238  1.0000
  Hf  Hf61      1.0  0.90230  0.38240  0.34336  1.0000
  Hf  Hf62      1.0  0.91104  0.38025  0.83741  1.0000
  Hf  Hf63      1.0  0.90703  0.88211  0.33815  1.0000
  Hf  Hf64      1.0  0.90720  0.88564  0.83996  1.0000
  Hf  Hf65      1.0  0.19356  0.32469  0.08610  1.0000
  Hf  Hf66      1.0  0.19545  0.31739  0.57964  1.0000
  Hf  Hf67      1.0  0.19640  0.81904  0.08285  1.0000
  Hf  Hf68      1.0  0.19636  0.82359  0.58353  1.0000
  Hf  Hf69      1.0  0.44332  0.31626  0.08452  1.0000
  Hf  Hf70      1.0  0.44306  0.31727  0.57768  1.0000
  Hf  Hf71      1.0  0.44409  0.82124  0.07484  1.0000
  Hf  Hf72      1.0  0.44525  0.81352  0.57642  1.0000
  Hf  Hf73      1.0  0.69403  0.31992  0.08211  1.0000
  Hf  Hf74      1.0  0.68855  0.31837  0.59019  1.0000
  Hf  Hf75      1.0  0.69490  0.81614  0.08335  1.0000
  Hf  Hf76      1.0  0.69497  0.81686  0.57737  1.0000
  Hf  Hf77      1.0  0.94187  0.30284  0.09633  1.0000
  Hf  Hf78      1.0  0.94350  0.31400  0.58477  1.0000
  Hf  Hf79      1.0  0.94673  0.82088  0.08291  1.0000
  Hf  Hf80      1.0  0.94244  0.81832  0.58948  1.0000
  Hf  Hf81      1.0  0.09487  0.11075  0.16388  1.0000
  Hf  Hf82      1.0  0.09323  0.11316  0.66611  1.0000
  Hf  Hf83      1.0  0.08958  0.61882  0.16411  1.0000
  Hf  Hf84      1.0  0.09165  0.61991  0.66034  1.0000
  Hf  Hf85      1.0  0.34121  0.11129  0.16529  1.0000
  Hf  Hf86      1.0  0.34002  0.10873  0.67526  1.0000
  Hf  Hf87      1.0  0.34236  0.61278  0.16908  1.0000
  Hf  Hf88      1.0  0.33891  0.61419  0.66458  1.0000
  Hf  Hf89      1.0  0.59440  0.11137  0.16414  1.0000
  Hf  Hf90      1.0  0.58769  0.11806  0.66279  1.0000
  Hf  Hf91      1.0  0.59195  0.60303  0.16782  1.0000
  Hf  Hf92      1.0  0.59210  0.61170  0.66587  1.0000
  Hf  Hf93      1.0  0.83894  0.10425  0.17057  1.0000
  Hf  Hf94      1.0  0.84029  0.11142  0.66663  1.0000
  Hf  Hf95      1.0  0.83925  0.60608  0.17849  1.0000
  Hf  Hf96      1.0  0.84240  0.60460  0.67462  1.0000
  F   F1        1.0  0.08085  0.12933  0.30874  1.0000
  F   F2        1.0  0.08182  0.14279  0.79155  1.0000
  F   F3        1.0  0.08225  0.61022  0.31353  1.0000
  F   F4        1.0  0.08197  0.62129  0.80686  1.0000
  F   F5        1.0  0.33180  0.13243  0.30107  1.0000
  F   F6        1.0  0.32468  0.11760  0.81702  1.0000
  F   F7        1.0  0.32916  0.62906  0.30029  1.0000
  F   F8        1.0  0.32516  0.62118  0.81921  1.0000
  F   F9        1.0  0.57664  0.11758  0.30651  1.0000
  F   F10       1.0  0.57486  0.14009  0.79046  1.0000
  F   F11       1.0  0.57754  0.60983  0.31388  1.0000
  F   F12       1.0  0.58151  0.62969  0.79718  1.0000
  F   F13       1.0  0.82397  0.11514  0.30947  1.0000
  F   F14       1.0  0.83283  0.13214  0.79094  1.0000
  F   F15       1.0  0.83187  0.63080  0.30619  1.0000
  F   F16       1.0  0.83273  0.62150  0.80976  1.0000
  F   F17       1.0  0.19009  0.34868  0.43574  1.0000
  F   F18       1.0  0.18252  0.35328  0.95384  1.0000
  F   F19       1.0  0.18777  0.85090  0.44213  1.0000
  F   F20       1.0  0.18103  0.83273  0.94308  1.0000
  F   F21       1.0  0.44011  0.33014  0.43952  1.0000
  F   F22       1.0  0.44959  0.35575  0.92562  1.0000
  F   F23       1.0  0.43287  0.83779  0.44788  1.0000
  F   F24       1.0  0.44467  0.83872  0.93490  1.0000
  F   F25       1.0  0.68389  0.33214  0.44638  1.0000
  F   F26       1.0  0.69967  0.34557  0.93746  1.0000
  F   F27       1.0  0.68416  0.83347  0.44923  1.0000
  F   F28       1.0  0.67940  0.83711  0.95310  1.0000
  F   F29       1.0  0.93409  0.34927  0.44518  1.0000
  F   F30       1.0  0.94784  0.34094  0.94791  1.0000
  F   F31       1.0  0.93255  0.84977  0.44881  1.0000
  F   F32       1.0  0.93408  0.84605  0.95404  1.0000
  F   F33       1.0  0.16191  0.36296  0.20868  1.0000
  F   F34       1.0  0.16910  0.36907  0.69310  1.0000
  F   F35       1.0  0.16472  0.87854  0.19894  1.0000
  F   F36       1.0  0.17036  0.88617  0.68440  1.0000
  F   F37       1.0  0.42184  0.37786  0.19025  1.0000
  F   F38       1.0  0.42589  0.35898  0.69727  1.0000
  F   F39       1.0  0.42325  0.87705  0.18698  1.0000
  F   F40       1.0  0.42065  0.84782  0.70314  1.0000
  F   F41       1.0  0.67540  0.38325  0.18323  1.0000
  F   F42       1.0  0.66917  0.36830  0.70800  1.0000
  F   F43       1.0  0.67191  0.88595  0.18650  1.0000
  F   F44       1.0  0.67080  0.87736  0.68191  1.0000
  F   F45       1.0  0.91529  0.35855  0.21012  1.0000
  F   F46       1.0  0.92853  0.36919  0.69362  1.0000
  F   F47       1.0  0.92234  0.86617  0.20100  1.0000
  F   F48       1.0  0.91979  0.88390  0.69512  1.0000
  F   F49       1.0  0.07117  0.16037  0.04874  1.0000
  F   F50       1.0  0.05877  0.15576  0.56681  1.0000
  F   F51       1.0  0.06704  0.67429  0.04222  1.0000
  F   F52       1.0  0.05638  0.65919  0.56314  1.0000
  F   F53       1.0  0.31561  0.16266  0.04792  1.0000
  F   F54       1.0  0.31578  0.15214  0.55419  1.0000
  F   F55       1.0  0.30827  0.65088  0.06926  1.0000
  F   F56       1.0  0.31447  0.66321  0.54981  1.0000
  F   F57       1.0  0.57178  0.15991  0.04498  1.0000
  F   F58       1.0  0.55721  0.15253  0.55185  1.0000
  F   F59       1.0  0.57356  0.65832  0.04929  1.0000
  F   F60       1.0  0.57421  0.66400  0.54549  1.0000
  F   F61       1.0  0.82055  0.15764  0.04907  1.0000
  F   F62       1.0  0.80335  0.14321  0.56858  1.0000
  F   F63       1.0  0.80628  0.64650  0.07379  1.0000
  F   F64       1.0  0.81337  0.66872  0.56339  1.0000
  F   F65       1.0  0.20871  0.19359  0.20107  1.0000
  F   F66       1.0  0.20573  0.20936  0.71320  1.0000
  F   F67       1.0  0.20814  0.70969  0.21020  1.0000
  F   F68       1.0  0.19702  0.71247  0.70992  1.0000
  F   F69       1.0  0.44911  0.19805  0.20753  1.0000
  F   F70       1.0  0.45692  0.20635  0.69884  1.0000
  F   F71       1.0  0.45481  0.70877  0.21726  1.0000
  F   F72       1.0  0.46083  0.69472  0.69636  1.0000
  F   F73       1.0  0.68589  0.20587  0.21684  1.0000
  F   F74       1.0  0.70313  0.20326  0.71205  1.0000
  F   F75       1.0  0.70374  0.70643  0.20271  1.0000
  F   F76       1.0  0.70468  0.70048  0.69137  1.0000
  F   F77       1.0  0.95918  0.19863  0.21241  1.0000
  F   F78       1.0  0.95579  0.20745  0.70659  1.0000
  F   F79       1.0  0.96415  0.69568  0.21303  1.0000
  F   F80       1.0  0.94188  0.70370  0.72341  1.0000
  F   F81       1.0  0.15374  0.07543  0.03179  1.0000
  F   F82       1.0  0.15145  0.10023  0.54493  1.0000
  F   F83       1.0  0.15136  0.61442  0.02420  1.0000
  F   F84       1.0  0.14616  0.60249  0.52701  1.0000
  F   F85       1.0  0.39922  0.08707  0.02018  1.0000
  F   F86       1.0  0.40007  0.09862  0.53641  1.0000
  F   F87       1.0  0.39845  0.60157  0.04515  1.0000
  F   F88       1.0  0.39304  0.58928  0.54415  1.0000
  F   F89       1.0  0.65055  0.07676  0.03588  1.0000
  F   F90       1.0  0.64485  0.10413  0.54372  1.0000
  F   F91       1.0  0.65421  0.59117  0.03530  1.0000
  F   F92       1.0  0.65410  0.57248  0.53282  1.0000
  F   F93       1.0  0.89152  0.06729  0.04106  1.0000
  F   F94       1.0  0.88551  0.09719  0.53658  1.0000
  F   F95       1.0  0.89627  0.62779  0.03969  1.0000
  F   F96       1.0  0.89424  0.57016  0.56294  1.0000
  F   F97       1.0  0.15052  0.20161  0.11266  1.0000
  F   F98       1.0  0.15277  0.20631  0.61971  1.0000
  F   F99       1.0  0.15436  0.70084  0.12351  1.0000
  F   F100      1.0  0.15818  0.70877  0.61520  1.0000
  F   F101      1.0  0.40321  0.19991  0.10552  1.0000
  F   F102      1.0  0.39640  0.20191  0.63244  1.0000
  F   F103      1.0  0.40406  0.70260  0.13504  1.0000
  F   F104      1.0  0.39511  0.68911  0.63711  1.0000
  F   F105      1.0  0.64603  0.19803  0.11804  1.0000
  F   F106      1.0  0.64659  0.21135  0.63111  1.0000
  F   F107      1.0  0.64340  0.69437  0.13051  1.0000
  F   F108      1.0  0.65346  0.70253  0.60202  1.0000
  F   F109      1.0  0.90319  0.17193  0.12860  1.0000
  F   F110      1.0  0.90041  0.19587  0.61401  1.0000
  F   F111      1.0  0.90181  0.71127  0.14538  1.0000
  F   F112      1.0  0.90107  0.69046  0.61458  1.0000
  F   F113      1.0  0.09208  0.30937  0.39140  1.0000
  F   F114      1.0  0.08893  0.31068  0.87894  1.0000
  F   F115      1.0  0.10012  0.79527  0.38673  1.0000
  F   F116      1.0  0.10525  0.79123  0.86692  1.0000
  F   F117      1.0  0.34692  0.30152  0.38308  1.0000
  F   F118      1.0  0.34977  0.30271  0.85626  1.0000
  F   F119      1.0  0.35036  0.80644  0.34802  1.0000
  F   F120      1.0  0.34936  0.80636  0.87479  1.0000
  F   F121      1.0  0.59948  0.30821  0.36561  1.0000
  F   F122      1.0  0.59594  0.29534  0.87280  1.0000
  F   F123      1.0  0.59831  0.80829  0.37651  1.0000
  F   F124      1.0  0.60107  0.80909  0.84936  1.0000
  F   F125      1.0  0.84159  0.29364  0.40356  1.0000
  F   F126      1.0  0.84952  0.30833  0.87700  1.0000
  F   F127      1.0  0.84404  0.80315  0.36408  1.0000
  F   F128      1.0  0.85486  0.79174  0.88693  1.0000
  F   F129      1.0  0.06697  0.25399  0.13138  1.0000
  F   F130      1.0  0.07445  0.26125  0.61929  1.0000
  F   F131      1.0  0.06182  0.74579  0.16507  1.0000
  F   F132      1.0  0.06893  0.76227  0.62143  1.0000
  F   F133      1.0  0.30680  0.24955  0.15688  1.0000
  F   F134      1.0  0.31546  0.26097  0.62723  1.0000
  F   F135      1.0  0.31974  0.75105  0.13698  1.0000
  F   F136      1.0  0.31388  0.75721  0.63771  1.0000
  F   F137      1.0  0.56164  0.24312  0.14337  1.0000
  F   F138      1.0  0.56939  0.25899  0.61783  1.0000
  F   F139      1.0  0.56432  0.74611  0.14015  1.0000
  F   F140      1.0  0.56750  0.74826  0.64173  1.0000
  F   F141      1.0  0.81600  0.25776  0.12956  1.0000
  F   F142      1.0  0.81800  0.26062  0.62836  1.0000
  F   F143      1.0  0.81613  0.75146  0.12850  1.0000
  F   F144      1.0  0.80104  0.74833  0.66997  1.0000
  F   F145      1.0  0.11930  0.38422  0.10629  1.0000
  F   F146      1.0  0.12774  0.38193  0.60322  1.0000
  F   F147      1.0  0.11928  0.88211  0.10824  1.0000
  F   F148      1.0  0.12082  0.86065  0.61907  1.0000
  F   F149      1.0  0.37165  0.35781  0.12342  1.0000
  F   F150      1.0  0.36582  0.36802  0.62822  1.0000
  F   F151      1.0  0.37453  0.87348  0.10492  1.0000
  F   F152      1.0  0.37186  0.87351  0.59877  1.0000
  F   F153      1.0  0.62590  0.35919  0.10948  1.0000
  F   F154      1.0  0.62229  0.39979  0.59349  1.0000
  F   F155      1.0  0.62205  0.87125  0.10244  1.0000
  F   F156      1.0  0.62229  0.86232  0.60942  1.0000
  F   F157      1.0  0.87698  0.34682  0.10808  1.0000
  F   F158      1.0  0.87339  0.37135  0.61280  1.0000
  F   F159      1.0  0.87445  0.87410  0.11267  1.0000
  F   F160      1.0  0.87340  0.87500  0.61367  1.0000
  F   F161      1.0  0.19193  0.24955  0.33587  1.0000
  F   F162      1.0  0.17690  0.25615  0.87480  1.0000
  F   F163      1.0  0.18746  0.76095  0.36606  1.0000
  F   F164      1.0  0.19461  0.75995  0.82138  1.0000
  F   F165      1.0  0.44224  0.24328  0.33325  1.0000
  F   F166      1.0  0.43197  0.26137  0.85981  1.0000
  F   F167      1.0  0.42122  0.74176  0.38010  1.0000
  F   F168      1.0  0.44397  0.75095  0.84881  1.0000
  F   F169      1.0  0.68846  0.24179  0.35343  1.0000
  F   F170      1.0  0.67581  0.25460  0.87717  1.0000
  F   F171      1.0  0.68234  0.74941  0.35495  1.0000
  F   F172      1.0  0.68117  0.74720  0.85321  1.0000
  F   F173      1.0  0.92653  0.24128  0.37046  1.0000
  F   F174      1.0  0.92877  0.23870  0.88729  1.0000
  F   F175      1.0  0.92170  0.73650  0.39084  1.0000
  F   F176      1.0  0.93666  0.75142  0.85318  1.0000
  F   F177      1.0  0.12714  0.13474  0.40356  1.0000
  F   F178      1.0  0.12525  0.13296  0.88916  1.0000
  F   F179      1.0  0.12200  0.63332  0.39700  1.0000
  F   F180      1.0  0.12838  0.61712  0.89655  1.0000
  F   F181      1.0  0.37363  0.11693  0.40175  1.0000
  F   F182      1.0  0.37528  0.14380  0.87274  1.0000
  F   F183      1.0  0.37371  0.62219  0.39263  1.0000
  F   F184      1.0  0.38273  0.63733  0.88643  1.0000
  F   F185      1.0  0.62117  0.13366  0.39717  1.0000
  F   F186      1.0  0.62811  0.11891  0.88979  1.0000
  F   F187      1.0  0.62752  0.63862  0.38158  1.0000
  F   F188      1.0  0.62524  0.62354  0.89706  1.0000
  F   F189      1.0  0.87491  0.12640  0.38245  1.0000
  F   F190      1.0  0.87403  0.14016  0.89047  1.0000
  F   F191      1.0  0.87328  0.63059  0.40405  1.0000
  F   F192      1.0  0.87473  0.61670  0.90896  1.0000
  F   F193      1.0  0.99892  0.37638  0.06376  1.0000
  F   F194      1.0  0.01107  0.35866  0.56766  1.0000
  F   F195      1.0  0.00494  0.86568  0.08266  1.0000
  F   F196      1.0  0.00443  0.87217  0.56946  1.0000
  F   F197      1.0  0.25895  0.37001  0.07013  1.0000
  F   F198      1.0  0.25513  0.36997  0.57052  1.0000
  F   F199      1.0  0.25450  0.86341  0.08139  1.0000
  F   F200      1.0  0.26076  0.87590  0.55645  1.0000
  F   F201      1.0  0.51333  0.36302  0.06123  1.0000
  F   F202      1.0  0.50749  0.36680  0.55355  1.0000
  F   F203      1.0  0.50444  0.86655  0.07479  1.0000
  F   F204      1.0  0.50630  0.85624  0.57180  1.0000
  F   F205      1.0  0.76329  0.35312  0.06174  1.0000
  F   F206      1.0  0.75124  0.35408  0.59768  1.0000
  F   F207      1.0  0.75732  0.86070  0.08504  1.0000
  F   F208      1.0  0.75656  0.86320  0.58104  1.0000
  F   F209      1.0  0.07273  0.49289  0.15958  1.0000
  F   F210      1.0  0.06296  0.48825  0.68375  1.0000
  F   F211      1.0  0.06284  0.98789  0.18776  1.0000
  F   F212      1.0  0.07177  0.98033  0.68176  1.0000
  F   F213      1.0  0.31769  0.48371  0.18530  1.0000
  F   F214      1.0  0.31288  0.49189  0.68839  1.0000
  F   F215      1.0  0.32155  0.98935  0.17561  1.0000
  F   F216      1.0  0.32324  0.97912  0.68546  1.0000
  F   F217      1.0  0.57110  0.48258  0.16736  1.0000
  F   F218      1.0  0.56751  0.49734  0.67429  1.0000
  F   F219      1.0  0.56544  0.98205  0.18523  1.0000
  F   F220      1.0  0.56963  0.98360  0.66832  1.0000
  F   F221      1.0  0.82541  0.48153  0.18161  1.0000
  F   F222      1.0  0.81165  0.47321  0.70057  1.0000
  F   F223      1.0  0.81231  0.98124  0.19026  1.0000
  F   F224      1.0  0.81382  0.98326  0.69609  1.0000
  F   F225      1.0  0.24902  0.12700  0.41796  1.0000
  F   F226      1.0  0.24068  0.14056  0.91677  1.0000
  F   F227      1.0  0.24175  0.64136  0.42581  1.0000
  F   F228      1.0  0.24444  0.63499  0.93199  1.0000
  F   F229      1.0  0.48801  0.13994  0.43069  1.0000
  F   F230      1.0  0.49236  0.14567  0.91035  1.0000
  F   F231      1.0  0.49256  0.64421  0.40630  1.0000
  F   F232      1.0  0.49401  0.63069  0.92734  1.0000
  F   F233      1.0  0.73855  0.13059  0.45177  1.0000
  F   F234      1.0  0.74150  0.13160  0.92850  1.0000
  F   F235      1.0  0.74055  0.64248  0.42469  1.0000
  F   F236      1.0  0.74776  0.64201  0.92668  1.0000
  F   F237      1.0  0.98817  0.13087  0.42882  1.0000
  F   F238      1.0  0.99018  0.14316  0.92813  1.0000
  F   F239      1.0  0.99512  0.64262  0.41387  1.0000
  F   F240      1.0  0.99190  0.62518  0.93750  1.0000
  F   F241      1.0  0.17730  0.01879  0.31502  1.0000
  F   F242      1.0  0.17769  0.01569  0.82853  1.0000
  F   F243      1.0  0.18482  0.51921  0.31976  1.0000
  F   F244      1.0  0.18703  0.51974  0.81463  1.0000
  F   F245      1.0  0.43620  0.00051  0.32761  1.0000
  F   F246      1.0  0.43376  0.01503  0.81730  1.0000
  F   F247      1.0  0.43373  0.50389  0.32651  1.0000
  F   F248      1.0  0.43332  0.52116  0.81671  1.0000
  F   F249      1.0  0.67848  0.01190  0.34331  1.0000
  F   F250      1.0  0.67954  0.00945  0.81980  1.0000
  F   F251      1.0  0.68550  0.50885  0.33189  1.0000
  F   F252      1.0  0.68300  0.52156  0.82487  1.0000
  F   F253      1.0  0.92749  0.01060  0.32914  1.0000
  F   F254      1.0  0.93403  0.01263  0.82594  1.0000
  F   F255      1.0  0.93493  0.51916  0.32216  1.0000
  F   F256      1.0  0.93342  0.51835  0.82875  1.0000
  F   F257      1.0  0.99880  0.23105  0.01697  1.0000
  F   F258      1.0  0.00207  0.25040  0.50051  1.0000
  F   F259      1.0  0.00360  0.75353  0.99097  1.0000
  F   F260      1.0  0.99444  0.73803  0.51762  1.0000
  F   F261      1.0  0.24990  0.25737  0.99797  1.0000
  F   F262      1.0  0.24836  0.23626  0.51626  1.0000
  F   F263      1.0  0.24889  0.75055  0.00494  1.0000
  F   F264      1.0  0.25161  0.75233  0.49960  1.0000
  F   F265      1.0  0.50368  0.24537  0.99542  1.0000
  F   F266      1.0  0.50246  0.25450  0.49780  1.0000
  F   F267      1.0  0.49975  0.73361  0.01205  1.0000
  F   F268      1.0  0.50021  0.75522  0.48184  1.0000
  F   F269      1.0  0.74077  0.21515  0.02813  1.0000
  F   F270      1.0  0.75558  0.25598  0.50037  1.0000
  F   F271      1.0  0.75130  0.75843  0.99716  1.0000
  F   F272      1.0  0.75462  0.76389  0.48772  1.0000
  F   F273      1.0  0.12211  0.00127  0.25169  1.0000
  F   F274      1.0  0.11381  0.99492  0.77956  1.0000
  F   F275      1.0  0.13665  0.50669  0.23500  1.0000
  F   F276      1.0  0.12992  0.50924  0.73855  1.0000
  F   F277      1.0  0.38091  0.01088  0.24905  1.0000
  F   F278      1.0  0.38485  0.00107  0.73436  1.0000
  F   F279      1.0  0.37310  0.49316  0.25202  1.0000
  F   F280      1.0  0.37657  0.50263  0.74001  1.0000
  F   F281      1.0  0.62654  0.00320  0.25091  1.0000
  F   F282      1.0  0.62298  0.00355  0.74131  1.0000
  F   F283      1.0  0.63223  0.50235  0.24450  1.0000
  F   F284      1.0  0.61920  0.49272  0.77069  1.0000
  F   F285      1.0  0.87485  0.99594  0.25052  1.0000
  F   F286      1.0  0.87277  0.99634  0.75822  1.0000
  F   F287      1.0  0.87877  0.50243  0.24771  1.0000
  F   F288      1.0  0.87650  0.48512  0.76091  1.0000
  F   F289      1.0  0.04778  0.02928  0.03084  1.0000
  F   F290      1.0  0.04118  0.04276  0.52801  1.0000
  F   F291      1.0  0.03921  0.53784  0.03479  1.0000
  F   F292      1.0  0.03776  0.52937  0.52583  1.0000
  F   F293      1.0  0.29465  0.03140  0.02294  1.0000
  F   F294      1.0  0.28946  0.02705  0.52797  1.0000
  F   F295      1.0  0.30392  0.52737  0.02484  1.0000
  F   F296      1.0  0.29591  0.54351  0.51763  1.0000
  F   F297      1.0  0.53970  0.03023  0.01845  1.0000
  F   F298      1.0  0.54061  0.02910  0.51835  1.0000
  F   F299      1.0  0.54470  0.52718  0.02495  1.0000
  F   F300      1.0  0.53401  0.53889  0.53590  1.0000
  F   F301      1.0  0.80228  0.02656  0.01107  1.0000
  F   F302      1.0  0.79479  0.02510  0.52441  1.0000
  F   F303      1.0  0.79113  0.52680  0.02388  1.0000
  F   F304      1.0  0.78620  0.53140  0.52949  1.0000
  F   F305      1.0  0.23274  0.41651  0.21673  1.0000
  F   F306      1.0  0.23491  0.40470  0.72677  1.0000
  F   F307      1.0  0.23475  0.91381  0.22228  1.0000
  F   F308      1.0  0.23278  0.92193  0.72330  1.0000
  F   F309      1.0  0.48710  0.40636  0.22597  1.0000
  F   F310      1.0  0.48799  0.42240  0.72198  1.0000
  F   F311      1.0  0.49091  0.88736  0.23383  1.0000
  F   F312      1.0  0.48318  0.92378  0.71557  1.0000
  F   F313      1.0  0.73884  0.39994  0.22523  1.0000
  F   F314      1.0  0.72941  0.41792  0.73181  1.0000
  F   F315      1.0  0.73224  0.93064  0.22548  1.0000
  F   F316      1.0  0.73549  0.89989  0.73551  1.0000
  F   F317      1.0  0.98026  0.40873  0.22332  1.0000
  F   F318      1.0  0.98457  0.41009  0.72579  1.0000
  F   F319      1.0  0.98517  0.89517  0.25011  1.0000
  F   F320      1.0  0.98811  0.91724  0.72581  1.0000
  F   F321      1.0  0.20818  0.48655  0.47382  1.0000
  F   F322      1.0  0.20184  0.47366  0.99839  1.0000
  F   F323      1.0  0.19563  0.98264  0.48094  1.0000
  F   F324      1.0  0.20998  0.96255  0.96652  1.0000
  F   F325      1.0  0.44923  0.47152  0.48388  1.0000
  F   F326      1.0  0.44986  0.47638  0.98536  1.0000
  F   F327      1.0  0.44950  0.95955  0.49724  1.0000
  F   F328      1.0  0.45652  0.97384  0.97502  1.0000
  F   F329      1.0  0.71926  0.45947  0.46658  1.0000
  F   F330      1.0  0.70287  0.47374  0.98301  1.0000
  F   F331      1.0  0.70832  0.96729  0.48479  1.0000
  F   F332      1.0  0.71298  0.96518  0.96560  1.0000
  F   F333      1.0  0.95706  0.47222  0.47946  1.0000
  F   F334      1.0  0.93946  0.47145  0.00355  1.0000
  F   F335      1.0  0.95917  0.97250  0.47905  1.0000
  F   F336      1.0  0.96840  0.97809  0.96722  1.0000
  F   F337      1.0  0.01237  0.10114  0.26268  1.0000
  F   F338      1.0  0.01395  0.09417  0.76738  1.0000
  F   F339      1.0  0.02143  0.57677  0.26912  1.0000
  F   F340      1.0  0.01812  0.59925  0.77372  1.0000
  F   F341      1.0  0.27207  0.07542  0.27602  1.0000
  F   F342      1.0  0.26399  0.08281  0.76821  1.0000
  F   F343      1.0  0.26517  0.59035  0.27013  1.0000
  F   F344      1.0  0.26203  0.60563  0.77171  1.0000
  F   F345      1.0  0.50830  0.08370  0.28216  1.0000
  F   F346      1.0  0.51323  0.09109  0.75596  1.0000
  F   F347      1.0  0.51844  0.57036  0.26600  1.0000
  F   F348      1.0  0.51692  0.58636  0.78203  1.0000
  F   F349      1.0  0.75720  0.09753  0.27395  1.0000
  F   F350      1.0  0.76640  0.10354  0.76179  1.0000
  F   F351      1.0  0.76571  0.58479  0.27280  1.0000
  F   F352      1.0  0.76425  0.58541  0.79219  1.0000
  F   F353      1.0  0.10308  0.41798  0.46546  1.0000
  F   F354      1.0  0.09753  0.42653  0.95897  1.0000
  F   F355      1.0  0.09789  0.91800  0.46508  1.0000
  F   F356      1.0  0.09891  0.88247  0.96933  1.0000
  F   F357      1.0  0.35570  0.41610  0.46216  1.0000
  F   F358      1.0  0.35662  0.37627  0.96774  1.0000
  F   F359      1.0  0.35161  0.90816  0.45251  1.0000
  F   F360      1.0  0.35665  0.90471  0.95235  1.0000
  F   F361      1.0  0.59844  0.41899  0.45295  1.0000
  F   F362      1.0  0.60476  0.38943  0.96786  1.0000
  F   F363      1.0  0.60364  0.90808  0.46811  1.0000
  F   F364      1.0  0.59497  0.91530  0.94815  1.0000
  F   F365      1.0  0.84714  0.40555  0.47339  1.0000
  F   F366      1.0  0.85662  0.41187  0.95600  1.0000
  F   F367      1.0  0.84743  0.89262  0.46688  1.0000
  F   F368      1.0  0.84918  0.90839  0.95646  1.0000
  F   F369      1.0  0.04145  0.29500  0.28527  1.0000
  F   F370      1.0  0.04192  0.30585  0.78808  1.0000
  F   F371      1.0  0.05094  0.79642  0.30019  1.0000
  F   F372      1.0  0.04545  0.78866  0.79949  1.0000
  F   F373      1.0  0.30009  0.29518  0.29607  1.0000
  F   F374      1.0  0.29299  0.30402  0.78095  1.0000
  F   F375      1.0  0.29288  0.80917  0.27685  1.0000
  F   F376      1.0  0.29758  0.79051  0.78884  1.0000
  F   F377      1.0  0.54567  0.29547  0.28576  1.0000
  F   F378      1.0  0.54615  0.30923  0.77182  1.0000
  F   F379      1.0  0.55589  0.79597  0.27765  1.0000
  F   F380      1.0  0.53842  0.80269  0.78536  1.0000
  F   F381      1.0  0.80066  0.29301  0.28382  1.0000
  F   F382      1.0  0.79534  0.28556  0.79772  1.0000
  F   F383      1.0  0.78597  0.78910  0.28704  1.0000
  F   F384      1.0  0.81047  0.79426  0.79541  1.0000
