data_image0
_chemical_formula_structural       Hf96F384
_chemical_formula_sum              "Hf96 F384"
_cell_length_a       31.0402
_cell_length_b       15.5165
_cell_length_c       15.5116
_cell_angle_alpha    63.342
_cell_angle_beta     63.342
_cell_angle_gamma    80.1625

_space_group_name_H-M_alt    "P 1"
_space_group_IT_number       1

loop_
  _space_group_symop_operation_xyz
  'x, y, z'

loop_
  _atom_site_type_symbol
  _atom_site_label
  _atom_site_symmetry_multiplicity
  _atom_site_fract_x
  _atom_site_fract_y
  _atom_site_fract_z
  _atom_site_occupancy
  Hf  Hf1       1.0  0.19569  0.10910  0.37565  1.0000
  Hf  Hf2       1.0  0.19507  0.10116  0.88098  1.0000
  Hf  Hf3       1.0  0.19730  0.60339  0.37843  1.0000
  Hf  Hf4       1.0  0.19348  0.60636  0.87563  1.0000
  Hf  Hf5       1.0  0.44878  0.10505  0.37150  1.0000
  Hf  Hf6       1.0  0.44826  0.10855  0.86535  1.0000
  Hf  Hf7       1.0  0.45238  0.60622  0.36524  1.0000
  Hf  Hf8       1.0  0.44758  0.60774  0.87150  1.0000
  Hf  Hf9       1.0  0.69768  0.10794  0.37327  1.0000
  Hf  Hf10      1.0  0.69510  0.11644  0.86682  1.0000
  Hf  Hf11      1.0  0.69527  0.59832  0.39087  1.0000
  Hf  Hf12      1.0  0.69426  0.61340  0.87243  1.0000
  Hf  Hf13      1.0  0.94275  0.10817  0.37402  1.0000
  Hf  Hf14      1.0  0.94661  0.10848  0.87558  1.0000
  Hf  Hf15      1.0  0.94658  0.60467  0.37754  1.0000
  Hf  Hf16      1.0  0.94628  0.61835  0.86935  1.0000
  Hf  Hf17      1.0  0.05589  0.39231  0.12785  1.0000
  Hf  Hf18      1.0  0.05563  0.38793  0.62168  1.0000
  Hf  Hf19      1.0  0.05409  0.89209  0.12708  1.0000
  Hf  Hf20      1.0  0.05224  0.89025  0.63326  1.0000
  Hf  Hf21      1.0  0.30508  0.39319  0.12444  1.0000
  Hf  Hf22      1.0  0.30516  0.38787  0.61893  1.0000
  Hf  Hf23      1.0  0.30363  0.88763  0.13476  1.0000
  Hf  Hf24      1.0  0.29978  0.88659  0.63744  1.0000
  Hf  Hf25      1.0  0.55528  0.39173  0.12722  1.0000
  Hf  Hf26      1.0  0.55334  0.39865  0.62552  1.0000
  Hf  Hf27      1.0  0.55515  0.89511  0.12486  1.0000
  Hf  Hf28      1.0  0.55091  0.90093  0.61768  1.0000
  Hf  Hf29      1.0  0.80320  0.39214  0.12172  1.0000
  Hf  Hf30      1.0  0.80331  0.39475  0.63239  1.0000
  Hf  Hf31      1.0  0.79854  0.88890  0.13314  1.0000
  Hf  Hf32      1.0  0.79710  0.89756  0.62624  1.0000
  Hf  Hf33      1.0  0.05488  0.18446  0.41196  1.0000
  Hf  Hf34      1.0  0.05522  0.17601  0.91880  1.0000
  Hf  Hf35      1.0  0.06046  0.67498  0.41749  1.0000
  Hf  Hf36      1.0  0.05847  0.68827  0.90804  1.0000
  Hf  Hf37      1.0  0.30546  0.16664  0.42521  1.0000
  Hf  Hf38      1.0  0.30728  0.17546  0.91495  1.0000
  Hf  Hf39      1.0  0.30887  0.68538  0.41235  1.0000
  Hf  Hf40      1.0  0.30342  0.68592  0.92431  1.0000
  Hf  Hf41      1.0  0.55686  0.18378  0.40957  1.0000
  Hf  Hf42      1.0  0.55384  0.17647  0.92014  1.0000
  Hf  Hf43      1.0  0.55567  0.68977  0.41526  1.0000
  Hf  Hf44      1.0  0.55588  0.68845  0.90804  1.0000
  Hf  Hf45      1.0  0.80759  0.18756  0.40813  1.0000
  Hf  Hf46      1.0  0.80574  0.18102  0.91520  1.0000
  Hf  Hf47      1.0  0.80938  0.68909  0.41345  1.0000
  Hf  Hf48      1.0  0.80720  0.69031  0.91510  1.0000
  Hf  Hf49      1.0  0.15968  0.38347  0.33065  1.0000
  Hf  Hf50      1.0  0.15756  0.38195  0.83998  1.0000
  Hf  Hf51      1.0  0.15757  0.88194  0.34157  1.0000
  Hf  Hf52      1.0  0.15461  0.88461  0.83943  1.0000
  Hf  Hf53      1.0  0.40967  0.37777  0.34333  1.0000
  Hf  Hf54      1.0  0.40838  0.37906  0.84849  1.0000
  Hf  Hf55      1.0  0.40842  0.88719  0.34138  1.0000
  Hf  Hf56      1.0  0.40751  0.88036  0.83568  1.0000
  Hf  Hf57      1.0  0.66052  0.38293  0.32997  1.0000
  Hf  Hf58      1.0  0.65818  0.39538  0.83603  1.0000
  Hf  Hf59      1.0  0.65711  0.89445  0.32467  1.0000
  Hf  Hf60      1.0  0.65512  0.88852  0.83343  1.0000
  Hf  Hf61      1.0  0.90973  0.38838  0.33172  1.0000
  Hf  Hf62      1.0  0.91269  0.38344  0.83288  1.0000
  Hf  Hf63      1.0  0.91215  0.88826  0.32905  1.0000
  Hf  Hf64      1.0  0.90735  0.89884  0.82869  1.0000
  Hf  Hf65      1.0  0.19493  0.31269  0.08574  1.0000
  Hf  Hf66      1.0  0.19295  0.31284  0.58250  1.0000
  Hf  Hf67      1.0  0.19008  0.81081  0.09314  1.0000
  Hf  Hf68      1.0  0.19283  0.81353  0.58811  1.0000
  Hf  Hf69      1.0  0.44101  0.31501  0.09252  1.0000
  Hf  Hf70      1.0  0.44395  0.31916  0.58506  1.0000
  Hf  Hf71      1.0  0.44553  0.81475  0.08567  1.0000
  Hf  Hf72      1.0  0.44025  0.81349  0.58777  1.0000
  Hf  Hf73      1.0  0.69395  0.32216  0.07885  1.0000
  Hf  Hf74      1.0  0.69265  0.32232  0.58188  1.0000
  Hf  Hf75      1.0  0.69547  0.82585  0.07058  1.0000
  Hf  Hf76      1.0  0.69358  0.81835  0.57711  1.0000
  Hf  Hf77      1.0  0.94290  0.31865  0.08764  1.0000
  Hf  Hf78      1.0  0.94550  0.32041  0.58135  1.0000
  Hf  Hf79      1.0  0.94491  0.82051  0.07783  1.0000
  Hf  Hf80      1.0  0.94442  0.82285  0.57497  1.0000
  Hf  Hf81      1.0  0.09192  0.10384  0.17445  1.0000
  Hf  Hf82      1.0  0.09057  0.11662  0.66423  1.0000
  Hf  Hf83      1.0  0.09146  0.61178  0.16764  1.0000
  Hf  Hf84      1.0  0.09075  0.60575  0.66786  1.0000
  Hf  Hf85      1.0  0.34072  0.10101  0.17551  1.0000
  Hf  Hf86      1.0  0.34237  0.11295  0.66664  1.0000
  Hf  Hf87      1.0  0.34453  0.60792  0.16169  1.0000
  Hf  Hf88      1.0  0.34484  0.60759  0.66427  1.0000
  Hf  Hf89      1.0  0.59045  0.11506  0.15908  1.0000
  Hf  Hf90      1.0  0.59280  0.11816  0.65784  1.0000
  Hf  Hf91      1.0  0.59449  0.61734  0.16151  1.0000
  Hf  Hf92      1.0  0.59029  0.61394  0.66505  1.0000
  Hf  Hf93      1.0  0.84117  0.11082  0.16625  1.0000
  Hf  Hf94      1.0  0.84329  0.11947  0.66301  1.0000
  Hf  Hf95      1.0  0.84242  0.61096  0.16369  1.0000
  Hf  Hf96      1.0  0.84136  0.61855  0.67021  1.0000
  F   F1        1.0  0.07562  0.11963  0.30795  1.0000
  F   F2        1.0  0.07927  0.11743  0.80907  1.0000
  F   F3        1.0  0.08012  0.61626  0.31623  1.0000
  F   F4        1.0  0.08252  0.63918  0.79424  1.0000
  F   F5        1.0  0.32873  0.10518  0.31638  1.0000
  F   F6        1.0  0.32683  0.11911  0.80862  1.0000
  F   F7        1.0  0.32686  0.61815  0.31024  1.0000
  F   F8        1.0  0.33070  0.62480  0.81029  1.0000
  F   F9        1.0  0.57892  0.13991  0.29030  1.0000
  F   F10       1.0  0.57354  0.10956  0.80969  1.0000
  F   F11       1.0  0.58782  0.65412  0.29309  1.0000
  F   F12       1.0  0.57338  0.62217  0.79917  1.0000
  F   F13       1.0  0.83677  0.14246  0.28501  1.0000
  F   F14       1.0  0.82318  0.11452  0.81795  1.0000
  F   F15       1.0  0.83046  0.63787  0.29791  1.0000
  F   F16       1.0  0.82585  0.64966  0.79593  1.0000
  F   F17       1.0  0.18703  0.33622  0.43920  1.0000
  F   F18       1.0  0.18244  0.32843  0.95502  1.0000
  F   F19       1.0  0.18586  0.84311  0.44514  1.0000
  F   F20       1.0  0.18443  0.83198  0.95477  1.0000
  F   F21       1.0  0.42403  0.32457  0.47191  1.0000
  F   F22       1.0  0.42605  0.32829  0.97240  1.0000
  F   F23       1.0  0.43134  0.83414  0.45445  1.0000
  F   F24       1.0  0.44072  0.84213  0.94792  1.0000
  F   F25       1.0  0.68856  0.33591  0.44318  1.0000
  F   F26       1.0  0.68989  0.36089  0.93547  1.0000
  F   F27       1.0  0.68535  0.84253  0.43624  1.0000
  F   F28       1.0  0.68569  0.85802  0.92655  1.0000
  F   F29       1.0  0.93503  0.32900  0.45205  1.0000
  F   F30       1.0  0.94098  0.35064  0.93918  1.0000
  F   F31       1.0  0.94185  0.84222  0.43752  1.0000
  F   F32       1.0  0.94204  0.86040  0.94170  1.0000
  F   F33       1.0  0.16320  0.35192  0.20778  1.0000
  F   F34       1.0  0.16851  0.37221  0.69924  1.0000
  F   F35       1.0  0.16725  0.87354  0.19682  1.0000
  F   F36       1.0  0.16928  0.86120  0.70660  1.0000
  F   F37       1.0  0.42037  0.36080  0.20458  1.0000
  F   F38       1.0  0.42220  0.37657  0.70580  1.0000
  F   F39       1.0  0.42208  0.86537  0.19293  1.0000
  F   F40       1.0  0.41917  0.85973  0.70227  1.0000
  F   F41       1.0  0.67797  0.38167  0.18469  1.0000
  F   F42       1.0  0.66407  0.37871  0.70154  1.0000
  F   F43       1.0  0.67729  0.88787  0.18169  1.0000
  F   F44       1.0  0.66799  0.87249  0.69946  1.0000
  F   F45       1.0  0.91625  0.38365  0.19396  1.0000
  F   F46       1.0  0.91863  0.38435  0.69206  1.0000
  F   F47       1.0  0.92333  0.86963  0.18911  1.0000
  F   F48       1.0  0.91773  0.88732  0.68656  1.0000
  F   F49       1.0  0.06178  0.15097  0.05453  1.0000
  F   F50       1.0  0.05884  0.15742  0.54959  1.0000
  F   F51       1.0  0.06348  0.66322  0.05156  1.0000
  F   F52       1.0  0.07127  0.65731  0.54698  1.0000
  F   F53       1.0  0.30488  0.13566  0.07888  1.0000
  F   F54       1.0  0.31656  0.15178  0.55252  1.0000
  F   F55       1.0  0.31404  0.66036  0.05935  1.0000
  F   F56       1.0  0.31121  0.65278  0.55746  1.0000
  F   F57       1.0  0.55943  0.15507  0.05541  1.0000
  F   F58       1.0  0.55932  0.16497  0.55099  1.0000
  F   F59       1.0  0.57197  0.66668  0.04761  1.0000
  F   F60       1.0  0.55985  0.64985  0.55348  1.0000
  F   F61       1.0  0.81331  0.16547  0.04691  1.0000
  F   F62       1.0  0.81742  0.17061  0.54841  1.0000
  F   F63       1.0  0.80782  0.65433  0.06601  1.0000
  F   F64       1.0  0.82374  0.67266  0.54064  1.0000
  F   F65       1.0  0.20302  0.20117  0.21855  1.0000
  F   F66       1.0  0.19713  0.18920  0.71781  1.0000
  F   F67       1.0  0.20339  0.70111  0.20672  1.0000
  F   F68       1.0  0.19714  0.67600  0.72575  1.0000
  F   F69       1.0  0.45701  0.20087  0.21221  1.0000
  F   F70       1.0  0.45154  0.20968  0.71261  1.0000
  F   F71       1.0  0.46222  0.68955  0.20518  1.0000
  F   F72       1.0  0.45242  0.69501  0.70883  1.0000
  F   F73       1.0  0.69670  0.20585  0.20838  1.0000
  F   F74       1.0  0.70188  0.20684  0.70241  1.0000
  F   F75       1.0  0.69314  0.71094  0.20029  1.0000
  F   F76       1.0  0.70750  0.71924  0.69792  1.0000
  F   F77       1.0  0.93945  0.19103  0.21350  1.0000
  F   F78       1.0  0.95827  0.20727  0.70070  1.0000
  F   F79       1.0  0.95497  0.69000  0.22126  1.0000
  F   F80       1.0  0.95389  0.70444  0.72540  1.0000
  F   F81       1.0  0.14627  0.08636  0.03845  1.0000
  F   F82       1.0  0.14883  0.09717  0.54618  1.0000
  F   F83       1.0  0.15183  0.58330  0.04468  1.0000
  F   F84       1.0  0.14872  0.57772  0.54784  1.0000
  F   F85       1.0  0.39476  0.09551  0.04849  1.0000
  F   F86       1.0  0.40028  0.08257  0.53753  1.0000
  F   F87       1.0  0.39933  0.58036  0.03678  1.0000
  F   F88       1.0  0.40521  0.60218  0.52304  1.0000
  F   F89       1.0  0.64864  0.08319  0.03208  1.0000
  F   F90       1.0  0.65319  0.10799  0.52081  1.0000
  F   F91       1.0  0.65266  0.60669  0.02694  1.0000
  F   F92       1.0  0.65637  0.60943  0.53471  1.0000
  F   F93       1.0  0.89584  0.08785  0.03265  1.0000
  F   F94       1.0  0.90237  0.10785  0.53393  1.0000
  F   F95       1.0  0.89834  0.60430  0.03935  1.0000
  F   F96       1.0  0.90276  0.58754  0.54989  1.0000
  F   F97       1.0  0.15800  0.19047  0.13109  1.0000
  F   F98       1.0  0.14918  0.19965  0.62743  1.0000
  F   F99       1.0  0.15432  0.69091  0.11726  1.0000
  F   F100      1.0  0.14761  0.70073  0.62944  1.0000
  F   F101      1.0  0.40108  0.19857  0.14323  1.0000
  F   F102      1.0  0.40336  0.18652  0.63079  1.0000
  F   F103      1.0  0.40974  0.69154  0.12520  1.0000
  F   F104      1.0  0.40336  0.69705  0.62368  1.0000
  F   F105      1.0  0.65508  0.19185  0.10461  1.0000
  F   F106      1.0  0.64388  0.19616  0.64403  1.0000
  F   F107      1.0  0.64480  0.71773  0.10765  1.0000
  F   F108      1.0  0.65088  0.70261  0.63081  1.0000
  F   F109      1.0  0.89931  0.20614  0.10278  1.0000
  F   F110      1.0  0.90636  0.18732  0.63981  1.0000
  F   F111      1.0  0.90341  0.70897  0.12227  1.0000
  F   F112      1.0  0.90578  0.69726  0.63466  1.0000
  F   F113      1.0  0.09961  0.31035  0.36593  1.0000
  F   F114      1.0  0.09952  0.28977  0.87640  1.0000
  F   F115      1.0  0.09498  0.79021  0.38447  1.0000
  F   F116      1.0  0.09535  0.80041  0.87337  1.0000
  F   F117      1.0  0.34967  0.29997  0.39830  1.0000
  F   F118      1.0  0.34867  0.28961  0.89574  1.0000
  F   F119      1.0  0.34073  0.80728  0.38967  1.0000
  F   F120      1.0  0.34693  0.80574  0.86551  1.0000
  F   F121      1.0  0.59749  0.31545  0.36077  1.0000
  F   F122      1.0  0.60061  0.32077  0.88369  1.0000
  F   F123      1.0  0.60700  0.79375  0.37455  1.0000
  F   F124      1.0  0.59313  0.81841  0.86925  1.0000
  F   F125      1.0  0.84730  0.30230  0.36669  1.0000
  F   F126      1.0  0.85061  0.30697  0.86486  1.0000
  F   F127      1.0  0.85222  0.80440  0.36678  1.0000
  F   F128      1.0  0.84355  0.81837  0.87162  1.0000
  F   F129      1.0  0.08174  0.25001  0.13089  1.0000
  F   F130      1.0  0.06396  0.25285  0.62843  1.0000
  F   F131      1.0  0.06475  0.74651  0.14145  1.0000
  F   F132      1.0  0.06260  0.74522  0.64377  1.0000
  F   F133      1.0  0.31883  0.24974  0.13524  1.0000
  F   F134      1.0  0.32323  0.25261  0.62910  1.0000
  F   F135      1.0  0.31828  0.75330  0.14513  1.0000
  F   F136      1.0  0.31643  0.74643  0.64413  1.0000
  F   F137      1.0  0.56218  0.25257  0.12540  1.0000
  F   F138      1.0  0.56358  0.25094  0.64210  1.0000
  F   F139      1.0  0.55416  0.74802  0.16756  1.0000
  F   F140      1.0  0.56067  0.76089  0.63600  1.0000
  F   F141      1.0  0.81329  0.25341  0.14271  1.0000
  F   F142      1.0  0.81402  0.25375  0.65117  1.0000
  F   F143      1.0  0.81673  0.75012  0.14887  1.0000
  F   F144      1.0  0.81178  0.76003  0.63810  1.0000
  F   F145      1.0  0.12732  0.37802  0.09607  1.0000
  F   F146      1.0  0.12115  0.36504  0.61130  1.0000
  F   F147      1.0  0.12394  0.87518  0.10452  1.0000
  F   F148      1.0  0.12382  0.87635  0.60448  1.0000
  F   F149      1.0  0.37316  0.37555  0.11593  1.0000
  F   F150      1.0  0.37368  0.36456  0.61696  1.0000
  F   F151      1.0  0.37759  0.87580  0.10618  1.0000
  F   F152      1.0  0.36868  0.87452  0.61660  1.0000
  F   F153      1.0  0.62177  0.34345  0.12637  1.0000
  F   F154      1.0  0.62586  0.37794  0.58752  1.0000
  F   F155      1.0  0.62444  0.87870  0.10899  1.0000
  F   F156      1.0  0.62015  0.87673  0.60055  1.0000
  F   F157      1.0  0.87607  0.37622  0.09800  1.0000
  F   F158      1.0  0.87515  0.38444  0.60851  1.0000
  F   F159      1.0  0.87533  0.87631  0.11185  1.0000
  F   F160      1.0  0.87261  0.87786  0.59634  1.0000
  F   F161      1.0  0.19070  0.24678  0.35212  1.0000
  F   F162      1.0  0.18218  0.23737  0.85974  1.0000
  F   F163      1.0  0.17540  0.74076  0.37474  1.0000
  F   F164      1.0  0.18038  0.74073  0.86366  1.0000
  F   F165      1.0  0.43470  0.24226  0.36364  1.0000
  F   F166      1.0  0.44790  0.25483  0.84244  1.0000
  F   F167      1.0  0.43941  0.74775  0.35348  1.0000
  F   F168      1.0  0.43242  0.74246  0.86247  1.0000
  F   F169      1.0  0.68733  0.25055  0.35240  1.0000
  F   F170      1.0  0.68480  0.25453  0.84910  1.0000
  F   F171      1.0  0.69404  0.74153  0.33960  1.0000
  F   F172      1.0  0.68808  0.75398  0.84976  1.0000
  F   F173      1.0  0.94290  0.24421  0.33319  1.0000
  F   F174      1.0  0.93628  0.24790  0.86282  1.0000
  F   F175      1.0  0.93436  0.75090  0.35600  1.0000
  F   F176      1.0  0.92531  0.75611  0.87889  1.0000
  F   F177      1.0  0.12230  0.12757  0.40053  1.0000
  F   F178      1.0  0.12437  0.11489  0.89991  1.0000
  F   F179      1.0  0.13043  0.60716  0.39427  1.0000
  F   F180      1.0  0.12374  0.62376  0.90081  1.0000
  F   F181      1.0  0.37554  0.13192  0.38215  1.0000
  F   F182      1.0  0.37750  0.12987  0.90524  1.0000
  F   F183      1.0  0.37915  0.63674  0.37981  1.0000
  F   F184      1.0  0.37314  0.64383  0.88672  1.0000
  F   F185      1.0  0.62156  0.13139  0.40029  1.0000
  F   F186      1.0  0.62452  0.14881  0.88221  1.0000
  F   F187      1.0  0.63016  0.61931  0.40143  1.0000
  F   F188      1.0  0.62372  0.63613  0.87586  1.0000
  F   F189      1.0  0.87094  0.12149  0.40461  1.0000
  F   F190      1.0  0.87925  0.13660  0.86875  1.0000
  F   F191      1.0  0.87897  0.62242  0.40045  1.0000
  F   F192      1.0  0.87781  0.62671  0.89221  1.0000
  F   F193      1.0  0.00376  0.35417  0.10375  1.0000
  F   F194      1.0  0.01311  0.37370  0.56035  1.0000
  F   F195      1.0  0.00621  0.84861  0.08995  1.0000
  F   F196      1.0  0.00763  0.86566  0.56376  1.0000
  F   F197      1.0  0.25512  0.35080  0.08627  1.0000
  F   F198      1.0  0.25698  0.34776  0.58483  1.0000
  F   F199      1.0  0.25971  0.86497  0.08417  1.0000
  F   F200      1.0  0.25654  0.84362  0.58703  1.0000
  F   F201      1.0  0.50214  0.36148  0.07988  1.0000
  F   F202      1.0  0.51094  0.35904  0.57060  1.0000
  F   F203      1.0  0.51066  0.85563  0.07370  1.0000
  F   F204      1.0  0.50405  0.86458  0.57624  1.0000
  F   F205      1.0  0.75663  0.37515  0.05735  1.0000
  F   F206      1.0  0.76102  0.36744  0.57853  1.0000
  F   F207      1.0  0.76008  0.85222  0.07488  1.0000
  F   F208      1.0  0.75634  0.88520  0.56818  1.0000
  F   F209      1.0  0.07285  0.48741  0.17376  1.0000
  F   F210      1.0  0.06854  0.48089  0.68271  1.0000
  F   F211      1.0  0.06583  0.98149  0.19109  1.0000
  F   F212      1.0  0.06973  0.98653  0.68302  1.0000
  F   F213      1.0  0.32125  0.48601  0.17199  1.0000
  F   F214      1.0  0.31789  0.49023  0.66853  1.0000
  F   F215      1.0  0.31495  0.97654  0.20112  1.0000
  F   F216      1.0  0.31982  0.99422  0.66573  1.0000
  F   F217      1.0  0.57915  0.48666  0.16250  1.0000
  F   F218      1.0  0.57953  0.48497  0.66981  1.0000
  F   F219      1.0  0.56482  0.98198  0.17458  1.0000
  F   F220      1.0  0.57294  0.99263  0.65856  1.0000
  F   F221      1.0  0.81798  0.48455  0.17795  1.0000
  F   F222      1.0  0.82288  0.48902  0.66763  1.0000
  F   F223      1.0  0.81531  0.98916  0.17293  1.0000
  F   F224      1.0  0.81886  0.98974  0.66631  1.0000
  F   F225      1.0  0.23888  0.13830  0.43903  1.0000
  F   F226      1.0  0.24317  0.12111  0.92921  1.0000
  F   F227      1.0  0.23931  0.63773  0.42760  1.0000
  F   F228      1.0  0.24276  0.64228  0.93755  1.0000
  F   F229      1.0  0.49495  0.14119  0.41869  1.0000
  F   F230      1.0  0.49362  0.14327  0.91267  1.0000
  F   F231      1.0  0.49315  0.63978  0.43252  1.0000
  F   F232      1.0  0.48788  0.65036  0.91540  1.0000
  F   F233      1.0  0.74709  0.14775  0.40441  1.0000
  F   F234      1.0  0.74192  0.15421  0.90518  1.0000
  F   F235      1.0  0.74616  0.63893  0.43741  1.0000
  F   F236      1.0  0.74414  0.63377  0.92894  1.0000
  F   F237      1.0  0.99356  0.13368  0.43439  1.0000
  F   F238      1.0  0.99273  0.13774  0.92569  1.0000
  F   F239      1.0  0.99653  0.64885  0.40448  1.0000
  F   F240      1.0  0.99266  0.63974  0.93355  1.0000
  F   F241      1.0  0.17815  0.01343  0.32884  1.0000
  F   F242      1.0  0.17739  0.00499  0.83983  1.0000
  F   F243      1.0  0.18692  0.50130  0.33265  1.0000
  F   F244      1.0  0.17400  0.49711  0.84633  1.0000
  F   F245      1.0  0.43009  0.01272  0.33616  1.0000
  F   F246      1.0  0.42638  0.01861  0.83105  1.0000
  F   F247      1.0  0.43754  0.49794  0.35106  1.0000
  F   F248      1.0  0.42060  0.50614  0.84097  1.0000
  F   F249      1.0  0.67600  0.02288  0.32882  1.0000
  F   F250      1.0  0.67195  0.01991  0.82244  1.0000
  F   F251      1.0  0.68831  0.50649  0.33073  1.0000
  F   F252      1.0  0.67830  0.53694  0.82128  1.0000
  F   F253      1.0  0.93098  0.01537  0.32500  1.0000
  F   F254      1.0  0.93078  0.01973  0.81631  1.0000
  F   F255      1.0  0.92941  0.50750  0.33440  1.0000
  F   F256      1.0  0.93598  0.50854  0.82584  1.0000
  F   F257      1.0  0.00008  0.25365  0.00184  1.0000
  F   F258      1.0  0.00442  0.27050  0.48159  1.0000
  F   F259      1.0  0.00208  0.75307  0.01179  1.0000
  F   F260      1.0  0.99963  0.74421  0.50742  1.0000
  F   F261      1.0  0.25255  0.24085  0.99815  1.0000
  F   F262      1.0  0.25191  0.24977  0.50951  1.0000
  F   F263      1.0  0.24935  0.74624  0.01362  1.0000
  F   F264      1.0  0.24813  0.74891  0.50601  1.0000
  F   F265      1.0  0.49781  0.24883  0.99389  1.0000
  F   F266      1.0  0.49843  0.27248  0.47903  1.0000
  F   F267      1.0  0.50624  0.74399  0.00776  1.0000
  F   F268      1.0  0.49997  0.76310  0.48232  1.0000
  F   F269      1.0  0.74903  0.25072  0.99681  1.0000
  F   F270      1.0  0.75067  0.24971  0.50760  1.0000
  F   F271      1.0  0.74534  0.75115  0.99514  1.0000
  F   F272      1.0  0.75360  0.77856  0.48333  1.0000
  F   F273      1.0  0.12485  0.99948  0.25728  1.0000
  F   F274      1.0  0.13422  0.00430  0.74062  1.0000
  F   F275      1.0  0.13186  0.50303  0.24717  1.0000
  F   F276      1.0  0.12142  0.50057  0.75312  1.0000
  F   F277      1.0  0.38760  0.00930  0.22943  1.0000
  F   F278      1.0  0.37604  0.99424  0.75022  1.0000
  F   F279      1.0  0.38709  0.50059  0.24017  1.0000
  F   F280      1.0  0.37293  0.49796  0.75065  1.0000
  F   F281      1.0  0.61587  0.99150  0.25286  1.0000
  F   F282      1.0  0.61775  0.99977  0.74597  1.0000
  F   F283      1.0  0.62734  0.51113  0.24851  1.0000
  F   F284      1.0  0.63508  0.51809  0.73044  1.0000
  F   F285      1.0  0.87682  0.00174  0.23343  1.0000
  F   F286      1.0  0.87419  0.00557  0.74780  1.0000
  F   F287      1.0  0.87705  0.50670  0.24600  1.0000
  F   F288      1.0  0.86698  0.50537  0.77370  1.0000
  F   F289      1.0  0.04181  0.02192  0.03017  1.0000
  F   F290      1.0  0.04573  0.02184  0.51962  1.0000
  F   F291      1.0  0.04929  0.52424  0.01848  1.0000
  F   F292      1.0  0.03653  0.53413  0.53123  1.0000
  F   F293      1.0  0.29677  0.02318  0.03396  1.0000
  F   F294      1.0  0.29169  0.01384  0.53233  1.0000
  F   F295      1.0  0.29573  0.53046  0.03105  1.0000
  F   F296      1.0  0.28531  0.53044  0.53739  1.0000
  F   F297      1.0  0.54626  0.03113  0.00750  1.0000
  F   F298      1.0  0.53985  0.03464  0.52471  1.0000
  F   F299      1.0  0.53763  0.54309  0.03677  1.0000
  F   F300      1.0  0.55000  0.52530  0.51001  1.0000
  F   F301      1.0  0.78741  0.03146  0.02206  1.0000
  F   F302      1.0  0.78717  0.04796  0.52930  1.0000
  F   F303      1.0  0.80105  0.53341  0.01273  1.0000
  F   F304      1.0  0.79964  0.53453  0.51940  1.0000
  F   F305      1.0  0.23586  0.41157  0.22065  1.0000
  F   F306      1.0  0.23015  0.40392  0.73096  1.0000
  F   F307      1.0  0.23122  0.90569  0.23676  1.0000
  F   F308      1.0  0.23069  0.90251  0.74272  1.0000
  F   F309      1.0  0.48325  0.40817  0.23095  1.0000
  F   F310      1.0  0.48611  0.43752  0.71730  1.0000
  F   F311      1.0  0.48251  0.91275  0.22574  1.0000
  F   F312      1.0  0.47941  0.91289  0.74457  1.0000
  F   F313      1.0  0.73469  0.40901  0.22728  1.0000
  F   F314      1.0  0.72907  0.43295  0.72528  1.0000
  F   F315      1.0  0.73091  0.92166  0.23784  1.0000
  F   F316      1.0  0.72844  0.93641  0.71840  1.0000
  F   F317      1.0  0.98713  0.42133  0.22772  1.0000
  F   F318      1.0  0.98723  0.41192  0.72548  1.0000
  F   F319      1.0  0.98662  0.91613  0.22564  1.0000
  F   F320      1.0  0.98395  0.92361  0.71822  1.0000
  F   F321      1.0  0.20821  0.46399  0.47990  1.0000
  F   F322      1.0  0.20930  0.45459  0.98015  1.0000
  F   F323      1.0  0.20554  0.97042  0.48699  1.0000
  F   F324      1.0  0.20256  0.95965  0.98313  1.0000
  F   F325      1.0  0.45675  0.46326  0.48545  1.0000
  F   F326      1.0  0.46161  0.46826  0.96931  1.0000
  F   F327      1.0  0.45519  0.96540  0.48653  1.0000
  F   F328      1.0  0.45754  0.97631  0.96947  1.0000
  F   F329      1.0  0.71403  0.45963  0.48250  1.0000
  F   F330      1.0  0.69877  0.48059  0.98143  1.0000
  F   F331      1.0  0.70141  0.96964  0.48072  1.0000
  F   F332      1.0  0.71432  0.98584  0.96128  1.0000
  F   F333      1.0  0.95859  0.46605  0.47143  1.0000
  F   F334      1.0  0.95605  0.47645  0.97566  1.0000
  F   F335      1.0  0.95419  0.97470  0.46942  1.0000
  F   F336      1.0  0.96261  0.98431  0.96378  1.0000
  F   F337      1.0  0.00891  0.11639  0.26380  1.0000
  F   F338      1.0  0.01573  0.11561  0.76528  1.0000
  F   F339      1.0  0.01912  0.56797  0.27319  1.0000
  F   F340      1.0  0.01460  0.58315  0.77744  1.0000
  F   F341      1.0  0.26360  0.07732  0.29136  1.0000
  F   F342      1.0  0.26526  0.09639  0.76037  1.0000
  F   F343      1.0  0.26809  0.58277  0.26586  1.0000
  F   F344      1.0  0.26623  0.59992  0.76544  1.0000
  F   F345      1.0  0.51917  0.07587  0.27922  1.0000
  F   F346      1.0  0.51356  0.09560  0.75415  1.0000
  F   F347      1.0  0.52287  0.57658  0.28233  1.0000
  F   F348      1.0  0.51234  0.57461  0.76617  1.0000
  F   F349      1.0  0.76328  0.09529  0.26024  1.0000
  F   F350      1.0  0.76409  0.10748  0.74259  1.0000
  F   F351      1.0  0.76338  0.57467  0.29297  1.0000
  F   F352      1.0  0.76818  0.58709  0.75944  1.0000
  F   F353      1.0  0.10397  0.41169  0.45501  1.0000
  F   F354      1.0  0.09600  0.40103  0.96513  1.0000
  F   F355      1.0  0.09770  0.90067  0.45773  1.0000
  F   F356      1.0  0.09760  0.91120  0.95969  1.0000
  F   F357      1.0  0.34857  0.42599  0.46415  1.0000
  F   F358      1.0  0.34934  0.40416  0.97036  1.0000
  F   F359      1.0  0.35053  0.90202  0.47185  1.0000
  F   F360      1.0  0.35057  0.90395  0.95376  1.0000
  F   F361      1.0  0.60191  0.40753  0.44785  1.0000
  F   F362      1.0  0.59743  0.43166  0.96856  1.0000
  F   F363      1.0  0.59715  0.91545  0.44680  1.0000
  F   F364      1.0  0.59846  0.88123  0.97707  1.0000
  F   F365      1.0  0.85801  0.40116  0.45877  1.0000
  F   F366      1.0  0.85533  0.39321  0.96535  1.0000
  F   F367      1.0  0.84909  0.89941  0.45425  1.0000
  F   F368      1.0  0.85002  0.91261  0.96076  1.0000
  F   F369      1.0  0.04971  0.29648  0.27562  1.0000
  F   F370      1.0  0.04631  0.28335  0.77900  1.0000
  F   F371      1.0  0.04380  0.79478  0.28648  1.0000
  F   F372      1.0  0.04237  0.81196  0.79168  1.0000
  F   F373      1.0  0.30151  0.28484  0.30879  1.0000
  F   F374      1.0  0.30365  0.29172  0.78582  1.0000
  F   F375      1.0  0.29206  0.79625  0.29853  1.0000
  F   F376      1.0  0.29029  0.80051  0.80307  1.0000
  F   F377      1.0  0.54858  0.29454  0.27931  1.0000
  F   F378      1.0  0.55816  0.29753  0.78390  1.0000
  F   F379      1.0  0.55194  0.81188  0.28576  1.0000
  F   F380      1.0  0.54394  0.80152  0.79216  1.0000
  F   F381      1.0  0.79513  0.30836  0.27776  1.0000
  F   F382      1.0  0.78976  0.30335  0.79574  1.0000
  F   F383      1.0  0.78958  0.80514  0.29200  1.0000
  F   F384      1.0  0.78855  0.81289  0.78804  1.0000
