data_image0
_chemical_formula_structural       Hf96F384
_chemical_formula_sum              "Hf96 F384"
_cell_length_a       31.0208
_cell_length_b       15.5102
_cell_length_c       15.5025
_cell_angle_alpha    63.342
_cell_angle_beta     63.342
_cell_angle_gamma    80.1625

_space_group_name_H-M_alt    "P 1"
_space_group_IT_number       1

loop_
  _space_group_symop_operation_xyz
  'x, y, z'

loop_
  _atom_site_type_symbol
  _atom_site_label
  _atom_site_symmetry_multiplicity
  _atom_site_fract_x
  _atom_site_fract_y
  _atom_site_fract_z
  _atom_site_occupancy
  Hf  Hf1       1.0  0.19731  0.09793  0.38335  1.0000
  Hf  Hf2       1.0  0.19461  0.10917  0.87725  1.0000
  Hf  Hf3       1.0  0.19675  0.60198  0.37380  1.0000
  Hf  Hf4       1.0  0.19739  0.60448  0.87593  1.0000
  Hf  Hf5       1.0  0.44774  0.11035  0.37081  1.0000
  Hf  Hf6       1.0  0.44516  0.11120  0.87508  1.0000
  Hf  Hf7       1.0  0.44591  0.60543  0.37658  1.0000
  Hf  Hf8       1.0  0.44763  0.60233  0.87356  1.0000
  Hf  Hf9       1.0  0.69546  0.11768  0.36582  1.0000
  Hf  Hf10      1.0  0.69851  0.10691  0.87299  1.0000
  Hf  Hf11      1.0  0.69647  0.61442  0.36494  1.0000
  Hf  Hf12      1.0  0.70020  0.61612  0.86143  1.0000
  Hf  Hf13      1.0  0.94592  0.09944  0.38818  1.0000
  Hf  Hf14      1.0  0.94515  0.10979  0.87063  1.0000
  Hf  Hf15      1.0  0.94629  0.60701  0.37494  1.0000
  Hf  Hf16      1.0  0.94785  0.60366  0.86633  1.0000
  Hf  Hf17      1.0  0.05426  0.39178  0.12641  1.0000
  Hf  Hf18      1.0  0.05497  0.39365  0.61672  1.0000
  Hf  Hf19      1.0  0.05433  0.89278  0.12980  1.0000
  Hf  Hf20      1.0  0.05440  0.87926  0.63409  1.0000
  Hf  Hf21      1.0  0.29951  0.38872  0.13263  1.0000
  Hf  Hf22      1.0  0.30469  0.39701  0.62680  1.0000
  Hf  Hf23      1.0  0.30536  0.89438  0.11898  1.0000
  Hf  Hf24      1.0  0.30308  0.89312  0.63491  1.0000
  Hf  Hf25      1.0  0.55209  0.39816  0.12740  1.0000
  Hf  Hf26      1.0  0.55347  0.39967  0.62534  1.0000
  Hf  Hf27      1.0  0.55326  0.89221  0.12563  1.0000
  Hf  Hf28      1.0  0.55627  0.89593  0.61669  1.0000
  Hf  Hf29      1.0  0.80096  0.39540  0.12867  1.0000
  Hf  Hf30      1.0  0.80088  0.39529  0.61967  1.0000
  Hf  Hf31      1.0  0.80722  0.89270  0.12272  1.0000
  Hf  Hf32      1.0  0.80355  0.90251  0.62012  1.0000
  Hf  Hf33      1.0  0.05508  0.16908  0.42923  1.0000
  Hf  Hf34      1.0  0.05439  0.17996  0.92139  1.0000
  Hf  Hf35      1.0  0.05447  0.67697  0.42280  1.0000
  Hf  Hf36      1.0  0.05743  0.67062  0.92247  1.0000
  Hf  Hf37      1.0  0.30374  0.18783  0.42132  1.0000
  Hf  Hf38      1.0  0.30416  0.17591  0.92358  1.0000
  Hf  Hf39      1.0  0.30879  0.68133  0.41371  1.0000
  Hf  Hf40      1.0  0.30544  0.67858  0.92119  1.0000
  Hf  Hf41      1.0  0.55288  0.18931  0.41746  1.0000
  Hf  Hf42      1.0  0.55493  0.17600  0.91040  1.0000
  Hf  Hf43      1.0  0.55398  0.68576  0.41220  1.0000
  Hf  Hf44      1.0  0.55768  0.68132  0.91220  1.0000
  Hf  Hf45      1.0  0.80388  0.18347  0.41448  1.0000
  Hf  Hf46      1.0  0.80915  0.18565  0.91018  1.0000
  Hf  Hf47      1.0  0.80865  0.68146  0.41094  1.0000
  Hf  Hf48      1.0  0.80780  0.68667  0.91064  1.0000
  Hf  Hf49      1.0  0.15622  0.37873  0.34010  1.0000
  Hf  Hf50      1.0  0.15692  0.38335  0.84760  1.0000
  Hf  Hf51      1.0  0.16221  0.87824  0.34243  1.0000
  Hf  Hf52      1.0  0.15508  0.88001  0.84934  1.0000
  Hf  Hf53      1.0  0.40571  0.39465  0.33367  1.0000
  Hf  Hf54      1.0  0.40559  0.38861  0.83921  1.0000
  Hf  Hf55      1.0  0.40890  0.88704  0.33998  1.0000
  Hf  Hf56      1.0  0.40620  0.89012  0.83813  1.0000
  Hf  Hf57      1.0  0.65540  0.39053  0.33159  1.0000
  Hf  Hf58      1.0  0.65412  0.38868  0.83349  1.0000
  Hf  Hf59      1.0  0.66082  0.89115  0.32645  1.0000
  Hf  Hf60      1.0  0.66018  0.89420  0.82640  1.0000
  Hf  Hf61      1.0  0.91065  0.38403  0.32938  1.0000
  Hf  Hf62      1.0  0.90861  0.38902  0.83292  1.0000
  Hf  Hf63      1.0  0.90723  0.88722  0.33285  1.0000
  Hf  Hf64      1.0  0.91449  0.88616  0.82730  1.0000
  Hf  Hf65      1.0  0.19220  0.30693  0.09687  1.0000
  Hf  Hf66      1.0  0.19402  0.31880  0.58530  1.0000
  Hf  Hf67      1.0  0.19435  0.81712  0.09045  1.0000
  Hf  Hf68      1.0  0.19791  0.81233  0.58352  1.0000
  Hf  Hf69      1.0  0.44376  0.31486  0.08035  1.0000
  Hf  Hf70      1.0  0.44010  0.31704  0.58897  1.0000
  Hf  Hf71      1.0  0.44301  0.81444  0.08212  1.0000
  Hf  Hf72      1.0  0.44337  0.82317  0.58550  1.0000
  Hf  Hf73      1.0  0.69432  0.32141  0.07999  1.0000
  Hf  Hf74      1.0  0.69541  0.33054  0.57516  1.0000
  Hf  Hf75      1.0  0.69484  0.82224  0.07824  1.0000
  Hf  Hf76      1.0  0.69736  0.82690  0.57392  1.0000
  Hf  Hf77      1.0  0.94257  0.31579  0.08669  1.0000
  Hf  Hf78      1.0  0.94751  0.31752  0.58042  1.0000
  Hf  Hf79      1.0  0.94733  0.81184  0.08660  1.0000
  Hf  Hf80      1.0  0.94460  0.81275  0.58309  1.0000
  Hf  Hf81      1.0  0.08684  0.10513  0.17599  1.0000
  Hf  Hf82      1.0  0.09164  0.11234  0.67388  1.0000
  Hf  Hf83      1.0  0.09340  0.61411  0.16787  1.0000
  Hf  Hf84      1.0  0.09554  0.60242  0.66836  1.0000
  Hf  Hf85      1.0  0.34007  0.10515  0.17265  1.0000
  Hf  Hf86      1.0  0.34092  0.11722  0.66703  1.0000
  Hf  Hf87      1.0  0.34163  0.60214  0.17527  1.0000
  Hf  Hf88      1.0  0.34159  0.61267  0.66599  1.0000
  Hf  Hf89      1.0  0.59118  0.11260  0.16217  1.0000
  Hf  Hf90      1.0  0.59138  0.12218  0.66010  1.0000
  Hf  Hf91      1.0  0.59167  0.62258  0.15124  1.0000
  Hf  Hf92      1.0  0.59616  0.62679  0.65332  1.0000
  Hf  Hf93      1.0  0.83968  0.11533  0.16378  1.0000
  Hf  Hf94      1.0  0.83727  0.11285  0.67337  1.0000
  Hf  Hf95      1.0  0.84331  0.61471  0.15930  1.0000
  Hf  Hf96      1.0  0.84017  0.61384  0.66368  1.0000
  F   F1        1.0  0.07515  0.12194  0.31567  1.0000
  F   F2        1.0  0.07817  0.12325  0.80343  1.0000
  F   F3        1.0  0.07893  0.64122  0.29391  1.0000
  F   F4        1.0  0.07621  0.61809  0.81126  1.0000
  F   F5        1.0  0.32485  0.11228  0.31547  1.0000
  F   F6        1.0  0.32468  0.12724  0.81100  1.0000
  F   F7        1.0  0.33164  0.60565  0.31135  1.0000
  F   F8        1.0  0.32603  0.64383  0.79619  1.0000
  F   F9        1.0  0.58035  0.13683  0.30071  1.0000
  F   F10       1.0  0.57478  0.11938  0.80539  1.0000
  F   F11       1.0  0.58093  0.63726  0.29605  1.0000
  F   F12       1.0  0.58032  0.62331  0.79883  1.0000
  F   F13       1.0  0.82817  0.12987  0.30442  1.0000
  F   F14       1.0  0.82070  0.12055  0.81832  1.0000
  F   F15       1.0  0.82767  0.62731  0.29910  1.0000
  F   F16       1.0  0.82911  0.63855  0.79232  1.0000
  F   F17       1.0  0.18361  0.33443  0.44891  1.0000
  F   F18       1.0  0.19236  0.34118  0.94243  1.0000
  F   F19       1.0  0.18609  0.83635  0.45582  1.0000
  F   F20       1.0  0.18382  0.83224  0.95647  1.0000
  F   F21       1.0  0.42699  0.33610  0.45690  1.0000
  F   F22       1.0  0.43496  0.32630  0.94934  1.0000
  F   F23       1.0  0.43864  0.84922  0.44160  1.0000
  F   F24       1.0  0.44153  0.85162  0.92838  1.0000
  F   F25       1.0  0.67965  0.33818  0.45623  1.0000
  F   F26       1.0  0.68507  0.34937  0.94477  1.0000
  F   F27       1.0  0.69009  0.85120  0.43058  1.0000
  F   F28       1.0  0.68516  0.85328  0.93854  1.0000
  F   F29       1.0  0.94215  0.33220  0.44266  1.0000
  F   F30       1.0  0.93022  0.33365  0.95238  1.0000
  F   F31       1.0  0.92792  0.83146  0.45814  1.0000
  F   F32       1.0  0.94622  0.84344  0.93875  1.0000
  F   F33       1.0  0.16667  0.37522  0.19844  1.0000
  F   F34       1.0  0.17159  0.37284  0.70228  1.0000
  F   F35       1.0  0.17345  0.86205  0.20254  1.0000
  F   F36       1.0  0.17028  0.86062  0.71675  1.0000
  F   F37       1.0  0.41407  0.36087  0.20526  1.0000
  F   F38       1.0  0.41981  0.37171  0.70477  1.0000
  F   F39       1.0  0.41524  0.86557  0.19454  1.0000
  F   F40       1.0  0.41962  0.88956  0.68991  1.0000
  F   F41       1.0  0.66551  0.36313  0.19716  1.0000
  F   F42       1.0  0.66758  0.37329  0.69624  1.0000
  F   F43       1.0  0.67295  0.87668  0.18549  1.0000
  F   F44       1.0  0.66355  0.86335  0.70738  1.0000
  F   F45       1.0  0.92076  0.37561  0.19512  1.0000
  F   F46       1.0  0.92173  0.37334  0.69343  1.0000
  F   F47       1.0  0.91427  0.85613  0.20775  1.0000
  F   F48       1.0  0.92960  0.87079  0.69292  1.0000
  F   F49       1.0  0.06119  0.16118  0.05493  1.0000
  F   F50       1.0  0.06874  0.15516  0.55622  1.0000
  F   F51       1.0  0.06906  0.65255  0.05692  1.0000
  F   F52       1.0  0.07335  0.65914  0.54478  1.0000
  F   F53       1.0  0.31290  0.14709  0.06004  1.0000
  F   F54       1.0  0.31773  0.15573  0.54907  1.0000
  F   F55       1.0  0.32463  0.66586  0.05089  1.0000
  F   F56       1.0  0.31551  0.65411  0.55565  1.0000
  F   F57       1.0  0.56534  0.15728  0.04601  1.0000
  F   F58       1.0  0.55684  0.14457  0.56485  1.0000
  F   F59       1.0  0.56021  0.65900  0.05629  1.0000
  F   F60       1.0  0.57280  0.67475  0.53294  1.0000
  F   F61       1.0  0.81649  0.16038  0.04840  1.0000
  F   F62       1.0  0.81991  0.16856  0.54254  1.0000
  F   F63       1.0  0.82378  0.66947  0.03726  1.0000
  F   F64       1.0  0.81406  0.66352  0.54655  1.0000
  F   F65       1.0  0.19430  0.19516  0.22116  1.0000
  F   F66       1.0  0.19816  0.19965  0.71944  1.0000
  F   F67       1.0  0.20535  0.70307  0.21522  1.0000
  F   F68       1.0  0.20547  0.70203  0.70598  1.0000
  F   F69       1.0  0.46082  0.19395  0.19775  1.0000
  F   F70       1.0  0.45804  0.20805  0.70220  1.0000
  F   F71       1.0  0.45052  0.70093  0.20045  1.0000
  F   F72       1.0  0.44924  0.70488  0.71340  1.0000
  F   F73       1.0  0.71398  0.20743  0.19329  1.0000
  F   F74       1.0  0.70489  0.20675  0.70177  1.0000
  F   F75       1.0  0.71335  0.70771  0.19447  1.0000
  F   F76       1.0  0.70965  0.71135  0.70842  1.0000
  F   F77       1.0  0.95263  0.20349  0.21376  1.0000
  F   F78       1.0  0.95520  0.20310  0.70107  1.0000
  F   F79       1.0  0.94957  0.68734  0.21539  1.0000
  F   F80       1.0  0.95152  0.69999  0.71640  1.0000
  F   F81       1.0  0.14752  0.08427  0.03657  1.0000
  F   F82       1.0  0.15665  0.08803  0.53644  1.0000
  F   F83       1.0  0.15153  0.59081  0.03825  1.0000
  F   F84       1.0  0.15444  0.56807  0.54023  1.0000
  F   F85       1.0  0.40103  0.08540  0.05071  1.0000
  F   F86       1.0  0.39711  0.08665  0.54264  1.0000
  F   F87       1.0  0.40707  0.58010  0.03232  1.0000
  F   F88       1.0  0.39994  0.59045  0.53845  1.0000
  F   F89       1.0  0.64837  0.08931  0.03893  1.0000
  F   F90       1.0  0.64959  0.12338  0.51937  1.0000
  F   F91       1.0  0.65133  0.60011  0.03608  1.0000
  F   F92       1.0  0.64941  0.60232  0.53228  1.0000
  F   F93       1.0  0.89874  0.10317  0.02028  1.0000
  F   F94       1.0  0.89562  0.07439  0.54926  1.0000
  F   F95       1.0  0.90043  0.57466  0.03562  1.0000
  F   F96       1.0  0.89855  0.58181  0.53295  1.0000
  F   F97       1.0  0.14698  0.19146  0.13373  1.0000
  F   F98       1.0  0.14368  0.20148  0.63101  1.0000
  F   F99       1.0  0.15022  0.69636  0.13238  1.0000
  F   F100      1.0  0.15592  0.67827  0.61789  1.0000
  F   F101      1.0  0.39550  0.20332  0.13438  1.0000
  F   F102      1.0  0.40286  0.19918  0.63367  1.0000
  F   F103      1.0  0.40238  0.69859  0.10790  1.0000
  F   F104      1.0  0.39919  0.71226  0.62008  1.0000
  F   F105      1.0  0.65657  0.19248  0.12206  1.0000
  F   F106      1.0  0.64908  0.19942  0.64318  1.0000
  F   F107      1.0  0.65262  0.70545  0.11926  1.0000
  F   F108      1.0  0.65838  0.70394  0.61169  1.0000
  F   F109      1.0  0.89903  0.19791  0.12189  1.0000
  F   F110      1.0  0.89489  0.19293  0.62371  1.0000
  F   F111      1.0  0.89842  0.70642  0.11307  1.0000
  F   F112      1.0  0.90223  0.68541  0.62784  1.0000
  F   F113      1.0  0.10048  0.28113  0.38754  1.0000
  F   F114      1.0  0.09833  0.30528  0.89684  1.0000
  F   F115      1.0  0.10005  0.80045  0.36301  1.0000
  F   F116      1.0  0.09443  0.78835  0.87892  1.0000
  F   F117      1.0  0.34063  0.31434  0.38541  1.0000
  F   F118      1.0  0.34743  0.30311  0.87938  1.0000
  F   F119      1.0  0.34703  0.80076  0.39351  1.0000
  F   F120      1.0  0.34670  0.80374  0.87401  1.0000
  F   F121      1.0  0.59295  0.31555  0.38479  1.0000
  F   F122      1.0  0.59634  0.30320  0.88854  1.0000
  F   F123      1.0  0.60393  0.81297  0.36485  1.0000
  F   F124      1.0  0.59897  0.80076  0.89384  1.0000
  F   F125      1.0  0.85257  0.29449  0.35170  1.0000
  F   F126      1.0  0.85090  0.30870  0.86347  1.0000
  F   F127      1.0  0.84633  0.82310  0.37660  1.0000
  F   F128      1.0  0.85187  0.80320  0.85414  1.0000
  F   F129      1.0  0.06524  0.25565  0.13884  1.0000
  F   F130      1.0  0.05691  0.24982  0.65470  1.0000
  F   F131      1.0  0.06652  0.75249  0.13622  1.0000
  F   F132      1.0  0.06337  0.73940  0.65219  1.0000
  F   F133      1.0  0.31339  0.24887  0.13884  1.0000
  F   F134      1.0  0.31755  0.25723  0.63919  1.0000
  F   F135      1.0  0.31423  0.74772  0.16005  1.0000
  F   F136      1.0  0.31205  0.75229  0.63691  1.0000
  F   F137      1.0  0.56541  0.25252  0.14254  1.0000
  F   F138      1.0  0.57351  0.26215  0.61998  1.0000
  F   F139      1.0  0.56383  0.75736  0.14030  1.0000
  F   F140      1.0  0.57130  0.76013  0.62395  1.0000
  F   F141      1.0  0.81552  0.25333  0.13511  1.0000
  F   F142      1.0  0.80435  0.25671  0.64882  1.0000
  F   F143      1.0  0.81291  0.75591  0.14713  1.0000
  F   F144      1.0  0.81391  0.75565  0.63500  1.0000
  F   F145      1.0  0.12562  0.36342  0.11525  1.0000
  F   F146      1.0  0.12368  0.37191  0.60730  1.0000
  F   F147      1.0  0.12420  0.88457  0.10003  1.0000
  F   F148      1.0  0.12265  0.84607  0.62956  1.0000
  F   F149      1.0  0.37288  0.37793  0.09044  1.0000
  F   F150      1.0  0.36977  0.36014  0.63062  1.0000
  F   F151      1.0  0.37488  0.87854  0.08807  1.0000
  F   F152      1.0  0.37439  0.87891  0.61318  1.0000
  F   F153      1.0  0.62361  0.37721  0.10276  1.0000
  F   F154      1.0  0.62378  0.38330  0.60488  1.0000
  F   F155      1.0  0.62014  0.86513  0.11879  1.0000
  F   F156      1.0  0.62870  0.87262  0.58757  1.0000
  F   F157      1.0  0.87456  0.36807  0.11316  1.0000
  F   F158      1.0  0.87287  0.37909  0.58930  1.0000
  F   F159      1.0  0.87791  0.87967  0.09537  1.0000
  F   F160      1.0  0.87290  0.84755  0.62366  1.0000
  F   F161      1.0  0.18994  0.24545  0.34525  1.0000
  F   F162      1.0  0.18246  0.24650  0.86273  1.0000
  F   F163      1.0  0.18049  0.73226  0.38308  1.0000
  F   F164      1.0  0.17964  0.74471  0.87233  1.0000
  F   F165      1.0  0.42938  0.24459  0.35439  1.0000
  F   F166      1.0  0.42960  0.24217  0.86494  1.0000
  F   F167      1.0  0.43864  0.75348  0.34039  1.0000
  F   F168      1.0  0.43462  0.75084  0.85650  1.0000
  F   F169      1.0  0.68850  0.26756  0.34229  1.0000
  F   F170      1.0  0.68262  0.24965  0.86185  1.0000
  F   F171      1.0  0.69599  0.75697  0.33492  1.0000
  F   F172      1.0  0.68849  0.75638  0.85409  1.0000
  F   F173      1.0  0.92404  0.23996  0.37841  1.0000
  F   F174      1.0  0.93645  0.25798  0.84485  1.0000
  F   F175      1.0  0.93982  0.74705  0.35315  1.0000
  F   F176      1.0  0.92827  0.74077  0.86611  1.0000
  F   F177      1.0  0.12392  0.11095  0.40688  1.0000
  F   F178      1.0  0.12066  0.14037  0.88500  1.0000
  F   F179      1.0  0.12522  0.60835  0.39741  1.0000
  F   F180      1.0  0.12943  0.63339  0.88222  1.0000
  F   F181      1.0  0.37147  0.13579  0.39028  1.0000
  F   F182      1.0  0.37311  0.12931  0.89965  1.0000
  F   F183      1.0  0.37480  0.63577  0.38885  1.0000
  F   F184      1.0  0.37539  0.61996  0.89311  1.0000
  F   F185      1.0  0.62957  0.16497  0.36567  1.0000
  F   F186      1.0  0.62712  0.13227  0.87945  1.0000
  F   F187      1.0  0.62594  0.63946  0.38300  1.0000
  F   F188      1.0  0.62394  0.63741  0.89501  1.0000
  F   F189      1.0  0.88177  0.11124  0.39327  1.0000
  F   F190      1.0  0.88113  0.13957  0.86404  1.0000
  F   F191      1.0  0.87425  0.63751  0.39187  1.0000
  F   F192      1.0  0.87782  0.62082  0.88326  1.0000
  F   F193      1.0  0.00695  0.37042  0.07613  1.0000
  F   F194      1.0  0.00861  0.36492  0.56252  1.0000
  F   F195      1.0  0.00333  0.86970  0.08670  1.0000
  F   F196      1.0  0.01280  0.85930  0.56766  1.0000
  F   F197      1.0  0.25366  0.36353  0.07880  1.0000
  F   F198      1.0  0.25548  0.36641  0.57037  1.0000
  F   F199      1.0  0.25962  0.84832  0.08416  1.0000
  F   F200      1.0  0.25393  0.85393  0.58761  1.0000
  F   F201      1.0  0.50617  0.35798  0.07774  1.0000
  F   F202      1.0  0.50680  0.36709  0.57009  1.0000
  F   F203      1.0  0.50180  0.85395  0.09152  1.0000
  F   F204      1.0  0.50984  0.85133  0.58127  1.0000
  F   F205      1.0  0.75499  0.37800  0.07425  1.0000
  F   F206      1.0  0.75884  0.37963  0.54518  1.0000
  F   F207      1.0  0.75834  0.86927  0.06887  1.0000
  F   F208      1.0  0.76152  0.86227  0.55576  1.0000
  F   F209      1.0  0.07430  0.48104  0.16660  1.0000
  F   F210      1.0  0.07398  0.48045  0.67513  1.0000
  F   F211      1.0  0.06117  0.98548  0.19156  1.0000
  F   F212      1.0  0.07817  0.97648  0.66495  1.0000
  F   F213      1.0  0.31698  0.47964  0.18028  1.0000
  F   F214      1.0  0.31813  0.48800  0.67417  1.0000
  F   F215      1.0  0.31393  0.98282  0.18490  1.0000
  F   F216      1.0  0.31006  0.98564  0.69008  1.0000
  F   F217      1.0  0.55979  0.48884  0.18410  1.0000
  F   F218      1.0  0.56335  0.48483  0.68942  1.0000
  F   F219      1.0  0.57441  0.98024  0.17288  1.0000
  F   F220      1.0  0.57464  0.98909  0.66450  1.0000
  F   F221      1.0  0.81815  0.48820  0.18083  1.0000
  F   F222      1.0  0.82236  0.49306  0.66565  1.0000
  F   F223      1.0  0.81791  0.98896  0.18083  1.0000
  F   F224      1.0  0.81604  0.98298  0.67928  1.0000
  F   F225      1.0  0.24395  0.13542  0.42970  1.0000
  F   F226      1.0  0.24149  0.13470  0.92243  1.0000
  F   F227      1.0  0.24872  0.64867  0.40730  1.0000
  F   F228      1.0  0.24157  0.63856  0.93158  1.0000
  F   F229      1.0  0.48988  0.14082  0.42203  1.0000
  F   F230      1.0  0.49027  0.13857  0.93544  1.0000
  F   F231      1.0  0.49405  0.62526  0.43124  1.0000
  F   F232      1.0  0.49539  0.63018  0.92083  1.0000
  F   F233      1.0  0.74184  0.13980  0.41854  1.0000
  F   F234      1.0  0.74094  0.14841  0.92821  1.0000
  F   F235      1.0  0.74325  0.62199  0.42349  1.0000
  F   F236      1.0  0.74587  0.63844  0.91570  1.0000
  F   F237      1.0  0.99030  0.14051  0.43917  1.0000
  F   F238      1.0  0.99040  0.13983  0.93553  1.0000
  F   F239      1.0  0.99428  0.63833  0.42847  1.0000
  F   F240      1.0  0.98989  0.63679  0.92767  1.0000
  F   F241      1.0  0.18655  0.00111  0.32869  1.0000
  F   F242      1.0  0.16971  0.00561  0.85644  1.0000
  F   F243      1.0  0.18819  0.50890  0.31171  1.0000
  F   F244      1.0  0.18197  0.51344  0.81914  1.0000
  F   F245      1.0  0.43241  0.01301  0.33232  1.0000
  F   F246      1.0  0.42986  0.02263  0.81562  1.0000
  F   F247      1.0  0.43187  0.51837  0.32788  1.0000
  F   F248      1.0  0.43713  0.51258  0.81039  1.0000
  F   F249      1.0  0.67814  0.02158  0.33372  1.0000
  F   F250      1.0  0.68252  0.00971  0.83721  1.0000
  F   F251      1.0  0.68231  0.50979  0.33176  1.0000
  F   F252      1.0  0.67936  0.51861  0.82747  1.0000
  F   F253      1.0  0.93869  0.01133  0.31125  1.0000
  F   F254      1.0  0.92845  0.01367  0.83091  1.0000
  F   F255      1.0  0.92219  0.50769  0.35058  1.0000
  F   F256      1.0  0.94029  0.51074  0.80714  1.0000
  F   F257      1.0  0.99893  0.26499  0.99379  1.0000
  F   F258      1.0  0.99935  0.23585  0.52184  1.0000
  F   F259      1.0  0.00715  0.75392  0.99951  1.0000
  F   F260      1.0  0.00224  0.74305  0.49999  1.0000
  F   F261      1.0  0.24562  0.22808  0.01489  1.0000
  F   F262      1.0  0.24038  0.23656  0.52391  1.0000
  F   F263      1.0  0.25327  0.75172  0.00385  1.0000
  F   F264      1.0  0.25297  0.74573  0.49631  1.0000
  F   F265      1.0  0.50059  0.25868  0.98726  1.0000
  F   F266      1.0  0.50033  0.26672  0.48671  1.0000
  F   F267      1.0  0.50259  0.74619  0.99895  1.0000
  F   F268      1.0  0.49907  0.75488  0.48946  1.0000
  F   F269      1.0  0.75244  0.25843  0.98782  1.0000
  F   F270      1.0  0.74984  0.24633  0.50219  1.0000
  F   F271      1.0  0.75088  0.74269  0.99658  1.0000
  F   F272      1.0  0.74603  0.73998  0.49334  1.0000
  F   F273      1.0  0.12669  0.99750  0.25266  1.0000
  F   F274      1.0  0.12350  0.99833  0.75535  1.0000
  F   F275      1.0  0.11360  0.48962  0.28089  1.0000
  F   F276      1.0  0.12527  0.48936  0.76417  1.0000
  F   F277      1.0  0.37922  0.99708  0.25473  1.0000
  F   F278      1.0  0.36618  0.00405  0.76620  1.0000
  F   F279      1.0  0.39045  0.50720  0.22866  1.0000
  F   F280      1.0  0.37086  0.50487  0.76273  1.0000
  F   F281      1.0  0.63007  0.00512  0.24256  1.0000
  F   F282      1.0  0.63088  0.00204  0.74381  1.0000
  F   F283      1.0  0.62052  0.50527  0.24310  1.0000
  F   F284      1.0  0.63263  0.50973  0.73387  1.0000
  F   F285      1.0  0.87610  0.99767  0.24022  1.0000
  F   F286      1.0  0.87601  0.00056  0.74981  1.0000
  F   F287      1.0  0.87992  0.51012  0.23845  1.0000
  F   F288      1.0  0.86775  0.49524  0.76209  1.0000
  F   F289      1.0  0.04688  0.03243  0.02529  1.0000
  F   F290      1.0  0.03492  0.02441  0.54844  1.0000
  F   F291      1.0  0.03820  0.53170  0.02567  1.0000
  F   F292      1.0  0.04275  0.53547  0.52605  1.0000
  F   F293      1.0  0.28364  0.02557  0.03228  1.0000
  F   F294      1.0  0.28545  0.02727  0.54263  1.0000
  F   F295      1.0  0.29350  0.53002  0.02929  1.0000
  F   F296      1.0  0.28218  0.53684  0.53589  1.0000
  F   F297      1.0  0.53618  0.02361  0.03373  1.0000
  F   F298      1.0  0.54178  0.03240  0.51635  1.0000
  F   F299      1.0  0.53803  0.52420  0.03049  1.0000
  F   F300      1.0  0.54883  0.54015  0.52483  1.0000
  F   F301      1.0  0.80470  0.02506  0.01111  1.0000
  F   F302      1.0  0.79069  0.03725  0.53199  1.0000
  F   F303      1.0  0.79119  0.53938  0.02791  1.0000
  F   F304      1.0  0.79670  0.53268  0.51003  1.0000
  F   F305      1.0  0.22912  0.40680  0.23399  1.0000
  F   F306      1.0  0.23536  0.40391  0.73256  1.0000
  F   F307      1.0  0.23718  0.88753  0.24553  1.0000
  F   F308      1.0  0.23051  0.92641  0.72828  1.0000
  F   F309      1.0  0.47998  0.40836  0.23650  1.0000
  F   F310      1.0  0.48661  0.40127  0.73516  1.0000
  F   F311      1.0  0.48186  0.91885  0.23307  1.0000
  F   F312      1.0  0.48694  0.91835  0.72268  1.0000
  F   F313      1.0  0.73318  0.43811  0.20853  1.0000
  F   F314      1.0  0.73125  0.40644  0.73292  1.0000
  F   F315      1.0  0.73976  0.93208  0.20487  1.0000
  F   F316      1.0  0.73500  0.93159  0.70163  1.0000
  F   F317      1.0  0.98668  0.39226  0.24668  1.0000
  F   F318      1.0  0.99351  0.39911  0.73045  1.0000
  F   F319      1.0  0.98567  0.90971  0.22471  1.0000
  F   F320      1.0  0.98528  0.90563  0.73428  1.0000
  F   F321      1.0  0.21330  0.46689  0.47101  1.0000
  F   F322      1.0  0.20457  0.47235  0.97937  1.0000
  F   F323      1.0  0.21229  0.96405  0.47903  1.0000
  F   F324      1.0  0.21208  0.96322  0.98545  1.0000
  F   F325      1.0  0.45461  0.46499  0.47331  1.0000
  F   F326      1.0  0.46195  0.45826  0.96045  1.0000
  F   F327      1.0  0.46534  0.97242  0.45737  1.0000
  F   F328      1.0  0.46285  0.97312  0.96257  1.0000
  F   F329      1.0  0.70645  0.48208  0.46100  1.0000
  F   F330      1.0  0.70519  0.47530  0.98321  1.0000
  F   F331      1.0  0.70995  0.97343  0.47561  1.0000
  F   F332      1.0  0.70220  0.97566  0.98210  1.0000
  F   F333      1.0  0.95650  0.46237  0.48687  1.0000
  F   F334      1.0  0.95970  0.46546  0.97046  1.0000
  F   F335      1.0  0.95936  0.96160  0.47298  1.0000
  F   F336      1.0  0.95867  0.98021  0.97484  1.0000
  F   F337      1.0  0.01336  0.09622  0.27965  1.0000
  F   F338      1.0  0.01713  0.08471  0.77066  1.0000
  F   F339      1.0  0.01543  0.59598  0.26325  1.0000
  F   F340      1.0  0.01563  0.58287  0.77398  1.0000
  F   F341      1.0  0.26176  0.08371  0.27471  1.0000
  F   F342      1.0  0.26292  0.10567  0.76293  1.0000
  F   F343      1.0  0.26487  0.59327  0.26563  1.0000
  F   F344      1.0  0.26505  0.58113  0.77542  1.0000
  F   F345      1.0  0.52071  0.08481  0.26971  1.0000
  F   F346      1.0  0.51625  0.10590  0.76252  1.0000
  F   F347      1.0  0.51620  0.60490  0.26217  1.0000
  F   F348      1.0  0.51604  0.61152  0.75549  1.0000
  F   F349      1.0  0.76335  0.08799  0.27608  1.0000
  F   F350      1.0  0.76655  0.07437  0.78484  1.0000
  F   F351      1.0  0.76700  0.59697  0.25969  1.0000
  F   F352      1.0  0.76784  0.58342  0.77155  1.0000
  F   F353      1.0  0.10108  0.40196  0.46265  1.0000
  F   F354      1.0  0.10231  0.42050  0.96505  1.0000
  F   F355      1.0  0.10231  0.90267  0.46496  1.0000
  F   F356      1.0  0.08770  0.89550  0.96941  1.0000
  F   F357      1.0  0.35110  0.42717  0.46465  1.0000
  F   F358      1.0  0.34163  0.41548  0.95030  1.0000
  F   F359      1.0  0.35162  0.90219  0.46816  1.0000
  F   F360      1.0  0.34069  0.90416  0.96599  1.0000
  F   F361      1.0  0.60343  0.42092  0.45204  1.0000
  F   F362      1.0  0.60071  0.42786  0.95618  1.0000
  F   F363      1.0  0.60059  0.91190  0.44849  1.0000
  F   F364      1.0  0.59783  0.92412  0.95971  1.0000
  F   F365      1.0  0.84467  0.39662  0.44596  1.0000
  F   F366      1.0  0.84636  0.40740  0.96633  1.0000
  F   F367      1.0  0.85259  0.93226  0.46571  1.0000
  F   F368      1.0  0.85585  0.88049  0.97334  1.0000
  F   F369      1.0  0.05428  0.28803  0.29219  1.0000
  F   F370      1.0  0.05716  0.29115  0.78151  1.0000
  F   F371      1.0  0.04476  0.80406  0.28997  1.0000
  F   F372      1.0  0.04335  0.79392  0.78932  1.0000
  F   F373      1.0  0.29597  0.29576  0.28659  1.0000
  F   F374      1.0  0.29719  0.28847  0.79967  1.0000
  F   F375      1.0  0.30779  0.79612  0.27993  1.0000
  F   F376      1.0  0.29592  0.80879  0.78910  1.0000
  F   F377      1.0  0.54265  0.30032  0.29034  1.0000
  F   F378      1.0  0.54768  0.28653  0.78605  1.0000
  F   F379      1.0  0.53785  0.80105  0.29026  1.0000
  F   F380      1.0  0.55156  0.79582  0.78437  1.0000
  F   F381      1.0  0.78641  0.30514  0.28328  1.0000
  F   F382      1.0  0.80021  0.30047  0.77366  1.0000
  F   F383      1.0  0.79957  0.79654  0.28921  1.0000
  F   F384      1.0  0.79011  0.80027  0.78980  1.0000
