data_image0
_chemical_formula_structural       Hf96F384
_chemical_formula_sum              "Hf96 F384"
_cell_length_a       31.062
_cell_length_b       15.5253
_cell_length_c       15.5119
_cell_angle_alpha    63.342
_cell_angle_beta     63.342
_cell_angle_gamma    80.1625

_space_group_name_H-M_alt    "P 1"
_space_group_IT_number       1

loop_
  _space_group_symop_operation_xyz
  'x, y, z'

loop_
  _atom_site_type_symbol
  _atom_site_label
  _atom_site_symmetry_multiplicity
  _atom_site_fract_x
  _atom_site_fract_y
  _atom_site_fract_z
  _atom_site_occupancy
  Hf  Hf1       1.0  0.19496  0.11412  0.36967  1.0000
  Hf  Hf2       1.0  0.19364  0.10832  0.87203  1.0000
  Hf  Hf3       1.0  0.19579  0.61210  0.37692  1.0000
  Hf  Hf4       1.0  0.19565  0.60265  0.87829  1.0000
  Hf  Hf5       1.0  0.44699  0.11511  0.37445  1.0000
  Hf  Hf6       1.0  0.44410  0.10478  0.87972  1.0000
  Hf  Hf7       1.0  0.44564  0.61466  0.37248  1.0000
  Hf  Hf8       1.0  0.44541  0.61686  0.87628  1.0000
  Hf  Hf9       1.0  0.69968  0.10382  0.38691  1.0000
  Hf  Hf10      1.0  0.69476  0.10693  0.88335  1.0000
  Hf  Hf11      1.0  0.69420  0.60410  0.37969  1.0000
  Hf  Hf12      1.0  0.69592  0.59970  0.88344  1.0000
  Hf  Hf13      1.0  0.94428  0.10274  0.37623  1.0000
  Hf  Hf14      1.0  0.95092  0.11040  0.86256  1.0000
  Hf  Hf15      1.0  0.95122  0.60755  0.36665  1.0000
  Hf  Hf16      1.0  0.94939  0.60354  0.87190  1.0000
  Hf  Hf17      1.0  0.05522  0.38788  0.12270  1.0000
  Hf  Hf18      1.0  0.05553  0.39304  0.61796  1.0000
  Hf  Hf19      1.0  0.05399  0.89516  0.12076  1.0000
  Hf  Hf20      1.0  0.05252  0.89153  0.62307  1.0000
  Hf  Hf21      1.0  0.30497  0.39894  0.11885  1.0000
  Hf  Hf22      1.0  0.30358  0.38889  0.62660  1.0000
  Hf  Hf23      1.0  0.29864  0.88231  0.14013  1.0000
  Hf  Hf24      1.0  0.30205  0.89449  0.63467  1.0000
  Hf  Hf25      1.0  0.55353  0.39492  0.12337  1.0000
  Hf  Hf26      1.0  0.55277  0.38951  0.63293  1.0000
  Hf  Hf27      1.0  0.55469  0.89474  0.12458  1.0000
  Hf  Hf28      1.0  0.55107  0.89080  0.62383  1.0000
  Hf  Hf29      1.0  0.79909  0.38894  0.13044  1.0000
  Hf  Hf30      1.0  0.80893  0.38484  0.62425  1.0000
  Hf  Hf31      1.0  0.80710  0.89005  0.12685  1.0000
  Hf  Hf32      1.0  0.80224  0.88868  0.62744  1.0000
  Hf  Hf33      1.0  0.05848  0.18471  0.41372  1.0000
  Hf  Hf34      1.0  0.05317  0.18262  0.92043  1.0000
  Hf  Hf35      1.0  0.05345  0.68566  0.41908  1.0000
  Hf  Hf36      1.0  0.05816  0.67690  0.91689  1.0000
  Hf  Hf37      1.0  0.30658  0.17642  0.41586  1.0000
  Hf  Hf38      1.0  0.30575  0.18700  0.91301  1.0000
  Hf  Hf39      1.0  0.30410  0.68309  0.42317  1.0000
  Hf  Hf40      1.0  0.30700  0.68844  0.90782  1.0000
  Hf  Hf41      1.0  0.55925  0.17862  0.42057  1.0000
  Hf  Hf42      1.0  0.55606  0.18218  0.92372  1.0000
  Hf  Hf43      1.0  0.55323  0.67141  0.42407  1.0000
  Hf  Hf44      1.0  0.55700  0.69172  0.91478  1.0000
  Hf  Hf45      1.0  0.80783  0.18440  0.41345  1.0000
  Hf  Hf46      1.0  0.80414  0.17842  0.92487  1.0000
  Hf  Hf47      1.0  0.80566  0.66908  0.42311  1.0000
  Hf  Hf48      1.0  0.80526  0.67177  0.92138  1.0000
  Hf  Hf49      1.0  0.15850  0.39452  0.32263  1.0000
  Hf  Hf50      1.0  0.15929  0.38794  0.83026  1.0000
  Hf  Hf51      1.0  0.15888  0.88773  0.33487  1.0000
  Hf  Hf52      1.0  0.15636  0.89011  0.83092  1.0000
  Hf  Hf53      1.0  0.40634  0.39502  0.33437  1.0000
  Hf  Hf54      1.0  0.41316  0.39203  0.82523  1.0000
  Hf  Hf55      1.0  0.40462  0.89509  0.33291  1.0000
  Hf  Hf56      1.0  0.40587  0.88537  0.83903  1.0000
  Hf  Hf57      1.0  0.65907  0.38962  0.33495  1.0000
  Hf  Hf58      1.0  0.65717  0.39132  0.83271  1.0000
  Hf  Hf59      1.0  0.65653  0.88386  0.33990  1.0000
  Hf  Hf60      1.0  0.65490  0.88531  0.84273  1.0000
  Hf  Hf61      1.0  0.91198  0.39564  0.32536  1.0000
  Hf  Hf62      1.0  0.91239  0.39622  0.82614  1.0000
  Hf  Hf63      1.0  0.91207  0.89028  0.33390  1.0000
  Hf  Hf64      1.0  0.91071  0.88586  0.83732  1.0000
  Hf  Hf65      1.0  0.19377  0.31638  0.07572  1.0000
  Hf  Hf66      1.0  0.19527  0.30852  0.58377  1.0000
  Hf  Hf67      1.0  0.19679  0.82549  0.07830  1.0000
  Hf  Hf68      1.0  0.19141  0.82180  0.58027  1.0000
  Hf  Hf69      1.0  0.44419  0.32434  0.07475  1.0000
  Hf  Hf70      1.0  0.44388  0.31947  0.58245  1.0000
  Hf  Hf71      1.0  0.43962  0.81276  0.08828  1.0000
  Hf  Hf72      1.0  0.44257  0.83047  0.58042  1.0000
  Hf  Hf73      1.0  0.69155  0.30908  0.08662  1.0000
  Hf  Hf74      1.0  0.69515  0.31542  0.58575  1.0000
  Hf  Hf75      1.0  0.69773  0.81755  0.07735  1.0000
  Hf  Hf76      1.0  0.69476  0.81017  0.58674  1.0000
  Hf  Hf77      1.0  0.94060  0.31447  0.09341  1.0000
  Hf  Hf78      1.0  0.94831  0.31661  0.57234  1.0000
  Hf  Hf79      1.0  0.94589  0.81616  0.08556  1.0000
  Hf  Hf80      1.0  0.94289  0.81648  0.58299  1.0000
  Hf  Hf81      1.0  0.09262  0.11064  0.16222  1.0000
  Hf  Hf82      1.0  0.09092  0.10745  0.66836  1.0000
  Hf  Hf83      1.0  0.09254  0.61669  0.16867  1.0000
  Hf  Hf84      1.0  0.08943  0.60925  0.66916  1.0000
  Hf  Hf85      1.0  0.34307  0.11592  0.15538  1.0000
  Hf  Hf86      1.0  0.33935  0.11468  0.66446  1.0000
  Hf  Hf87      1.0  0.33597  0.60795  0.17206  1.0000
  Hf  Hf88      1.0  0.34244  0.61485  0.66105  1.0000
  Hf  Hf89      1.0  0.59017  0.11031  0.17148  1.0000
  Hf  Hf90      1.0  0.59019  0.10767  0.67706  1.0000
  Hf  Hf91      1.0  0.59324  0.62033  0.16482  1.0000
  Hf  Hf92      1.0  0.59082  0.61428  0.66496  1.0000
  Hf  Hf93      1.0  0.83748  0.11472  0.17202  1.0000
  Hf  Hf94      1.0  0.84385  0.11035  0.66182  1.0000
  Hf  Hf95      1.0  0.84356  0.60885  0.16385  1.0000
  Hf  Hf96      1.0  0.84512  0.61063  0.66057  1.0000
  F   F1        1.0  0.08403  0.12620  0.29688  1.0000
  F   F2        1.0  0.07444  0.12672  0.81247  1.0000
  F   F3        1.0  0.07503  0.63195  0.30097  1.0000
  F   F4        1.0  0.08148  0.61983  0.79733  1.0000
  F   F5        1.0  0.33021  0.11162  0.30174  1.0000
  F   F6        1.0  0.33003  0.14699  0.78972  1.0000
  F   F7        1.0  0.32907  0.65463  0.29283  1.0000
  F   F8        1.0  0.33153  0.63194  0.79953  1.0000
  F   F9        1.0  0.58777  0.14630  0.29105  1.0000
  F   F10       1.0  0.57685  0.11743  0.81524  1.0000
  F   F11       1.0  0.57578  0.61988  0.30653  1.0000
  F   F12       1.0  0.57427  0.63797  0.79953  1.0000
  F   F13       1.0  0.83211  0.14093  0.29304  1.0000
  F   F14       1.0  0.83254  0.12430  0.80127  1.0000
  F   F15       1.0  0.82219  0.61352  0.31966  1.0000
  F   F16       1.0  0.82826  0.62460  0.80038  1.0000
  F   F17       1.0  0.18383  0.34852  0.44752  1.0000
  F   F18       1.0  0.19512  0.33913  0.93107  1.0000
  F   F19       1.0  0.18103  0.83660  0.45144  1.0000
  F   F20       1.0  0.18192  0.84359  0.94442  1.0000
  F   F21       1.0  0.44567  0.35028  0.43063  1.0000
  F   F22       1.0  0.43774  0.35334  0.93581  1.0000
  F   F23       1.0  0.43548  0.84997  0.43999  1.0000
  F   F24       1.0  0.44111  0.83577  0.94685  1.0000
  F   F25       1.0  0.69307  0.33949  0.44768  1.0000
  F   F26       1.0  0.68778  0.35468  0.92764  1.0000
  F   F27       1.0  0.69070  0.84542  0.44194  1.0000
  F   F28       1.0  0.69522  0.84709  0.93245  1.0000
  F   F29       1.0  0.94434  0.35185  0.42987  1.0000
  F   F30       1.0  0.93028  0.32945  0.95268  1.0000
  F   F31       1.0  0.93474  0.83366  0.44515  1.0000
  F   F32       1.0  0.94212  0.85588  0.93607  1.0000
  F   F33       1.0  0.16499  0.37970  0.19745  1.0000
  F   F34       1.0  0.17403  0.36996  0.69379  1.0000
  F   F35       1.0  0.17256  0.87572  0.19072  1.0000
  F   F36       1.0  0.17137  0.85505  0.70902  1.0000
  F   F37       1.0  0.41033  0.36198  0.21048  1.0000
  F   F38       1.0  0.41363  0.36470  0.69655  1.0000
  F   F39       1.0  0.42156  0.87561  0.19289  1.0000
  F   F40       1.0  0.42146  0.87962  0.69547  1.0000
  F   F41       1.0  0.66509  0.35593  0.21077  1.0000
  F   F42       1.0  0.67091  0.37949  0.69117  1.0000
  F   F43       1.0  0.67554  0.85858  0.21218  1.0000
  F   F44       1.0  0.66098  0.85643  0.71171  1.0000
  F   F45       1.0  0.92297  0.37131  0.19563  1.0000
  F   F46       1.0  0.92248  0.38386  0.69414  1.0000
  F   F47       1.0  0.92276  0.87344  0.19918  1.0000
  F   F48       1.0  0.91720  0.84498  0.71069  1.0000
  F   F49       1.0  0.07250  0.18044  0.03493  1.0000
  F   F50       1.0  0.05358  0.14151  0.56889  1.0000
  F   F51       1.0  0.06914  0.65689  0.04734  1.0000
  F   F52       1.0  0.05908  0.65683  0.56305  1.0000
  F   F53       1.0  0.30831  0.14961  0.05264  1.0000
  F   F54       1.0  0.31997  0.14819  0.54424  1.0000
  F   F55       1.0  0.31404  0.67110  0.05539  1.0000
  F   F56       1.0  0.31172  0.65963  0.55925  1.0000
  F   F57       1.0  0.56033  0.14885  0.06571  1.0000
  F   F58       1.0  0.56697  0.16497  0.55439  1.0000
  F   F59       1.0  0.57839  0.67058  0.03660  1.0000
  F   F60       1.0  0.55876  0.65326  0.55445  1.0000
  F   F61       1.0  0.79740  0.14616  0.08748  1.0000
  F   F62       1.0  0.81646  0.15209  0.55688  1.0000
  F   F63       1.0  0.81155  0.64314  0.06198  1.0000
  F   F64       1.0  0.80910  0.63290  0.56928  1.0000
  F   F65       1.0  0.19622  0.20809  0.21180  1.0000
  F   F66       1.0  0.21135  0.19629  0.69948  1.0000
  F   F67       1.0  0.19949  0.70329  0.21694  1.0000
  F   F68       1.0  0.21219  0.69643  0.71808  1.0000
  F   F69       1.0  0.46175  0.20567  0.20148  1.0000
  F   F70       1.0  0.44969  0.20212  0.70744  1.0000
  F   F71       1.0  0.45090  0.70241  0.20346  1.0000
  F   F72       1.0  0.45538  0.70702  0.72204  1.0000
  F   F73       1.0  0.69767  0.20047  0.20748  1.0000
  F   F74       1.0  0.69598  0.20183  0.71956  1.0000
  F   F75       1.0  0.71178  0.70625  0.20623  1.0000
  F   F76       1.0  0.70285  0.69337  0.72001  1.0000
  F   F77       1.0  0.95743  0.19553  0.20585  1.0000
  F   F78       1.0  0.95401  0.19040  0.69921  1.0000
  F   F79       1.0  0.95794  0.69979  0.21399  1.0000
  F   F80       1.0  0.95023  0.68748  0.71883  1.0000
  F   F81       1.0  0.14478  0.07794  0.03569  1.0000
  F   F82       1.0  0.14732  0.11655  0.52730  1.0000
  F   F83       1.0  0.15037  0.58718  0.04306  1.0000
  F   F84       1.0  0.15310  0.62341  0.52741  1.0000
  F   F85       1.0  0.40099  0.10846  0.03351  1.0000
  F   F86       1.0  0.40171  0.08604  0.54672  1.0000
  F   F87       1.0  0.39287  0.58777  0.04892  1.0000
  F   F88       1.0  0.39468  0.61274  0.52862  1.0000
  F   F89       1.0  0.64857  0.10003  0.04213  1.0000
  F   F90       1.0  0.65443  0.09640  0.53898  1.0000
  F   F91       1.0  0.65500  0.58405  0.04254  1.0000
  F   F92       1.0  0.64359  0.58681  0.52836  1.0000
  F   F93       1.0  0.89531  0.12010  0.04051  1.0000
  F   F94       1.0  0.90083  0.07037  0.54002  1.0000
  F   F95       1.0  0.89977  0.58306  0.04963  1.0000
  F   F96       1.0  0.90070  0.61329  0.53154  1.0000
  F   F97       1.0  0.15509  0.18159  0.11592  1.0000
  F   F98       1.0  0.14656  0.19463  0.63875  1.0000
  F   F99       1.0  0.15183  0.69268  0.12756  1.0000
  F   F100      1.0  0.15080  0.70312  0.64135  1.0000
  F   F101      1.0  0.40478  0.21417  0.11228  1.0000
  F   F102      1.0  0.39790  0.20696  0.62006  1.0000
  F   F103      1.0  0.39514  0.70283  0.12330  1.0000
  F   F104      1.0  0.40247  0.70551  0.62668  1.0000
  F   F105      1.0  0.65017  0.21336  0.09862  1.0000
  F   F106      1.0  0.64527  0.20899  0.62114  1.0000
  F   F107      1.0  0.65540  0.70163  0.11528  1.0000
  F   F108      1.0  0.65522  0.68247  0.61769  1.0000
  F   F109      1.0  0.89505  0.20935  0.13858  1.0000
  F   F110      1.0  0.90293  0.19065  0.60547  1.0000
  F   F111      1.0  0.89977  0.69875  0.14027  1.0000
  F   F112      1.0  0.89722  0.70976  0.62044  1.0000
  F   F113      1.0  0.09492  0.29683  0.37616  1.0000
  F   F114      1.0  0.09156  0.31044  0.85742  1.0000
  F   F115      1.0  0.09602  0.79866  0.38260  1.0000
  F   F116      1.0  0.09246  0.81114  0.89091  1.0000
  F   F117      1.0  0.33904  0.30367  0.37438  1.0000
  F   F118      1.0  0.34750  0.30308  0.86367  1.0000
  F   F119      1.0  0.34490  0.80607  0.39241  1.0000
  F   F120      1.0  0.34757  0.80533  0.85315  1.0000
  F   F121      1.0  0.59691  0.30294  0.38387  1.0000
  F   F122      1.0  0.59538  0.30414  0.87333  1.0000
  F   F123      1.0  0.59613  0.79987  0.39914  1.0000
  F   F124      1.0  0.59187  0.81526  0.88760  1.0000
  F   F125      1.0  0.83888  0.30624  0.37544  1.0000
  F   F126      1.0  0.85397  0.29386  0.88320  1.0000
  F   F127      1.0  0.85051  0.79519  0.39158  1.0000
  F   F128      1.0  0.85260  0.80377  0.88810  1.0000
  F   F129      1.0  0.06884  0.24707  0.14525  1.0000
  F   F130      1.0  0.06795  0.25341  0.62982  1.0000
  F   F131      1.0  0.05814  0.74327  0.15637  1.0000
  F   F132      1.0  0.05728  0.74882  0.65143  1.0000
  F   F133      1.0  0.31592  0.24839  0.12613  1.0000
  F   F134      1.0  0.30711  0.25421  0.62687  1.0000
  F   F135      1.0  0.29800  0.74025  0.16917  1.0000
  F   F136      1.0  0.32106  0.76615  0.62163  1.0000
  F   F137      1.0  0.56320  0.25676  0.14460  1.0000
  F   F138      1.0  0.55471  0.24798  0.67016  1.0000
  F   F139      1.0  0.56648  0.76008  0.13839  1.0000
  F   F140      1.0  0.56875  0.75815  0.62257  1.0000
  F   F141      1.0  0.81404  0.25386  0.13266  1.0000
  F   F142      1.0  0.82061  0.24687  0.63510  1.0000
  F   F143      1.0  0.82151  0.74889  0.13093  1.0000
  F   F144      1.0  0.82181  0.75308  0.62337  1.0000
  F   F145      1.0  0.12878  0.38023  0.09067  1.0000
  F   F146      1.0  0.12639  0.36158  0.61684  1.0000
  F   F147      1.0  0.12423  0.85958  0.12022  1.0000
  F   F148      1.0  0.12616  0.87910  0.60649  1.0000
  F   F149      1.0  0.37355  0.38343  0.10697  1.0000
  F   F150      1.0  0.37292  0.38172  0.59987  1.0000
  F   F151      1.0  0.37436  0.86984  0.10750  1.0000
  F   F152      1.0  0.37071  0.87808  0.61432  1.0000
  F   F153      1.0  0.62683  0.38485  0.08635  1.0000
  F   F154      1.0  0.62137  0.36931  0.62049  1.0000
  F   F155      1.0  0.63267  0.88213  0.08692  1.0000
  F   F156      1.0  0.62057  0.85283  0.61896  1.0000
  F   F157      1.0  0.86804  0.36903  0.12101  1.0000
  F   F158      1.0  0.87986  0.35113  0.61980  1.0000
  F   F159      1.0  0.87876  0.87351  0.10641  1.0000
  F   F160      1.0  0.87516  0.88421  0.58887  1.0000
  F   F161      1.0  0.18707  0.25770  0.35387  1.0000
  F   F162      1.0  0.18912  0.24236  0.85426  1.0000
  F   F163      1.0  0.18454  0.75438  0.35734  1.0000
  F   F164      1.0  0.18880  0.74105  0.86039  1.0000
  F   F165      1.0  0.43237  0.24665  0.36668  1.0000
  F   F166      1.0  0.43128  0.25134  0.85584  1.0000
  F   F167      1.0  0.43624  0.75194  0.35045  1.0000
  F   F168      1.0  0.42146  0.74174  0.89120  1.0000
  F   F169      1.0  0.69548  0.25125  0.35579  1.0000
  F   F170      1.0  0.69158  0.24687  0.85515  1.0000
  F   F171      1.0  0.68753  0.74579  0.37088  1.0000
  F   F172      1.0  0.67894  0.74296  0.86646  1.0000
  F   F173      1.0  0.92949  0.24330  0.36452  1.0000
  F   F174      1.0  0.94812  0.25351  0.83019  1.0000
  F   F175      1.0  0.94994  0.75245  0.33461  1.0000
  F   F176      1.0  0.94027  0.74379  0.86807  1.0000
  F   F177      1.0  0.12550  0.12452  0.39612  1.0000
  F   F178      1.0  0.12396  0.14130  0.88067  1.0000
  F   F179      1.0  0.12920  0.63236  0.39124  1.0000
  F   F180      1.0  0.12730  0.64081  0.88531  1.0000
  F   F181      1.0  0.38013  0.13131  0.38247  1.0000
  F   F182      1.0  0.37484  0.12529  0.89432  1.0000
  F   F183      1.0  0.37600  0.64294  0.38368  1.0000
  F   F184      1.0  0.37172  0.62793  0.90264  1.0000
  F   F185      1.0  0.62599  0.13387  0.39654  1.0000
  F   F186      1.0  0.62451  0.13228  0.89581  1.0000
  F   F187      1.0  0.62451  0.64779  0.37237  1.0000
  F   F188      1.0  0.62224  0.62252  0.90433  1.0000
  F   F189      1.0  0.87652  0.12929  0.38305  1.0000
  F   F190      1.0  0.87891  0.13845  0.89315  1.0000
  F   F191      1.0  0.87741  0.63241  0.39004  1.0000
  F   F192      1.0  0.87516  0.62610  0.90729  1.0000
  F   F193      1.0  0.00886  0.34409  0.08652  1.0000
  F   F194      1.0  0.00756  0.36598  0.55541  1.0000
  F   F195      1.0  0.00777  0.86353  0.07333  1.0000
  F   F196      1.0  0.00588  0.86380  0.57161  1.0000
  F   F197      1.0  0.25474  0.36309  0.08261  1.0000
  F   F198      1.0  0.25747  0.37538  0.54702  1.0000
  F   F199      1.0  0.25945  0.85448  0.06666  1.0000
  F   F200      1.0  0.25587  0.87067  0.57808  1.0000
  F   F201      1.0  0.51065  0.36605  0.06469  1.0000
  F   F202      1.0  0.49818  0.37265  0.58726  1.0000
  F   F203      1.0  0.51049  0.87339  0.06389  1.0000
  F   F204      1.0  0.50853  0.85472  0.56323  1.0000
  F   F205      1.0  0.75354  0.35697  0.08234  1.0000
  F   F206      1.0  0.75920  0.35771  0.57344  1.0000
  F   F207      1.0  0.76406  0.85547  0.08113  1.0000
  F   F208      1.0  0.75780  0.84931  0.58400  1.0000
  F   F209      1.0  0.06735  0.48736  0.16502  1.0000
  F   F210      1.0  0.07299  0.49248  0.66268  1.0000
  F   F211      1.0  0.07293  0.98262  0.16432  1.0000
  F   F212      1.0  0.06404  0.98192  0.68436  1.0000
  F   F213      1.0  0.31674  0.47993  0.18395  1.0000
  F   F214      1.0  0.31732  0.48838  0.66980  1.0000
  F   F215      1.0  0.32370  0.99178  0.17107  1.0000
  F   F216      1.0  0.32213  0.98636  0.67413  1.0000
  F   F217      1.0  0.57469  0.48787  0.17627  1.0000
  F   F218      1.0  0.57126  0.48504  0.66968  1.0000
  F   F219      1.0  0.57304  0.97707  0.17739  1.0000
  F   F220      1.0  0.57357  0.98025  0.67052  1.0000
  F   F221      1.0  0.81088  0.48062  0.18688  1.0000
  F   F222      1.0  0.82860  0.47707  0.66979  1.0000
  F   F223      1.0  0.82381  0.99237  0.15808  1.0000
  F   F224      1.0  0.80886  0.98631  0.68808  1.0000
  F   F225      1.0  0.24078  0.13071  0.42473  1.0000
  F   F226      1.0  0.24617  0.14174  0.91130  1.0000
  F   F227      1.0  0.24240  0.63397  0.43611  1.0000
  F   F228      1.0  0.24439  0.63300  0.91830  1.0000
  F   F229      1.0  0.49424  0.15328  0.41732  1.0000
  F   F230      1.0  0.48945  0.12384  0.93346  1.0000
  F   F231      1.0  0.49010  0.62968  0.43460  1.0000
  F   F232      1.0  0.49212  0.63742  0.92972  1.0000
  F   F233      1.0  0.74038  0.13084  0.44620  1.0000
  F   F234      1.0  0.74348  0.12662  0.93497  1.0000
  F   F235      1.0  0.73652  0.62476  0.43419  1.0000
  F   F236      1.0  0.74449  0.64683  0.91438  1.0000
  F   F237      1.0  0.99238  0.13969  0.41398  1.0000
  F   F238      1.0  0.98851  0.14568  0.92830  1.0000
  F   F239      1.0  0.99728  0.61387  0.43599  1.0000
  F   F240      1.0  0.99636  0.63378  0.92740  1.0000
  F   F241      1.0  0.17659  0.00542  0.33906  1.0000
  F   F242      1.0  0.17058  0.01188  0.84237  1.0000
  F   F243      1.0  0.17823  0.51838  0.31863  1.0000
  F   F244      1.0  0.17637  0.50763  0.83248  1.0000
  F   F245      1.0  0.43896  0.01529  0.31750  1.0000
  F   F246      1.0  0.43063  0.01375  0.82923  1.0000
  F   F247      1.0  0.43014  0.52497  0.31869  1.0000
  F   F248      1.0  0.42920  0.52537  0.81472  1.0000
  F   F249      1.0  0.68453  0.02272  0.32138  1.0000
  F   F250      1.0  0.68128  0.01767  0.83062  1.0000
  F   F251      1.0  0.67362  0.51479  0.33819  1.0000
  F   F252      1.0  0.68123  0.51855  0.80747  1.0000
  F   F253      1.0  0.93986  0.01709  0.30635  1.0000
  F   F254      1.0  0.92918  0.01683  0.81728  1.0000
  F   F255      1.0  0.93184  0.51279  0.32350  1.0000
  F   F256      1.0  0.93977  0.51520  0.81390  1.0000
  F   F257      1.0  0.99896  0.24462  0.00065  1.0000
  F   F258      1.0  0.99476  0.23297  0.50054  1.0000
  F   F259      1.0  0.99883  0.73512  0.01318  1.0000
  F   F260      1.0  0.99819  0.74364  0.49727  1.0000
  F   F261      1.0  0.25088  0.24936  0.00240  1.0000
  F   F262      1.0  0.25082  0.24676  0.49315  1.0000
  F   F263      1.0  0.24756  0.73917  0.99866  1.0000
  F   F264      1.0  0.25284  0.76124  0.48896  1.0000
  F   F265      1.0  0.49914  0.26865  0.98953  1.0000
  F   F266      1.0  0.50052  0.24726  0.50981  1.0000
  F   F267      1.0  0.50017  0.73614  0.01825  1.0000
  F   F268      1.0  0.50010  0.75887  0.48915  1.0000
  F   F269      1.0  0.74765  0.24714  0.00278  1.0000
  F   F270      1.0  0.74918  0.23181  0.51577  1.0000
  F   F271      1.0  0.75498  0.74930  0.99730  1.0000
  F   F272      1.0  0.75391  0.74794  0.50183  1.0000
  F   F273      1.0  0.12304  0.99837  0.25528  1.0000
  F   F274      1.0  0.12912  0.00049  0.74268  1.0000
  F   F275      1.0  0.11008  0.49665  0.27207  1.0000
  F   F276      1.0  0.12701  0.50441  0.74179  1.0000
  F   F277      1.0  0.38082  0.01121  0.22887  1.0000
  F   F278      1.0  0.36771  0.00058  0.76543  1.0000
  F   F279      1.0  0.37950  0.51473  0.24218  1.0000
  F   F280      1.0  0.38336  0.51061  0.71901  1.0000
  F   F281      1.0  0.61918  0.00060  0.25694  1.0000
  F   F282      1.0  0.62803  0.99963  0.75015  1.0000
  F   F283      1.0  0.62842  0.50578  0.24858  1.0000
  F   F284      1.0  0.62051  0.50820  0.75957  1.0000
  F   F285      1.0  0.86981  0.99035  0.25920  1.0000
  F   F286      1.0  0.89005  0.99687  0.72141  1.0000
  F   F287      1.0  0.87529  0.49678  0.25841  1.0000
  F   F288      1.0  0.87921  0.50658  0.75089  1.0000
  F   F289      1.0  0.03802  0.02840  0.02851  1.0000
  F   F290      1.0  0.05059  0.03320  0.50515  1.0000
  F   F291      1.0  0.05025  0.52307  0.00937  1.0000
  F   F292      1.0  0.05119  0.53341  0.51385  1.0000
  F   F293      1.0  0.29295  0.01877  0.03211  1.0000
  F   F294      1.0  0.28856  0.02766  0.53601  1.0000
  F   F295      1.0  0.29015  0.54690  0.03675  1.0000
  F   F296      1.0  0.29855  0.53318  0.51045  1.0000
  F   F297      1.0  0.53950  0.02306  0.02838  1.0000
  F   F298      1.0  0.54043  0.02398  0.53180  1.0000
  F   F299      1.0  0.54233  0.54200  0.03192  1.0000
  F   F300      1.0  0.54763  0.52118  0.51496  1.0000
  F   F301      1.0  0.79808  0.02715  0.01612  1.0000
  F   F302      1.0  0.79531  0.02843  0.51911  1.0000
  F   F303      1.0  0.78000  0.54011  0.01634  1.0000
  F   F304      1.0  0.80121  0.51822  0.51783  1.0000
  F   F305      1.0  0.23350  0.43763  0.21765  1.0000
  F   F306      1.0  0.23810  0.42955  0.70526  1.0000
  F   F307      1.0  0.23321  0.91749  0.22559  1.0000
  F   F308      1.0  0.23157  0.91575  0.73921  1.0000
  F   F309      1.0  0.48067  0.40879  0.22892  1.0000
  F   F310      1.0  0.48724  0.41993  0.72720  1.0000
  F   F311      1.0  0.48418  0.91337  0.22677  1.0000
  F   F312      1.0  0.48410  0.90507  0.72396  1.0000
  F   F313      1.0  0.73459  0.42893  0.21567  1.0000
  F   F314      1.0  0.74046  0.40763  0.72610  1.0000
  F   F315      1.0  0.73542  0.91599  0.23185  1.0000
  F   F316      1.0  0.73530  0.90575  0.72072  1.0000
  F   F317      1.0  0.98425  0.41486  0.22553  1.0000
  F   F318      1.0  0.99278  0.42718  0.71102  1.0000
  F   F319      1.0  0.98885  0.91942  0.23191  1.0000
  F   F320      1.0  0.98779  0.90841  0.72637  1.0000
  F   F321      1.0  0.19744  0.48232  0.47424  1.0000
  F   F322      1.0  0.21346  0.46969  0.96468  1.0000
  F   F323      1.0  0.20055  0.97957  0.47064  1.0000
  F   F324      1.0  0.21385  0.97035  0.96966  1.0000
  F   F325      1.0  0.46016  0.47702  0.46336  1.0000
  F   F326      1.0  0.45731  0.48178  0.96613  1.0000
  F   F327      1.0  0.45181  0.98200  0.48026  1.0000
  F   F328      1.0  0.45160  0.97310  0.98441  1.0000
  F   F329      1.0  0.70276  0.47184  0.47847  1.0000
  F   F330      1.0  0.70533  0.46833  0.98032  1.0000
  F   F331      1.0  0.70857  0.96486  0.49555  1.0000
  F   F332      1.0  0.71275  0.97058  0.97948  1.0000
  F   F333      1.0  0.94643  0.47149  0.48327  1.0000
  F   F334      1.0  0.96270  0.45758  0.97147  1.0000
  F   F335      1.0  0.95733  0.96608  0.47588  1.0000
  F   F336      1.0  0.95443  0.97013  0.98024  1.0000
  F   F337      1.0  0.01708  0.07883  0.27696  1.0000
  F   F338      1.0  0.01724  0.07922  0.77757  1.0000
  F   F339      1.0  0.01960  0.56977  0.27262  1.0000
  F   F340      1.0  0.01488  0.58827  0.77191  1.0000
  F   F341      1.0  0.26288  0.09676  0.26278  1.0000
  F   F342      1.0  0.26734  0.09065  0.76987  1.0000
  F   F343      1.0  0.26702  0.57450  0.29318  1.0000
  F   F344      1.0  0.26503  0.58134  0.77251  1.0000
  F   F345      1.0  0.52263  0.06994  0.28977  1.0000
  F   F346      1.0  0.51592  0.08593  0.77071  1.0000
  F   F347      1.0  0.51381  0.60202  0.26286  1.0000
  F   F348      1.0  0.51515  0.58140  0.77679  1.0000
  F   F349      1.0  0.76476  0.08526  0.29499  1.0000
  F   F350      1.0  0.76345  0.09337  0.77750  1.0000
  F   F351      1.0  0.76575  0.59403  0.26660  1.0000
  F   F352      1.0  0.76278  0.58041  0.78044  1.0000
  F   F353      1.0  0.10325  0.40192  0.46337  1.0000
  F   F354      1.0  0.10424  0.38738  0.95485  1.0000
  F   F355      1.0  0.09807  0.89295  0.46808  1.0000
  F   F356      1.0  0.09449  0.91572  0.96542  1.0000
  F   F357      1.0  0.35060  0.40068  0.45644  1.0000
  F   F358      1.0  0.34729  0.40888  0.95898  1.0000
  F   F359      1.0  0.35222  0.93210  0.44507  1.0000
  F   F360      1.0  0.34864  0.87890  0.96878  1.0000
  F   F361      1.0  0.60575  0.38122  0.47752  1.0000
  F   F362      1.0  0.59907  0.41922  0.95349  1.0000
  F   F363      1.0  0.60193  0.92145  0.46070  1.0000
  F   F364      1.0  0.60147  0.90976  0.95902  1.0000
  F   F365      1.0  0.85188  0.40243  0.46706  1.0000
  F   F366      1.0  0.84723  0.42043  0.96476  1.0000
  F   F367      1.0  0.85263  0.92447  0.44334  1.0000
  F   F368      1.0  0.85571  0.91440  0.96153  1.0000
  F   F369      1.0  0.04372  0.29842  0.28744  1.0000
  F   F370      1.0  0.04355  0.29495  0.77705  1.0000
  F   F371      1.0  0.04542  0.79612  0.29423  1.0000
  F   F372      1.0  0.05126  0.79266  0.79245  1.0000
  F   F373      1.0  0.28748  0.28569  0.28337  1.0000
  F   F374      1.0  0.29554  0.31514  0.77651  1.0000
  F   F375      1.0  0.29543  0.81894  0.28437  1.0000
  F   F376      1.0  0.29101  0.79933  0.79133  1.0000
  F   F377      1.0  0.55099  0.29664  0.29017  1.0000
  F   F378      1.0  0.54712  0.29741  0.80040  1.0000
  F   F379      1.0  0.55345  0.79388  0.28737  1.0000
  F   F380      1.0  0.54353  0.79347  0.79425  1.0000
  F   F381      1.0  0.78635  0.29646  0.29384  1.0000
  F   F382      1.0  0.80018  0.28445  0.78659  1.0000
  F   F383      1.0  0.80641  0.78653  0.28081  1.0000
  F   F384      1.0  0.80744  0.78729  0.78268  1.0000
