data_image0
_chemical_formula_structural       Hf96F384
_chemical_formula_sum              "Hf96 F384"
_cell_length_a       31.0305
_cell_length_b       15.5158
_cell_length_c       15.5078
_cell_angle_alpha    63.342
_cell_angle_beta     63.342
_cell_angle_gamma    80.1625

_space_group_name_H-M_alt    "P 1"
_space_group_IT_number       1

loop_
  _space_group_symop_operation_xyz
  'x, y, z'

loop_
  _atom_site_type_symbol
  _atom_site_label
  _atom_site_symmetry_multiplicity
  _atom_site_fract_x
  _atom_site_fract_y
  _atom_site_fract_z
  _atom_site_occupancy
  Hf  Hf1       1.0  0.19547  0.11222  0.36784  1.0000
  Hf  Hf2       1.0  0.19719  0.10943  0.86859  1.0000
  Hf  Hf3       1.0  0.20033  0.60466  0.36744  1.0000
  Hf  Hf4       1.0  0.19754  0.61095  0.87413  1.0000
  Hf  Hf5       1.0  0.44566  0.10937  0.36456  1.0000
  Hf  Hf6       1.0  0.44663  0.10193  0.87480  1.0000
  Hf  Hf7       1.0  0.44752  0.60928  0.36343  1.0000
  Hf  Hf8       1.0  0.44522  0.60748  0.87503  1.0000
  Hf  Hf9       1.0  0.69431  0.11071  0.38049  1.0000
  Hf  Hf10      1.0  0.69518  0.10905  0.88025  1.0000
  Hf  Hf11      1.0  0.69732  0.60798  0.36816  1.0000
  Hf  Hf12      1.0  0.69478  0.60570  0.88364  1.0000
  Hf  Hf13      1.0  0.94773  0.10929  0.37297  1.0000
  Hf  Hf14      1.0  0.94790  0.10539  0.87324  1.0000
  Hf  Hf15      1.0  0.95024  0.60732  0.37686  1.0000
  Hf  Hf16      1.0  0.94435  0.60115  0.88345  1.0000
  Hf  Hf17      1.0  0.05362  0.39482  0.13281  1.0000
  Hf  Hf18      1.0  0.05400  0.39936  0.62673  1.0000
  Hf  Hf19      1.0  0.05162  0.89128  0.12463  1.0000
  Hf  Hf20      1.0  0.05867  0.88624  0.62646  1.0000
  Hf  Hf21      1.0  0.30302  0.39477  0.12864  1.0000
  Hf  Hf22      1.0  0.30067  0.38581  0.63351  1.0000
  Hf  Hf23      1.0  0.30253  0.88970  0.12636  1.0000
  Hf  Hf24      1.0  0.30215  0.89508  0.62466  1.0000
  Hf  Hf25      1.0  0.55520  0.38618  0.13221  1.0000
  Hf  Hf26      1.0  0.55293  0.38983  0.62867  1.0000
  Hf  Hf27      1.0  0.55211  0.89989  0.12150  1.0000
  Hf  Hf28      1.0  0.55494  0.90054  0.61056  1.0000
  Hf  Hf29      1.0  0.80203  0.38707  0.13992  1.0000
  Hf  Hf30      1.0  0.80326  0.39901  0.63296  1.0000
  Hf  Hf31      1.0  0.80575  0.88953  0.12330  1.0000
  Hf  Hf32      1.0  0.80647  0.88990  0.62533  1.0000
  Hf  Hf33      1.0  0.05663  0.18535  0.40885  1.0000
  Hf  Hf34      1.0  0.05529  0.17820  0.91921  1.0000
  Hf  Hf35      1.0  0.06001  0.69324  0.40921  1.0000
  Hf  Hf36      1.0  0.05339  0.67309  0.92674  1.0000
  Hf  Hf37      1.0  0.30390  0.17505  0.42064  1.0000
  Hf  Hf38      1.0  0.30733  0.17648  0.91755  1.0000
  Hf  Hf39      1.0  0.30758  0.67212  0.41528  1.0000
  Hf  Hf40      1.0  0.30657  0.69021  0.91679  1.0000
  Hf  Hf41      1.0  0.55630  0.18417  0.41108  1.0000
  Hf  Hf42      1.0  0.55648  0.18676  0.91325  1.0000
  Hf  Hf43      1.0  0.55665  0.68144  0.41290  1.0000
  Hf  Hf44      1.0  0.55374  0.67876  0.91517  1.0000
  Hf  Hf45      1.0  0.80149  0.16963  0.43006  1.0000
  Hf  Hf46      1.0  0.80920  0.18987  0.91665  1.0000
  Hf  Hf47      1.0  0.80726  0.68493  0.40951  1.0000
  Hf  Hf48      1.0  0.80186  0.67373  0.93066  1.0000
  Hf  Hf49      1.0  0.15884  0.38778  0.33560  1.0000
  Hf  Hf50      1.0  0.15236  0.38383  0.84087  1.0000
  Hf  Hf51      1.0  0.15658  0.88273  0.33249  1.0000
  Hf  Hf52      1.0  0.15445  0.89039  0.83449  1.0000
  Hf  Hf53      1.0  0.40557  0.39006  0.33406  1.0000
  Hf  Hf54      1.0  0.40641  0.38640  0.82926  1.0000
  Hf  Hf55      1.0  0.40422  0.87944  0.34069  1.0000
  Hf  Hf56      1.0  0.41000  0.89066  0.82536  1.0000
  Hf  Hf57      1.0  0.65849  0.39533  0.33065  1.0000
  Hf  Hf58      1.0  0.65590  0.39062  0.83596  1.0000
  Hf  Hf59      1.0  0.65721  0.88509  0.32983  1.0000
  Hf  Hf60      1.0  0.65561  0.88543  0.83375  1.0000
  Hf  Hf61      1.0  0.90789  0.38244  0.34201  1.0000
  Hf  Hf62      1.0  0.91087  0.38885  0.82961  1.0000
  Hf  Hf63      1.0  0.90814  0.88707  0.33803  1.0000
  Hf  Hf64      1.0  0.90710  0.89258  0.83216  1.0000
  Hf  Hf65      1.0  0.19532  0.31977  0.08064  1.0000
  Hf  Hf66      1.0  0.19443  0.31825  0.58166  1.0000
  Hf  Hf67      1.0  0.19426  0.81577  0.07577  1.0000
  Hf  Hf68      1.0  0.19648  0.81835  0.58371  1.0000
  Hf  Hf69      1.0  0.44437  0.31810  0.08281  1.0000
  Hf  Hf70      1.0  0.44490  0.32855  0.57332  1.0000
  Hf  Hf71      1.0  0.44557  0.81423  0.07815  1.0000
  Hf  Hf72      1.0  0.44614  0.81561  0.58292  1.0000
  Hf  Hf73      1.0  0.69363  0.32320  0.08125  1.0000
  Hf  Hf74      1.0  0.69776  0.31690  0.58466  1.0000
  Hf  Hf75      1.0  0.69245  0.82750  0.08208  1.0000
  Hf  Hf76      1.0  0.69289  0.81288  0.58112  1.0000
  Hf  Hf77      1.0  0.94337  0.31569  0.08952  1.0000
  Hf  Hf78      1.0  0.94285  0.31204  0.59238  1.0000
  Hf  Hf79      1.0  0.94032  0.81402  0.09188  1.0000
  Hf  Hf80      1.0  0.94629  0.81940  0.58236  1.0000
  Hf  Hf81      1.0  0.09317  0.11694  0.15900  1.0000
  Hf  Hf82      1.0  0.09317  0.11878  0.66082  1.0000
  Hf  Hf83      1.0  0.09477  0.61114  0.16540  1.0000
  Hf  Hf84      1.0  0.09175  0.61660  0.66755  1.0000
  Hf  Hf85      1.0  0.34220  0.10652  0.16920  1.0000
  Hf  Hf86      1.0  0.34041  0.10734  0.66264  1.0000
  Hf  Hf87      1.0  0.34202  0.61222  0.16391  1.0000
  Hf  Hf88      1.0  0.34425  0.61711  0.65909  1.0000
  Hf  Hf89      1.0  0.59302  0.11250  0.16608  1.0000
  Hf  Hf90      1.0  0.59361  0.11418  0.66158  1.0000
  Hf  Hf91      1.0  0.59430  0.61656  0.15879  1.0000
  Hf  Hf92      1.0  0.59262  0.61306  0.66241  1.0000
  Hf  Hf93      1.0  0.83800  0.10911  0.17459  1.0000
  Hf  Hf94      1.0  0.83889  0.11905  0.67045  1.0000
  Hf  Hf95      1.0  0.84582  0.61251  0.16595  1.0000
  Hf  Hf96      1.0  0.83936  0.61167  0.67357  1.0000
  F   F1        1.0  0.07822  0.13145  0.29702  1.0000
  F   F2        1.0  0.07810  0.12586  0.80394  1.0000
  F   F3        1.0  0.08244  0.62784  0.30447  1.0000
  F   F4        1.0  0.07525  0.61948  0.81448  1.0000
  F   F5        1.0  0.32405  0.10712  0.31988  1.0000
  F   F6        1.0  0.32693  0.11499  0.81244  1.0000
  F   F7        1.0  0.32970  0.62268  0.30425  1.0000
  F   F8        1.0  0.32897  0.62861  0.80541  1.0000
  F   F9        1.0  0.58252  0.13528  0.29452  1.0000
  F   F10       1.0  0.57820  0.12131  0.80955  1.0000
  F   F11       1.0  0.58558  0.63245  0.29158  1.0000
  F   F12       1.0  0.58526  0.62454  0.79947  1.0000
  F   F13       1.0  0.82520  0.12180  0.30881  1.0000
  F   F14       1.0  0.83120  0.13454  0.81027  1.0000
  F   F15       1.0  0.82975  0.60852  0.31306  1.0000
  F   F16       1.0  0.82538  0.61164  0.81698  1.0000
  F   F17       1.0  0.18419  0.33901  0.45791  1.0000
  F   F18       1.0  0.18510  0.33799  0.94585  1.0000
  F   F19       1.0  0.19150  0.85017  0.44593  1.0000
  F   F20       1.0  0.17891  0.83763  0.95042  1.0000
  F   F21       1.0  0.43111  0.35095  0.44703  1.0000
  F   F22       1.0  0.43059  0.34081  0.94634  1.0000
  F   F23       1.0  0.43369  0.84304  0.44453  1.0000
  F   F24       1.0  0.43580  0.84082  0.94528  1.0000
  F   F25       1.0  0.68515  0.34179  0.45499  1.0000
  F   F26       1.0  0.68191  0.34330  0.95598  1.0000
  F   F27       1.0  0.69521  0.83911  0.43056  1.0000
  F   F28       1.0  0.68347  0.85101  0.94633  1.0000
  F   F29       1.0  0.93659  0.34446  0.45421  1.0000
  F   F30       1.0  0.93662  0.34420  0.94176  1.0000
  F   F31       1.0  0.94044  0.84124  0.44430  1.0000
  F   F32       1.0  0.92717  0.83835  0.95512  1.0000
  F   F33       1.0  0.17620  0.37073  0.19474  1.0000
  F   F34       1.0  0.16964  0.36188  0.69790  1.0000
  F   F35       1.0  0.16990  0.84730  0.19960  1.0000
  F   F36       1.0  0.17343  0.86778  0.69431  1.0000
  F   F37       1.0  0.41485  0.35776  0.20517  1.0000
  F   F38       1.0  0.42219  0.37782  0.68970  1.0000
  F   F39       1.0  0.41659  0.85477  0.19431  1.0000
  F   F40       1.0  0.42415  0.86845  0.69339  1.0000
  F   F41       1.0  0.67537  0.36718  0.19836  1.0000
  F   F42       1.0  0.66507  0.35494  0.71225  1.0000
  F   F43       1.0  0.66735  0.89033  0.19002  1.0000
  F   F44       1.0  0.67140  0.86973  0.69588  1.0000
  F   F45       1.0  0.92424  0.36519  0.20199  1.0000
  F   F46       1.0  0.92381  0.36301  0.70270  1.0000
  F   F47       1.0  0.91772  0.86942  0.20211  1.0000
  F   F48       1.0  0.91693  0.87720  0.70130  1.0000
  F   F49       1.0  0.06344  0.16630  0.05298  1.0000
  F   F50       1.0  0.06088  0.15450  0.54971  1.0000
  F   F51       1.0  0.06820  0.65211  0.05537  1.0000
  F   F52       1.0  0.07864  0.67370  0.53421  1.0000
  F   F53       1.0  0.31431  0.14900  0.05785  1.0000
  F   F54       1.0  0.30926  0.14413  0.55774  1.0000
  F   F55       1.0  0.31826  0.66061  0.04514  1.0000
  F   F56       1.0  0.31687  0.66353  0.55233  1.0000
  F   F57       1.0  0.56455  0.16210  0.05118  1.0000
  F   F58       1.0  0.56703  0.16372  0.54196  1.0000
  F   F59       1.0  0.56992  0.65210  0.04388  1.0000
  F   F60       1.0  0.56578  0.65855  0.55223  1.0000
  F   F61       1.0  0.82605  0.18300  0.03782  1.0000
  F   F62       1.0  0.81299  0.16992  0.55773  1.0000
  F   F63       1.0  0.81568  0.66416  0.05295  1.0000
  F   F64       1.0  0.81236  0.65166  0.56506  1.0000
  F   F65       1.0  0.20704  0.20520  0.20799  1.0000
  F   F66       1.0  0.20616  0.19455  0.70820  1.0000
  F   F67       1.0  0.20902  0.68790  0.20348  1.0000
  F   F68       1.0  0.20655  0.70728  0.70278  1.0000
  F   F69       1.0  0.45844  0.19217  0.20439  1.0000
  F   F70       1.0  0.44745  0.21055  0.69707  1.0000
  F   F71       1.0  0.46226  0.70189  0.20421  1.0000
  F   F72       1.0  0.45514  0.69768  0.70931  1.0000
  F   F73       1.0  0.69363  0.20679  0.21052  1.0000
  F   F74       1.0  0.70731  0.19869  0.72112  1.0000
  F   F75       1.0  0.69106  0.70468  0.22408  1.0000
  F   F76       1.0  0.70273  0.69453  0.71144  1.0000
  F   F77       1.0  0.94244  0.19265  0.22714  1.0000
  F   F78       1.0  0.95889  0.19890  0.70876  1.0000
  F   F79       1.0  0.96470  0.69578  0.22140  1.0000
  F   F80       1.0  0.94968  0.69776  0.71362  1.0000
  F   F81       1.0  0.14631  0.09181  0.03247  1.0000
  F   F82       1.0  0.14765  0.10978  0.53334  1.0000
  F   F83       1.0  0.15328  0.60224  0.03105  1.0000
  F   F84       1.0  0.15488  0.58133  0.51978  1.0000
  F   F85       1.0  0.39611  0.08702  0.04698  1.0000
  F   F86       1.0  0.39408  0.08226  0.53301  1.0000
  F   F87       1.0  0.40237  0.60541  0.03553  1.0000
  F   F88       1.0  0.39678  0.59566  0.53232  1.0000
  F   F89       1.0  0.64544  0.07715  0.03864  1.0000
  F   F90       1.0  0.65716  0.09818  0.53626  1.0000
  F   F91       1.0  0.65306  0.58308  0.03732  1.0000
  F   F92       1.0  0.64719  0.59202  0.54554  1.0000
  F   F93       1.0  0.89638  0.09208  0.05036  1.0000
  F   F94       1.0  0.89313  0.09433  0.54608  1.0000
  F   F95       1.0  0.90111  0.58046  0.05406  1.0000
  F   F96       1.0  0.89728  0.58743  0.53522  1.0000
  F   F97       1.0  0.15634  0.18614  0.12021  1.0000
  F   F98       1.0  0.15102  0.20753  0.63836  1.0000
  F   F99       1.0  0.15274  0.69497  0.12703  1.0000
  F   F100      1.0  0.15029  0.68757  0.63509  1.0000
  F   F101      1.0  0.40413  0.19269  0.12476  1.0000
  F   F102      1.0  0.40247  0.18050  0.61139  1.0000
  F   F103      1.0  0.40257  0.69733  0.12089  1.0000
  F   F104      1.0  0.40542  0.69816  0.61666  1.0000
  F   F105      1.0  0.65169  0.18744  0.12079  1.0000
  F   F106      1.0  0.65669  0.18723  0.63423  1.0000
  F   F107      1.0  0.65374  0.68697  0.11594  1.0000
  F   F108      1.0  0.65360  0.69984  0.61388  1.0000
  F   F109      1.0  0.89934  0.21397  0.12715  1.0000
  F   F110      1.0  0.90198  0.19852  0.62341  1.0000
  F   F111      1.0  0.90212  0.68380  0.14654  1.0000
  F   F112      1.0  0.89208  0.70475  0.62962  1.0000
  F   F113      1.0  0.10423  0.30336  0.37156  1.0000
  F   F114      1.0  0.09771  0.30038  0.87896  1.0000
  F   F115      1.0  0.09447  0.81961  0.37029  1.0000
  F   F116      1.0  0.09775  0.80127  0.88861  1.0000
  F   F117      1.0  0.34460  0.30498  0.41002  1.0000
  F   F118      1.0  0.35209  0.29646  0.86730  1.0000
  F   F119      1.0  0.34926  0.79755  0.37296  1.0000
  F   F120      1.0  0.34962  0.81055  0.87070  1.0000
  F   F121      1.0  0.59985  0.30659  0.37969  1.0000
  F   F122      1.0  0.59045  0.30707  0.87198  1.0000
  F   F123      1.0  0.59530  0.80900  0.37952  1.0000
  F   F124      1.0  0.59796  0.81216  0.88703  1.0000
  F   F125      1.0  0.85318  0.30101  0.38255  1.0000
  F   F126      1.0  0.84808  0.32702  0.85497  1.0000
  F   F127      1.0  0.84507  0.81425  0.38051  1.0000
  F   F128      1.0  0.84644  0.80829  0.89254  1.0000
  F   F129      1.0  0.06570  0.26003  0.13935  1.0000
  F   F130      1.0  0.06687  0.24807  0.63527  1.0000
  F   F131      1.0  0.06921  0.74565  0.14631  1.0000
  F   F132      1.0  0.06175  0.74317  0.66058  1.0000
  F   F133      1.0  0.31339  0.23914  0.15650  1.0000
  F   F134      1.0  0.31596  0.24475  0.63895  1.0000
  F   F135      1.0  0.31312  0.74898  0.14496  1.0000
  F   F136      1.0  0.31328  0.75573  0.64251  1.0000
  F   F137      1.0  0.55555  0.24787  0.15654  1.0000
  F   F138      1.0  0.56956  0.24770  0.63679  1.0000
  F   F139      1.0  0.56596  0.75698  0.12547  1.0000
  F   F140      1.0  0.56625  0.75329  0.64110  1.0000
  F   F141      1.0  0.81513  0.25182  0.15104  1.0000
  F   F142      1.0  0.82356  0.26681  0.63622  1.0000
  F   F143      1.0  0.81741  0.75542  0.12686  1.0000
  F   F144      1.0  0.80579  0.74740  0.65784  1.0000
  F   F145      1.0  0.12529  0.34774  0.12983  1.0000
  F   F146      1.0  0.12526  0.38987  0.59623  1.0000
  F   F147      1.0  0.12247  0.87921  0.10584  1.0000
  F   F148      1.0  0.12347  0.84949  0.62887  1.0000
  F   F149      1.0  0.37406  0.36674  0.10483  1.0000
  F   F150      1.0  0.37113  0.33508  0.63750  1.0000
  F   F151      1.0  0.37680  0.86837  0.09507  1.0000
  F   F152      1.0  0.37410  0.87633  0.60936  1.0000
  F   F153      1.0  0.62646  0.37557  0.10199  1.0000
  F   F154      1.0  0.62104  0.37227  0.60600  1.0000
  F   F155      1.0  0.61981  0.86714  0.12020  1.0000
  F   F156      1.0  0.62860  0.87530  0.59944  1.0000
  F   F157      1.0  0.87583  0.38470  0.09598  1.0000
  F   F158      1.0  0.87513  0.38958  0.61828  1.0000
  F   F159      1.0  0.87405  0.86399  0.12119  1.0000
  F   F160      1.0  0.88300  0.87917  0.58976  1.0000
  F   F161      1.0  0.18786  0.25102  0.35374  1.0000
  F   F162      1.0  0.18439  0.24344  0.85877  1.0000
  F   F163      1.0  0.18445  0.75673  0.36047  1.0000
  F   F164      1.0  0.19030  0.74902  0.84960  1.0000
  F   F165      1.0  0.43798  0.25183  0.35193  1.0000
  F   F166      1.0  0.43202  0.24595  0.85689  1.0000
  F   F167      1.0  0.44064  0.75273  0.34421  1.0000
  F   F168      1.0  0.44079  0.75098  0.84332  1.0000
  F   F169      1.0  0.69201  0.25508  0.34682  1.0000
  F   F170      1.0  0.68204  0.25203  0.87044  1.0000
  F   F171      1.0  0.68262  0.74090  0.36963  1.0000
  F   F172      1.0  0.68612  0.75228  0.86643  1.0000
  F   F173      1.0  0.93704  0.24997  0.35745  1.0000
  F   F174      1.0  0.93999  0.25206  0.84379  1.0000
  F   F175      1.0  0.93526  0.74910  0.36044  1.0000
  F   F176      1.0  0.93765  0.75228  0.85887  1.0000
  F   F177      1.0  0.12851  0.13527  0.38205  1.0000
  F   F178      1.0  0.12506  0.14235  0.88739  1.0000
  F   F179      1.0  0.13417  0.65495  0.37011  1.0000
  F   F180      1.0  0.12216  0.63373  0.90295  1.0000
  F   F181      1.0  0.37521  0.15996  0.36896  1.0000
  F   F182      1.0  0.37716  0.12446  0.89391  1.0000
  F   F183      1.0  0.37705  0.62682  0.38758  1.0000
  F   F184      1.0  0.37402  0.62226  0.89480  1.0000
  F   F185      1.0  0.62402  0.12275  0.39788  1.0000
  F   F186      1.0  0.62528  0.14717  0.88566  1.0000
  F   F187      1.0  0.62497  0.62283  0.40304  1.0000
  F   F188      1.0  0.62903  0.65245  0.87673  1.0000
  F   F189      1.0  0.87304  0.12923  0.39217  1.0000
  F   F190      1.0  0.87642  0.12863  0.89852  1.0000
  F   F191      1.0  0.87805  0.65291  0.37533  1.0000
  F   F192      1.0  0.87398  0.63924  0.88608  1.0000
  F   F193      1.0  0.00491  0.35642  0.09059  1.0000
  F   F194      1.0  0.00961  0.36389  0.58625  1.0000
  F   F195      1.0  0.00639  0.86283  0.07011  1.0000
  F   F196      1.0  0.01100  0.84486  0.56679  1.0000
  F   F197      1.0  0.26072  0.36062  0.08327  1.0000
  F   F198      1.0  0.25981  0.35923  0.57873  1.0000
  F   F199      1.0  0.25731  0.86842  0.07176  1.0000
  F   F200      1.0  0.25839  0.87655  0.56083  1.0000
  F   F201      1.0  0.50502  0.35563  0.09214  1.0000
  F   F202      1.0  0.51235  0.35437  0.57205  1.0000
  F   F203      1.0  0.50578  0.87276  0.06794  1.0000
  F   F204      1.0  0.50927  0.86701  0.56469  1.0000
  F   F205      1.0  0.75825  0.35013  0.08820  1.0000
  F   F206      1.0  0.75689  0.35885  0.57580  1.0000
  F   F207      1.0  0.75783  0.85380  0.07155  1.0000
  F   F208      1.0  0.75795  0.85865  0.56919  1.0000
  F   F209      1.0  0.07745  0.48807  0.15216  1.0000
  F   F210      1.0  0.06387  0.49150  0.69004  1.0000
  F   F211      1.0  0.06275  0.99671  0.17395  1.0000
  F   F212      1.0  0.07205  0.98549  0.66681  1.0000
  F   F213      1.0  0.32537  0.48112  0.17622  1.0000
  F   F214      1.0  0.31412  0.48388  0.67140  1.0000
  F   F215      1.0  0.31415  0.97373  0.18278  1.0000
  F   F216      1.0  0.31356  0.97432  0.69176  1.0000
  F   F217      1.0  0.56860  0.48086  0.17793  1.0000
  F   F218      1.0  0.56678  0.49085  0.67222  1.0000
  F   F219      1.0  0.56594  0.98255  0.17098  1.0000
  F   F220      1.0  0.57451  0.99161  0.65516  1.0000
  F   F221      1.0  0.81752  0.48448  0.19185  1.0000
  F   F222      1.0  0.81383  0.47271  0.69546  1.0000
  F   F223      1.0  0.81779  0.98141  0.18288  1.0000
  F   F224      1.0  0.81865  0.98826  0.66198  1.0000
  F   F225      1.0  0.24392  0.13623  0.42417  1.0000
  F   F226      1.0  0.24310  0.12683  0.92713  1.0000
  F   F227      1.0  0.24605  0.63748  0.41275  1.0000
  F   F228      1.0  0.24698  0.64124  0.92464  1.0000
  F   F229      1.0  0.49934  0.14546  0.39835  1.0000
  F   F230      1.0  0.49160  0.13489  0.92367  1.0000
  F   F231      1.0  0.49471  0.64037  0.42266  1.0000
  F   F232      1.0  0.48885  0.63768  0.93681  1.0000
  F   F233      1.0  0.74194  0.12905  0.42719  1.0000
  F   F234      1.0  0.74799  0.14409  0.91385  1.0000
  F   F235      1.0  0.74521  0.63870  0.42161  1.0000
  F   F236      1.0  0.73915  0.62665  0.94395  1.0000
  F   F237      1.0  0.99482  0.15073  0.41219  1.0000
  F   F238      1.0  0.98699  0.12840  0.94141  1.0000
  F   F239      1.0  0.99837  0.64526  0.41147  1.0000
  F   F240      1.0  0.98769  0.62857  0.93760  1.0000
  F   F241      1.0  0.17459  0.01838  0.30957  1.0000
  F   F242      1.0  0.17972  0.00682  0.82766  1.0000
  F   F243      1.0  0.17733  0.51981  0.31977  1.0000
  F   F244      1.0  0.17827  0.51281  0.84162  1.0000
  F   F245      1.0  0.42048  0.00993  0.33604  1.0000
  F   F246      1.0  0.43020  0.01857  0.81585  1.0000
  F   F247      1.0  0.43728  0.51592  0.32007  1.0000
  F   F248      1.0  0.42993  0.51911  0.82010  1.0000
  F   F249      1.0  0.67468  0.01290  0.32893  1.0000
  F   F250      1.0  0.68253  0.02122  0.83051  1.0000
  F   F251      1.0  0.68184  0.52576  0.30635  1.0000
  F   F252      1.0  0.66846  0.51985  0.83688  1.0000
  F   F253      1.0  0.93334  0.00637  0.33362  1.0000
  F   F254      1.0  0.92930  0.02247  0.80341  1.0000
  F   F255      1.0  0.92681  0.52786  0.33440  1.0000
  F   F256      1.0  0.93183  0.51582  0.81165  1.0000
  F   F257      1.0  0.00472  0.26594  0.98640  1.0000
  F   F258      1.0  0.00155  0.26163  0.50185  1.0000
  F   F259      1.0  0.00015  0.75055  0.00667  1.0000
  F   F260      1.0  0.00066  0.72993  0.50837  1.0000
  F   F261      1.0  0.25473  0.24743  0.99836  1.0000
  F   F262      1.0  0.25110  0.24881  0.50602  1.0000
  F   F263      1.0  0.24943  0.75342  0.99346  1.0000
  F   F264      1.0  0.24984  0.74019  0.50513  1.0000
  F   F265      1.0  0.50076  0.25285  0.99865  1.0000
  F   F266      1.0  0.49802  0.25591  0.48923  1.0000
  F   F267      1.0  0.50309  0.74781  0.00870  1.0000
  F   F268      1.0  0.49905  0.75843  0.49826  1.0000
  F   F269      1.0  0.75081  0.24838  0.99593  1.0000
  F   F270      1.0  0.75277  0.25551  0.49559  1.0000
  F   F271      1.0  0.74655  0.74898  0.00382  1.0000
  F   F272      1.0  0.75198  0.74853  0.49634  1.0000
  F   F273      1.0  0.12365  0.99244  0.24766  1.0000
  F   F274      1.0  0.13200  0.00918  0.74034  1.0000
  F   F275      1.0  0.12528  0.48935  0.24944  1.0000
  F   F276      1.0  0.13299  0.50439  0.73216  1.0000
  F   F277      1.0  0.36319  0.98178  0.26150  1.0000
  F   F278      1.0  0.37749  0.00506  0.73600  1.0000
  F   F279      1.0  0.37820  0.50793  0.24180  1.0000
  F   F280      1.0  0.36959  0.49758  0.75112  1.0000
  F   F281      1.0  0.61532  0.99296  0.26665  1.0000
  F   F282      1.0  0.62558  0.99489  0.74568  1.0000
  F   F283      1.0  0.61806  0.49375  0.25014  1.0000
  F   F284      1.0  0.62066  0.49407  0.75519  1.0000
  F   F285      1.0  0.88591  0.01104  0.23808  1.0000
  F   F286      1.0  0.86461  0.99812  0.75522  1.0000
  F   F287      1.0  0.88466  0.49975  0.24131  1.0000
  F   F288      1.0  0.88252  0.51159  0.72892  1.0000
  F   F289      1.0  0.04525  0.02587  0.01602  1.0000
  F   F290      1.0  0.05676  0.03075  0.50006  1.0000
  F   F291      1.0  0.04041  0.53115  0.03663  1.0000
  F   F292      1.0  0.05073  0.54046  0.53606  1.0000
  F   F293      1.0  0.28880  0.03248  0.02919  1.0000
  F   F294      1.0  0.29821  0.02397  0.51751  1.0000
  F   F295      1.0  0.29358  0.53361  0.03395  1.0000
  F   F296      1.0  0.28672  0.53180  0.53289  1.0000
  F   F297      1.0  0.53973  0.03664  0.01666  1.0000
  F   F298      1.0  0.53548  0.03504  0.52328  1.0000
  F   F299      1.0  0.54973  0.52703  0.01405  1.0000
  F   F300      1.0  0.53387  0.54192  0.53694  1.0000
  F   F301      1.0  0.78964  0.04052  0.04603  1.0000
  F   F302      1.0  0.79240  0.02565  0.52326  1.0000
  F   F303      1.0  0.78565  0.53270  0.05382  1.0000
  F   F304      1.0  0.80157  0.53162  0.51807  1.0000
  F   F305      1.0  0.23621  0.40204  0.24365  1.0000
  F   F306      1.0  0.22446  0.40999  0.73155  1.0000
  F   F307      1.0  0.23185  0.90642  0.22977  1.0000
  F   F308      1.0  0.23395  0.91221  0.72130  1.0000
  F   F309      1.0  0.48035  0.42064  0.22374  1.0000
  F   F310      1.0  0.48255  0.42234  0.72141  1.0000
  F   F311      1.0  0.47705  0.92323  0.21756  1.0000
  F   F312      1.0  0.48900  0.91339  0.71825  1.0000
  F   F313      1.0  0.73409  0.41192  0.24372  1.0000
  F   F314      1.0  0.73296  0.43015  0.71837  1.0000
  F   F315      1.0  0.73415  0.91177  0.22283  1.0000
  F   F316      1.0  0.73074  0.90072  0.73480  1.0000
  F   F317      1.0  0.98447  0.42436  0.22493  1.0000
  F   F318      1.0  0.98111  0.42451  0.72188  1.0000
  F   F319      1.0  0.98060  0.91889  0.21846  1.0000
  F   F320      1.0  0.98973  0.90542  0.70946  1.0000
  F   F321      1.0  0.21564  0.46918  0.46312  1.0000
  F   F322      1.0  0.21016  0.46620  0.98925  1.0000
  F   F323      1.0  0.20046  0.98703  0.48527  1.0000
  F   F324      1.0  0.20890  0.97161  0.97428  1.0000
  F   F325      1.0  0.46012  0.46864  0.46428  1.0000
  F   F326      1.0  0.45388  0.46237  0.98555  1.0000
  F   F327      1.0  0.45820  0.96278  0.47186  1.0000
  F   F328      1.0  0.45765  0.96886  0.97303  1.0000
  F   F329      1.0  0.70556  0.47526  0.47247  1.0000
  F   F330      1.0  0.70825  0.46694  0.97128  1.0000
  F   F331      1.0  0.70622  0.96629  0.47861  1.0000
  F   F332      1.0  0.70895  0.97290  0.98367  1.0000
  F   F333      1.0  0.95990  0.46394  0.48861  1.0000
  F   F334      1.0  0.95951  0.46334  0.96634  1.0000
  F   F335      1.0  0.96199  0.98293  0.47100  1.0000
  F   F336      1.0  0.95105  0.96514  0.97756  1.0000
  F   F337      1.0  0.01703  0.10987  0.25646  1.0000
  F   F338      1.0  0.01313  0.07436  0.77421  1.0000
  F   F339      1.0  0.02261  0.56688  0.28627  1.0000
  F   F340      1.0  0.01235  0.58350  0.77587  1.0000
  F   F341      1.0  0.26020  0.07580  0.28059  1.0000
  F   F342      1.0  0.26522  0.09200  0.77140  1.0000
  F   F343      1.0  0.26731  0.57429  0.26344  1.0000
  F   F344      1.0  0.26062  0.58015  0.77754  1.0000
  F   F345      1.0  0.51578  0.07039  0.28395  1.0000
  F   F346      1.0  0.51527  0.07938  0.76431  1.0000
  F   F347      1.0  0.51925  0.58148  0.26974  1.0000
  F   F348      1.0  0.51343  0.59675  0.77540  1.0000
  F   F349      1.0  0.76015  0.09774  0.27019  1.0000
  F   F350      1.0  0.76508  0.09044  0.77731  1.0000
  F   F351      1.0  0.76486  0.59685  0.26549  1.0000
  F   F352      1.0  0.76163  0.58826  0.78314  1.0000
  F   F353      1.0  0.10176  0.41633  0.45798  1.0000
  F   F354      1.0  0.09893  0.40841  0.96378  1.0000
  F   F355      1.0  0.10615  0.88644  0.47308  1.0000
  F   F356      1.0  0.09490  0.90070  0.95997  1.0000
  F   F357      1.0  0.35478  0.42663  0.46340  1.0000
  F   F358      1.0  0.34783  0.40454  0.96252  1.0000
  F   F359      1.0  0.34755  0.89577  0.46560  1.0000
  F   F360      1.0  0.34572  0.89573  0.95645  1.0000
  F   F361      1.0  0.60017  0.42692  0.46109  1.0000
  F   F362      1.0  0.59937  0.39151  0.97162  1.0000
  F   F363      1.0  0.60010  0.91020  0.45769  1.0000
  F   F364      1.0  0.59765  0.92773  0.96522  1.0000
  F   F365      1.0  0.85165  0.41157  0.46191  1.0000
  F   F366      1.0  0.84777  0.41289  0.95791  1.0000
  F   F367      1.0  0.84748  0.91458  0.45927  1.0000
  F   F368      1.0  0.85024  0.92089  0.96522  1.0000
  F   F369      1.0  0.04853  0.31425  0.29193  1.0000
  F   F370      1.0  0.04475  0.29786  0.78812  1.0000
  F   F371      1.0  0.04646  0.80716  0.28572  1.0000
  F   F372      1.0  0.04869  0.79077  0.80129  1.0000
  F   F373      1.0  0.30399  0.29392  0.28607  1.0000
  F   F374      1.0  0.28893  0.29554  0.79011  1.0000
  F   F375      1.0  0.30138  0.79110  0.28517  1.0000
  F   F376      1.0  0.29730  0.80688  0.79153  1.0000
  F   F377      1.0  0.54895  0.30766  0.28652  1.0000
  F   F378      1.0  0.53721  0.30189  0.79429  1.0000
  F   F379      1.0  0.54257  0.78875  0.28311  1.0000
  F   F380      1.0  0.55709  0.79114  0.78419  1.0000
  F   F381      1.0  0.80467  0.29242  0.28930  1.0000
  F   F382      1.0  0.78907  0.30002  0.79341  1.0000
  F   F383      1.0  0.79682  0.78601  0.28563  1.0000
  F   F384      1.0  0.80278  0.80274  0.79481  1.0000
