data_image0
_chemical_formula_structural       Hf96F384
_chemical_formula_sum              "Hf96 F384"
_cell_length_a       31.012
_cell_length_b       15.5036
_cell_length_c       15.4978
_cell_angle_alpha    63.342
_cell_angle_beta     63.342
_cell_angle_gamma    80.1625

_space_group_name_H-M_alt    "P 1"
_space_group_IT_number       1

loop_
  _space_group_symop_operation_xyz
  'x, y, z'

loop_
  _atom_site_type_symbol
  _atom_site_label
  _atom_site_symmetry_multiplicity
  _atom_site_fract_x
  _atom_site_fract_y
  _atom_site_fract_z
  _atom_site_occupancy
  Hf  Hf1       1.0  0.19637  0.10222  0.37493  1.0000
  Hf  Hf2       1.0  0.19972  0.10507  0.87401  1.0000
  Hf  Hf3       1.0  0.19753  0.60347  0.37681  1.0000
  Hf  Hf4       1.0  0.19688  0.60379  0.87450  1.0000
  Hf  Hf5       1.0  0.44623  0.10800  0.37943  1.0000
  Hf  Hf6       1.0  0.44456  0.11280  0.87252  1.0000
  Hf  Hf7       1.0  0.44511  0.61000  0.37772  1.0000
  Hf  Hf8       1.0  0.44715  0.60200  0.87460  1.0000
  Hf  Hf9       1.0  0.69573  0.10322  0.38680  1.0000
  Hf  Hf10      1.0  0.69999  0.10815  0.86673  1.0000
  Hf  Hf11      1.0  0.69603  0.60660  0.38267  1.0000
  Hf  Hf12      1.0  0.69056  0.59843  0.89798  1.0000
  Hf  Hf13      1.0  0.94992  0.10901  0.36510  1.0000
  Hf  Hf14      1.0  0.94551  0.11348  0.87292  1.0000
  Hf  Hf15      1.0  0.94706  0.61245  0.37434  1.0000
  Hf  Hf16      1.0  0.94477  0.61548  0.87087  1.0000
  Hf  Hf17      1.0  0.05082  0.39652  0.12460  1.0000
  Hf  Hf18      1.0  0.05397  0.39735  0.61600  1.0000
  Hf  Hf19      1.0  0.05665  0.88732  0.12758  1.0000
  Hf  Hf20      1.0  0.05213  0.90111  0.61327  1.0000
  Hf  Hf21      1.0  0.30214  0.39468  0.11814  1.0000
  Hf  Hf22      1.0  0.30530  0.39201  0.62533  1.0000
  Hf  Hf23      1.0  0.30442  0.88839  0.13001  1.0000
  Hf  Hf24      1.0  0.30278  0.89287  0.62770  1.0000
  Hf  Hf25      1.0  0.55558  0.38592  0.12687  1.0000
  Hf  Hf26      1.0  0.55484  0.39691  0.62284  1.0000
  Hf  Hf27      1.0  0.55107  0.89001  0.12522  1.0000
  Hf  Hf28      1.0  0.55339  0.89280  0.62199  1.0000
  Hf  Hf29      1.0  0.80572  0.39029  0.12486  1.0000
  Hf  Hf30      1.0  0.80403  0.39835  0.62289  1.0000
  Hf  Hf31      1.0  0.80171  0.90306  0.11722  1.0000
  Hf  Hf32      1.0  0.80336  0.88827  0.63165  1.0000
  Hf  Hf33      1.0  0.05970  0.18403  0.40821  1.0000
  Hf  Hf34      1.0  0.05578  0.18431  0.91634  1.0000
  Hf  Hf35      1.0  0.05647  0.67940  0.41871  1.0000
  Hf  Hf36      1.0  0.05633  0.68934  0.90744  1.0000
  Hf  Hf37      1.0  0.30414  0.18030  0.41682  1.0000
  Hf  Hf38      1.0  0.30534  0.18283  0.91748  1.0000
  Hf  Hf39      1.0  0.30390  0.68014  0.41758  1.0000
  Hf  Hf40      1.0  0.30920  0.67562  0.91186  1.0000
  Hf  Hf41      1.0  0.55808  0.17860  0.41474  1.0000
  Hf  Hf42      1.0  0.55684  0.18308  0.91567  1.0000
  Hf  Hf43      1.0  0.55552  0.68394  0.41731  1.0000
  Hf  Hf44      1.0  0.55494  0.67286  0.92611  1.0000
  Hf  Hf45      1.0  0.80692  0.17719  0.41784  1.0000
  Hf  Hf46      1.0  0.80586  0.18678  0.91199  1.0000
  Hf  Hf47      1.0  0.80472  0.68738  0.42080  1.0000
  Hf  Hf48      1.0  0.80331  0.68503  0.91928  1.0000
  Hf  Hf49      1.0  0.16028  0.38640  0.33245  1.0000
  Hf  Hf50      1.0  0.15958  0.38388  0.83098  1.0000
  Hf  Hf51      1.0  0.16008  0.89386  0.32069  1.0000
  Hf  Hf52      1.0  0.15979  0.88520  0.82871  1.0000
  Hf  Hf53      1.0  0.40874  0.38587  0.33530  1.0000
  Hf  Hf54      1.0  0.40560  0.38455  0.83584  1.0000
  Hf  Hf55      1.0  0.40841  0.89647  0.33314  1.0000
  Hf  Hf56      1.0  0.40833  0.88531  0.83912  1.0000
  Hf  Hf57      1.0  0.65664  0.38669  0.33454  1.0000
  Hf  Hf58      1.0  0.66090  0.39076  0.83318  1.0000
  Hf  Hf59      1.0  0.66068  0.88881  0.32934  1.0000
  Hf  Hf60      1.0  0.65614  0.88193  0.83918  1.0000
  Hf  Hf61      1.0  0.90534  0.39640  0.32702  1.0000
  Hf  Hf62      1.0  0.90916  0.38961  0.83054  1.0000
  Hf  Hf63      1.0  0.90810  0.88467  0.33640  1.0000
  Hf  Hf64      1.0  0.90883  0.89226  0.83749  1.0000
  Hf  Hf65      1.0  0.19249  0.31608  0.08404  1.0000
  Hf  Hf66      1.0  0.19424  0.31795  0.58039  1.0000
  Hf  Hf67      1.0  0.19733  0.81878  0.07625  1.0000
  Hf  Hf68      1.0  0.19233  0.81468  0.58152  1.0000
  Hf  Hf69      1.0  0.44161  0.31255  0.08830  1.0000
  Hf  Hf70      1.0  0.44753  0.32359  0.57824  1.0000
  Hf  Hf71      1.0  0.44404  0.81830  0.08747  1.0000
  Hf  Hf72      1.0  0.44426  0.82228  0.58851  1.0000
  Hf  Hf73      1.0  0.69492  0.30688  0.08867  1.0000
  Hf  Hf74      1.0  0.69592  0.32117  0.57919  1.0000
  Hf  Hf75      1.0  0.69149  0.81613  0.08712  1.0000
  Hf  Hf76      1.0  0.69156  0.82359  0.58635  1.0000
  Hf  Hf77      1.0  0.94514  0.32111  0.08092  1.0000
  Hf  Hf78      1.0  0.94740  0.31943  0.57206  1.0000
  Hf  Hf79      1.0  0.94193  0.81712  0.09091  1.0000
  Hf  Hf80      1.0  0.94229  0.81985  0.58559  1.0000
  Hf  Hf81      1.0  0.08946  0.11212  0.16781  1.0000
  Hf  Hf82      1.0  0.08956  0.10739  0.67031  1.0000
  Hf  Hf83      1.0  0.09246  0.61328  0.16331  1.0000
  Hf  Hf84      1.0  0.09246  0.61991  0.65999  1.0000
  Hf  Hf85      1.0  0.34278  0.11360  0.16428  1.0000
  Hf  Hf86      1.0  0.34770  0.12022  0.65541  1.0000
  Hf  Hf87      1.0  0.34076  0.60616  0.16107  1.0000
  Hf  Hf88      1.0  0.33884  0.60771  0.66795  1.0000
  Hf  Hf89      1.0  0.59076  0.10642  0.16663  1.0000
  Hf  Hf90      1.0  0.59310  0.11167  0.66479  1.0000
  Hf  Hf91      1.0  0.58860  0.60913  0.17514  1.0000
  Hf  Hf92      1.0  0.59229  0.61468  0.66575  1.0000
  Hf  Hf93      1.0  0.84081  0.10884  0.16882  1.0000
  Hf  Hf94      1.0  0.84512  0.11155  0.66210  1.0000
  Hf  Hf95      1.0  0.84009  0.61702  0.16456  1.0000
  Hf  Hf96      1.0  0.83748  0.60735  0.67834  1.0000
  F   F1        1.0  0.08007  0.12996  0.30144  1.0000
  F   F2        1.0  0.07565  0.12932  0.81078  1.0000
  F   F3        1.0  0.07747  0.61173  0.31506  1.0000
  F   F4        1.0  0.07463  0.63760  0.80008  1.0000
  F   F5        1.0  0.33192  0.13607  0.30003  1.0000
  F   F6        1.0  0.33544  0.15020  0.79298  1.0000
  F   F7        1.0  0.32649  0.63106  0.30138  1.0000
  F   F8        1.0  0.32957  0.61020  0.81708  1.0000
  F   F9        1.0  0.58816  0.13256  0.29670  1.0000
  F   F10       1.0  0.58241  0.12756  0.80900  1.0000
  F   F11       1.0  0.57135  0.63176  0.31070  1.0000
  F   F12       1.0  0.57614  0.61298  0.81214  1.0000
  F   F13       1.0  0.82814  0.13393  0.30387  1.0000
  F   F14       1.0  0.82548  0.13316  0.79859  1.0000
  F   F15       1.0  0.82965  0.64048  0.29545  1.0000
  F   F16       1.0  0.82454  0.62166  0.82134  1.0000
  F   F17       1.0  0.18743  0.33032  0.44579  1.0000
  F   F18       1.0  0.18892  0.34092  0.94350  1.0000
  F   F19       1.0  0.17738  0.83523  0.45493  1.0000
  F   F20       1.0  0.18796  0.83509  0.94059  1.0000
  F   F21       1.0  0.43354  0.34609  0.45190  1.0000
  F   F22       1.0  0.43986  0.33782  0.94480  1.0000
  F   F23       1.0  0.43844  0.84718  0.44846  1.0000
  F   F24       1.0  0.43357  0.83808  0.95610  1.0000
  F   F25       1.0  0.68601  0.34258  0.44799  1.0000
  F   F26       1.0  0.69381  0.34710  0.93108  1.0000
  F   F27       1.0  0.68373  0.84319  0.44384  1.0000
  F   F28       1.0  0.68192  0.83183  0.95289  1.0000
  F   F29       1.0  0.93520  0.34607  0.44110  1.0000
  F   F30       1.0  0.94119  0.35065  0.94022  1.0000
  F   F31       1.0  0.93211  0.83546  0.45413  1.0000
  F   F32       1.0  0.93891  0.85019  0.94286  1.0000
  F   F33       1.0  0.17089  0.36272  0.20278  1.0000
  F   F34       1.0  0.16712  0.37305  0.69919  1.0000
  F   F35       1.0  0.17017  0.87827  0.18737  1.0000
  F   F36       1.0  0.17595  0.87152  0.68689  1.0000
  F   F37       1.0  0.41922  0.36884  0.19756  1.0000
  F   F38       1.0  0.41743  0.33759  0.71219  1.0000
  F   F39       1.0  0.42162  0.86603  0.20820  1.0000
  F   F40       1.0  0.41986  0.89354  0.69560  1.0000
  F   F41       1.0  0.67471  0.35087  0.21283  1.0000
  F   F42       1.0  0.67513  0.37173  0.69438  1.0000
  F   F43       1.0  0.67496  0.87234  0.19473  1.0000
  F   F44       1.0  0.67132  0.88058  0.69348  1.0000
  F   F45       1.0  0.91859  0.37140  0.19337  1.0000
  F   F46       1.0  0.92067  0.36555  0.70017  1.0000
  F   F47       1.0  0.91851  0.88137  0.20121  1.0000
  F   F48       1.0  0.92570  0.87683  0.69032  1.0000
  F   F49       1.0  0.07085  0.15353  0.04664  1.0000
  F   F50       1.0  0.07223  0.15568  0.54690  1.0000
  F   F51       1.0  0.06994  0.66536  0.04735  1.0000
  F   F52       1.0  0.06750  0.66139  0.54458  1.0000
  F   F53       1.0  0.31385  0.15556  0.05758  1.0000
  F   F54       1.0  0.31692  0.16291  0.54910  1.0000
  F   F55       1.0  0.31662  0.65697  0.05053  1.0000
  F   F56       1.0  0.31239  0.66394  0.55452  1.0000
  F   F57       1.0  0.56297  0.15164  0.05117  1.0000
  F   F58       1.0  0.56136  0.17039  0.55519  1.0000
  F   F59       1.0  0.57149  0.65734  0.05395  1.0000
  F   F60       1.0  0.56582  0.65796  0.55197  1.0000
  F   F61       1.0  0.81075  0.16083  0.05351  1.0000
  F   F62       1.0  0.81709  0.16637  0.54635  1.0000
  F   F63       1.0  0.79869  0.63447  0.08130  1.0000
  F   F64       1.0  0.81381  0.65379  0.55998  1.0000
  F   F65       1.0  0.20580  0.19555  0.21181  1.0000
  F   F66       1.0  0.19973  0.20177  0.71554  1.0000
  F   F67       1.0  0.20646  0.69925  0.20304  1.0000
  F   F68       1.0  0.20069  0.70458  0.69998  1.0000
  F   F69       1.0  0.45295  0.20001  0.22107  1.0000
  F   F70       1.0  0.45520  0.19049  0.71429  1.0000
  F   F71       1.0  0.45172  0.69414  0.22278  1.0000
  F   F72       1.0  0.44735  0.70820  0.71680  1.0000
  F   F73       1.0  0.70441  0.19391  0.22385  1.0000
  F   F74       1.0  0.70709  0.20598  0.70370  1.0000
  F   F75       1.0  0.70328  0.70833  0.20810  1.0000
  F   F76       1.0  0.70467  0.71664  0.70300  1.0000
  F   F77       1.0  0.96193  0.20404  0.20867  1.0000
  F   F78       1.0  0.94713  0.20079  0.72189  1.0000
  F   F79       1.0  0.94946  0.69595  0.21600  1.0000
  F   F80       1.0  0.95356  0.70701  0.70450  1.0000
  F   F81       1.0  0.15371  0.09550  0.05288  1.0000
  F   F82       1.0  0.14910  0.07427  0.53323  1.0000
  F   F83       1.0  0.15813  0.59396  0.02321  1.0000
  F   F84       1.0  0.15137  0.59564  0.53032  1.0000
  F   F85       1.0  0.40013  0.09275  0.04265  1.0000
  F   F86       1.0  0.40381  0.09495  0.53286  1.0000
  F   F87       1.0  0.39453  0.58334  0.03785  1.0000
  F   F88       1.0  0.39212  0.57912  0.53873  1.0000
  F   F89       1.0  0.64715  0.08760  0.04782  1.0000
  F   F90       1.0  0.65164  0.08763  0.54460  1.0000
  F   F91       1.0  0.65343  0.59343  0.04282  1.0000
  F   F92       1.0  0.65418  0.59067  0.54345  1.0000
  F   F93       1.0  0.89869  0.08358  0.05397  1.0000
  F   F94       1.0  0.90333  0.09501  0.52761  1.0000
  F   F95       1.0  0.89703  0.60393  0.03544  1.0000
  F   F96       1.0  0.89381  0.59462  0.55305  1.0000
  F   F97       1.0  0.15207  0.20278  0.13156  1.0000
  F   F98       1.0  0.15017  0.18085  0.62439  1.0000
  F   F99       1.0  0.14796  0.69528  0.13076  1.0000
  F   F100      1.0  0.15063  0.69399  0.63080  1.0000
  F   F101      1.0  0.40206  0.19881  0.12684  1.0000
  F   F102      1.0  0.41102  0.19426  0.61513  1.0000
  F   F103      1.0  0.40030  0.68676  0.13357  1.0000
  F   F104      1.0  0.39986  0.69170  0.61886  1.0000
  F   F105      1.0  0.65906  0.19056  0.12307  1.0000
  F   F106      1.0  0.64958  0.19453  0.62469  1.0000
  F   F107      1.0  0.64304  0.70358  0.13866  1.0000
  F   F108      1.0  0.64692  0.71349  0.62941  1.0000
  F   F109      1.0  0.90569  0.18977  0.13035  1.0000
  F   F110      1.0  0.90063  0.20440  0.61911  1.0000
  F   F111      1.0  0.89921  0.70529  0.12268  1.0000
  F   F112      1.0  0.89308  0.69559  0.64311  1.0000
  F   F113      1.0  0.09469  0.30891  0.37975  1.0000
  F   F114      1.0  0.09541  0.29921  0.87341  1.0000
  F   F115      1.0  0.10198  0.80410  0.38395  1.0000
  F   F116      1.0  0.09782  0.80310  0.87775  1.0000
  F   F117      1.0  0.34905  0.31043  0.37291  1.0000
  F   F118      1.0  0.34401  0.30158  0.87670  1.0000
  F   F119      1.0  0.34970  0.81963  0.38037  1.0000
  F   F120      1.0  0.34703  0.79932  0.87515  1.0000
  F   F121      1.0  0.60097  0.29455  0.36735  1.0000
  F   F122      1.0  0.60245  0.30347  0.89367  1.0000
  F   F123      1.0  0.59999  0.80634  0.35916  1.0000
  F   F124      1.0  0.59291  0.81039  0.87068  1.0000
  F   F125      1.0  0.84608  0.30664  0.36740  1.0000
  F   F126      1.0  0.85129  0.30399  0.85685  1.0000
  F   F127      1.0  0.85095  0.80197  0.37667  1.0000
  F   F128      1.0  0.85403  0.80443  0.89127  1.0000
  F   F129      1.0  0.05965  0.24914  0.15168  1.0000
  F   F130      1.0  0.06240  0.25162  0.63636  1.0000
  F   F131      1.0  0.05906  0.74341  0.16421  1.0000
  F   F132      1.0  0.06189  0.75517  0.64379  1.0000
  F   F133      1.0  0.31784  0.25539  0.13352  1.0000
  F   F134      1.0  0.32049  0.25423  0.62789  1.0000
  F   F135      1.0  0.31564  0.75312  0.14302  1.0000
  F   F136      1.0  0.30853  0.74336  0.66182  1.0000
  F   F137      1.0  0.58067  0.25026  0.11363  1.0000
  F   F138      1.0  0.56565  0.24864  0.65334  1.0000
  F   F139      1.0  0.55610  0.74899  0.15169  1.0000
  F   F140      1.0  0.56267  0.75126  0.64636  1.0000
  F   F141      1.0  0.81203  0.24412  0.14685  1.0000
  F   F142      1.0  0.81318  0.25903  0.63801  1.0000
  F   F143      1.0  0.81487  0.75122  0.13529  1.0000
  F   F144      1.0  0.80494  0.74275  0.66810  1.0000
  F   F145      1.0  0.12123  0.37014  0.10380  1.0000
  F   F146      1.0  0.12420  0.35309  0.60618  1.0000
  F   F147      1.0  0.12900  0.87046  0.09873  1.0000
  F   F148      1.0  0.12313  0.87317  0.61527  1.0000
  F   F149      1.0  0.37504  0.37307  0.10367  1.0000
  F   F150      1.0  0.37324  0.37290  0.60867  1.0000
  F   F151      1.0  0.37545  0.86495  0.11502  1.0000
  F   F152      1.0  0.37447  0.84666  0.63469  1.0000
  F   F153      1.0  0.62714  0.36819  0.11499  1.0000
  F   F154      1.0  0.62460  0.39213  0.59788  1.0000
  F   F155      1.0  0.62419  0.87786  0.10876  1.0000
  F   F156      1.0  0.62478  0.88290  0.60465  1.0000
  F   F157      1.0  0.87494  0.37141  0.10855  1.0000
  F   F158      1.0  0.87827  0.36888  0.60303  1.0000
  F   F159      1.0  0.87308  0.87273  0.11020  1.0000
  F   F160      1.0  0.87245  0.86046  0.62157  1.0000
  F   F161      1.0  0.18331  0.23860  0.36176  1.0000
  F   F162      1.0  0.18732  0.24475  0.86522  1.0000
  F   F163      1.0  0.18752  0.74744  0.34810  1.0000
  F   F164      1.0  0.18897  0.74728  0.85178  1.0000
  F   F165      1.0  0.44189  0.24938  0.36062  1.0000
  F   F166      1.0  0.42776  0.24651  0.87248  1.0000
  F   F167      1.0  0.43421  0.74707  0.36589  1.0000
  F   F168      1.0  0.43409  0.74723  0.86299  1.0000
  F   F169      1.0  0.68120  0.24192  0.37446  1.0000
  F   F170      1.0  0.68585  0.24702  0.86358  1.0000
  F   F171      1.0  0.69134  0.75710  0.34804  1.0000
  F   F172      1.0  0.68379  0.74635  0.86213  1.0000
  F   F173      1.0  0.93294  0.25697  0.35730  1.0000
  F   F174      1.0  0.93175  0.25125  0.87451  1.0000
  F   F175      1.0  0.93677  0.75448  0.35086  1.0000
  F   F176      1.0  0.94150  0.75946  0.84946  1.0000
  F   F177      1.0  0.12898  0.13263  0.37609  1.0000
  F   F178      1.0  0.13091  0.12082  0.89867  1.0000
  F   F179      1.0  0.13013  0.63434  0.38054  1.0000
  F   F180      1.0  0.12487  0.62851  0.88551  1.0000
  F   F181      1.0  0.37787  0.13057  0.39651  1.0000
  F   F182      1.0  0.37244  0.12016  0.90266  1.0000
  F   F183      1.0  0.37256  0.64924  0.37825  1.0000
  F   F184      1.0  0.37925  0.62734  0.88836  1.0000
  F   F185      1.0  0.62109  0.10478  0.42193  1.0000
  F   F186      1.0  0.63031  0.13284  0.89566  1.0000
  F   F187      1.0  0.62399  0.63780  0.39605  1.0000
  F   F188      1.0  0.62372  0.63052  0.89539  1.0000
  F   F189      1.0  0.88186  0.12369  0.37950  1.0000
  F   F190      1.0  0.87334  0.12743  0.90126  1.0000
  F   F191      1.0  0.87226  0.62549  0.39933  1.0000
  F   F192      1.0  0.87881  0.64944  0.88020  1.0000
  F   F193      1.0  0.00779  0.37244  0.06523  1.0000
  F   F194      1.0  0.00509  0.36115  0.57303  1.0000
  F   F195      1.0  0.00565  0.85625  0.08361  1.0000
  F   F196      1.0  0.00948  0.87016  0.55554  1.0000
  F   F197      1.0  0.25728  0.36129  0.07092  1.0000
  F   F198      1.0  0.25614  0.35477  0.58099  1.0000
  F   F199      1.0  0.25273  0.86433  0.08347  1.0000
  F   F200      1.0  0.26090  0.86681  0.56925  1.0000
  F   F201      1.0  0.50800  0.35108  0.09044  1.0000
  F   F202      1.0  0.51065  0.37084  0.56665  1.0000
  F   F203      1.0  0.50728  0.86454  0.06110  1.0000
  F   F204      1.0  0.50898  0.86217  0.57220  1.0000
  F   F205      1.0  0.75766  0.35369  0.08181  1.0000
  F   F206      1.0  0.75953  0.37019  0.56912  1.0000
  F   F207      1.0  0.76149  0.86328  0.06774  1.0000
  F   F208      1.0  0.75926  0.86599  0.57190  1.0000
  F   F209      1.0  0.06747  0.49144  0.17112  1.0000
  F   F210      1.0  0.06971  0.48586  0.66585  1.0000
  F   F211      1.0  0.07191  0.97858  0.17445  1.0000
  F   F212      1.0  0.06572  0.98430  0.67451  1.0000
  F   F213      1.0  0.32033  0.47919  0.16830  1.0000
  F   F214      1.0  0.31861  0.47665  0.68838  1.0000
  F   F215      1.0  0.32670  0.98320  0.17088  1.0000
  F   F216      1.0  0.31828  0.99079  0.66613  1.0000
  F   F217      1.0  0.57333  0.48778  0.16530  1.0000
  F   F218      1.0  0.56664  0.49065  0.67624  1.0000
  F   F219      1.0  0.56408  0.97814  0.18132  1.0000
  F   F220      1.0  0.56162  0.99410  0.67273  1.0000
  F   F221      1.0  0.81961  0.47545  0.18171  1.0000
  F   F222      1.0  0.81723  0.48090  0.68101  1.0000
  F   F223      1.0  0.81912  0.98932  0.16436  1.0000
  F   F224      1.0  0.82452  0.98934  0.66146  1.0000
  F   F225      1.0  0.24479  0.14229  0.41480  1.0000
  F   F226      1.0  0.24293  0.13102  0.93290  1.0000
  F   F227      1.0  0.24236  0.63615  0.42043  1.0000
  F   F228      1.0  0.24594  0.63782  0.92388  1.0000
  F   F229      1.0  0.49706  0.14037  0.42133  1.0000
  F   F230      1.0  0.49428  0.14945  0.91114  1.0000
  F   F231      1.0  0.49022  0.64064  0.42032  1.0000
  F   F232      1.0  0.49000  0.63578  0.92401  1.0000
  F   F233      1.0  0.74408  0.13126  0.43131  1.0000
  F   F234      1.0  0.74220  0.13182  0.93239  1.0000
  F   F235      1.0  0.74019  0.63074  0.43476  1.0000
  F   F236      1.0  0.73742  0.63106  0.94758  1.0000
  F   F237      1.0  0.99206  0.15337  0.40734  1.0000
  F   F238      1.0  0.98755  0.14816  0.93559  1.0000
  F   F239      1.0  0.99252  0.65240  0.41527  1.0000
  F   F240      1.0  0.99188  0.63538  0.93024  1.0000
  F   F241      1.0  0.18904  0.01105  0.31241  1.0000
  F   F242      1.0  0.17799  0.00878  0.83131  1.0000
  F   F243      1.0  0.18675  0.49900  0.32499  1.0000
  F   F244      1.0  0.18323  0.51195  0.81833  1.0000
  F   F245      1.0  0.43276  0.01590  0.32854  1.0000
  F   F246      1.0  0.42706  0.01512  0.82721  1.0000
  F   F247      1.0  0.42960  0.52217  0.32526  1.0000
  F   F248      1.0  0.43160  0.51051  0.82685  1.0000
  F   F249      1.0  0.68253  0.02046  0.31137  1.0000
  F   F250      1.0  0.67995  0.00826  0.83504  1.0000
  F   F251      1.0  0.67597  0.51106  0.35002  1.0000
  F   F252      1.0  0.68053  0.52752  0.82736  1.0000
  F   F253      1.0  0.93436  0.00656  0.31584  1.0000
  F   F254      1.0  0.93574  0.01899  0.81133  1.0000
  F   F255      1.0  0.93126  0.51807  0.32614  1.0000
  F   F256      1.0  0.92311  0.51898  0.83113  1.0000
  F   F257      1.0  0.00593  0.25488  0.00055  1.0000
  F   F258      1.0  0.00363  0.24624  0.49436  1.0000
  F   F259      1.0  0.00004  0.74518  0.99983  1.0000
  F   F260      1.0  0.00337  0.74320  0.49723  1.0000
  F   F261      1.0  0.24991  0.26037  0.99325  1.0000
  F   F262      1.0  0.24647  0.24201  0.51006  1.0000
  F   F263      1.0  0.25023  0.74669  0.00353  1.0000
  F   F264      1.0  0.25282  0.75976  0.48227  1.0000
  F   F265      1.0  0.50103  0.25373  0.00127  1.0000
  F   F266      1.0  0.50331  0.26660  0.47754  1.0000
  F   F267      1.0  0.49889  0.72979  0.01728  1.0000
  F   F268      1.0  0.50121  0.74423  0.50504  1.0000
  F   F269      1.0  0.74679  0.25181  0.99834  1.0000
  F   F270      1.0  0.75385  0.26256  0.48634  1.0000
  F   F271      1.0  0.75039  0.75725  0.99779  1.0000
  F   F272      1.0  0.74339  0.73596  0.51484  1.0000
  F   F273      1.0  0.12016  0.00542  0.25869  1.0000
  F   F274      1.0  0.11992  0.00270  0.75890  1.0000
  F   F275      1.0  0.13061  0.50051  0.23721  1.0000
  F   F276      1.0  0.12019  0.49829  0.76193  1.0000
  F   F277      1.0  0.38084  0.00909  0.24343  1.0000
  F   F278      1.0  0.36935  0.00288  0.75687  1.0000
  F   F279      1.0  0.37800  0.49733  0.24351  1.0000
  F   F280      1.0  0.37885  0.49124  0.73818  1.0000
  F   F281      1.0  0.61543  0.99302  0.26727  1.0000
  F   F282      1.0  0.62420  0.99525  0.75661  1.0000
  F   F283      1.0  0.62241  0.49126  0.25767  1.0000
  F   F284      1.0  0.62788  0.49839  0.74629  1.0000
  F   F285      1.0  0.86191  0.99115  0.26926  1.0000
  F   F286      1.0  0.87625  0.00674  0.73767  1.0000
  F   F287      1.0  0.87754  0.50549  0.23914  1.0000
  F   F288      1.0  0.86449  0.48479  0.77052  1.0000
  F   F289      1.0  0.04735  0.01862  0.02272  1.0000
  F   F290      1.0  0.04035  0.03541  0.51531  1.0000
  F   F291      1.0  0.04219  0.53765  0.02355  1.0000
  F   F292      1.0  0.03258  0.52672  0.53172  1.0000
  F   F293      1.0  0.29359  0.02698  0.02112  1.0000
  F   F294      1.0  0.28614  0.03318  0.53101  1.0000
  F   F295      1.0  0.29325  0.52631  0.01783  1.0000
  F   F296      1.0  0.29481  0.52958  0.51871  1.0000
  F   F297      1.0  0.54338  0.02475  0.01464  1.0000
  F   F298      1.0  0.53901  0.03744  0.52508  1.0000
  F   F299      1.0  0.53437  0.52651  0.04232  1.0000
  F   F300      1.0  0.53889  0.53441  0.51828  1.0000
  F   F301      1.0  0.78857  0.03680  0.02165  1.0000
  F   F302      1.0  0.79645  0.02750  0.51841  1.0000
  F   F303      1.0  0.80083  0.52328  0.01206  1.0000
  F   F304      1.0  0.79198  0.53780  0.53434  1.0000
  F   F305      1.0  0.23585  0.40993  0.23021  1.0000
  F   F306      1.0  0.23498  0.40844  0.72429  1.0000
  F   F307      1.0  0.23675  0.91161  0.22548  1.0000
  F   F308      1.0  0.23424  0.91547  0.72665  1.0000
  F   F309      1.0  0.48425  0.41856  0.23467  1.0000
  F   F310      1.0  0.48032  0.40806  0.72649  1.0000
  F   F311      1.0  0.48412  0.91819  0.22542  1.0000
  F   F312      1.0  0.48391  0.90187  0.74468  1.0000
  F   F313      1.0  0.73324  0.42642  0.22940  1.0000
  F   F314      1.0  0.73553  0.42009  0.72169  1.0000
  F   F315      1.0  0.73540  0.92326  0.21540  1.0000
  F   F316      1.0  0.73431  0.91275  0.73117  1.0000
  F   F317      1.0  0.97980  0.42297  0.21817  1.0000
  F   F318      1.0  0.98185  0.41310  0.72846  1.0000
  F   F319      1.0  0.99106  0.90838  0.23265  1.0000
  F   F320      1.0  0.98544  0.91636  0.71951  1.0000
  F   F321      1.0  0.20716  0.46683  0.48649  1.0000
  F   F322      1.0  0.20994  0.46463  0.97881  1.0000
  F   F323      1.0  0.21061  0.96437  0.46925  1.0000
  F   F324      1.0  0.21271  0.97043  0.96428  1.0000
  F   F325      1.0  0.45811  0.47288  0.48239  1.0000
  F   F326      1.0  0.45680  0.46203  0.97886  1.0000
  F   F327      1.0  0.45408  0.96874  0.48021  1.0000
  F   F328      1.0  0.45954  0.97329  0.96737  1.0000
  F   F329      1.0  0.71399  0.46719  0.47405  1.0000
  F   F330      1.0  0.70602  0.46032  0.98541  1.0000
  F   F331      1.0  0.70804  0.96776  0.47408  1.0000
  F   F332      1.0  0.70542  0.96226  0.98662  1.0000
  F   F333      1.0  0.95891  0.47647  0.46860  1.0000
  F   F334      1.0  0.95115  0.48140  0.97185  1.0000
  F   F335      1.0  0.95265  0.96591  0.48132  1.0000
  F   F336      1.0  0.96090  0.98330  0.97094  1.0000
  F   F337      1.0  0.01610  0.06837  0.28635  1.0000
  F   F338      1.0  0.01528  0.09634  0.76704  1.0000
  F   F339      1.0  0.01255  0.59800  0.26433  1.0000
  F   F340      1.0  0.01357  0.59679  0.76622  1.0000
  F   F341      1.0  0.27155  0.08305  0.27329  1.0000
  F   F342      1.0  0.26661  0.09113  0.77078  1.0000
  F   F343      1.0  0.26763  0.58586  0.26650  1.0000
  F   F344      1.0  0.26465  0.58996  0.77357  1.0000
  F   F345      1.0  0.51887  0.09062  0.26934  1.0000
  F   F346      1.0  0.51608  0.08309  0.77761  1.0000
  F   F347      1.0  0.51778  0.57026  0.27501  1.0000
  F   F348      1.0  0.51297  0.59592  0.75586  1.0000
  F   F349      1.0  0.76553  0.08072  0.28562  1.0000
  F   F350      1.0  0.76702  0.07559  0.77245  1.0000
  F   F351      1.0  0.76288  0.59295  0.28136  1.0000
  F   F352      1.0  0.76399  0.58598  0.78195  1.0000
  F   F353      1.0  0.09828  0.42118  0.45357  1.0000
  F   F354      1.0  0.09673  0.39196  0.96892  1.0000
  F   F355      1.0  0.10063  0.92743  0.45264  1.0000
  F   F356      1.0  0.10042  0.89126  0.96392  1.0000
  F   F357      1.0  0.35076  0.40763  0.45641  1.0000
  F   F358      1.0  0.35033  0.41895  0.95098  1.0000
  F   F359      1.0  0.35445  0.90761  0.48293  1.0000
  F   F360      1.0  0.34893  0.89173  0.97402  1.0000
  F   F361      1.0  0.60072  0.40305  0.46496  1.0000
  F   F362      1.0  0.60464  0.41015  0.96621  1.0000
  F   F363      1.0  0.60065  0.90376  0.46209  1.0000
  F   F364      1.0  0.59661  0.88675  0.97401  1.0000
  F   F365      1.0  0.85024  0.40551  0.45195  1.0000
  F   F366      1.0  0.84752  0.37517  0.97217  1.0000
  F   F367      1.0  0.85204  0.90742  0.47430  1.0000
  F   F368      1.0  0.85665  0.93501  0.95300  1.0000
  F   F369      1.0  0.04437  0.31295  0.28471  1.0000
  F   F370      1.0  0.04612  0.29847  0.77870  1.0000
  F   F371      1.0  0.05077  0.78971  0.29742  1.0000
  F   F372      1.0  0.05012  0.80450  0.78390  1.0000
  F   F373      1.0  0.29464  0.30347  0.30219  1.0000
  F   F374      1.0  0.29232  0.29818  0.78796  1.0000
  F   F375      1.0  0.30085  0.80289  0.28875  1.0000
  F   F376      1.0  0.29424  0.78991  0.79426  1.0000
  F   F377      1.0  0.54643  0.28894  0.28156  1.0000
  F   F378      1.0  0.54821  0.31406  0.78760  1.0000
  F   F379      1.0  0.53964  0.79619  0.29461  1.0000
  F   F380      1.0  0.54736  0.77508  0.80043  1.0000
  F   F381      1.0  0.79068  0.29372  0.28201  1.0000
  F   F382      1.0  0.79127  0.29645  0.78810  1.0000
  F   F383      1.0  0.79180  0.79766  0.29230  1.0000
  F   F384      1.0  0.79701  0.80724  0.80448  1.0000
