data_image0
_chemical_formula_structural       Hf96F384
_chemical_formula_sum              "Hf96 F384"
_cell_length_a       31.0306
_cell_length_b       15.5166
_cell_length_c       15.5079
_cell_angle_alpha    63.342
_cell_angle_beta     63.342
_cell_angle_gamma    80.1625

_space_group_name_H-M_alt    "P 1"
_space_group_IT_number       1

loop_
  _space_group_symop_operation_xyz
  'x, y, z'

loop_
  _atom_site_type_symbol
  _atom_site_label
  _atom_site_symmetry_multiplicity
  _atom_site_fract_x
  _atom_site_fract_y
  _atom_site_fract_z
  _atom_site_occupancy
  Hf  Hf1       1.0  0.19406  0.10168  0.39235  1.0000
  Hf  Hf2       1.0  0.19796  0.10137  0.87678  1.0000
  Hf  Hf3       1.0  0.19553  0.60163  0.38168  1.0000
  Hf  Hf4       1.0  0.19452  0.60867  0.87583  1.0000
  Hf  Hf5       1.0  0.45037  0.10418  0.37399  1.0000
  Hf  Hf6       1.0  0.44309  0.10127  0.88369  1.0000
  Hf  Hf7       1.0  0.44305  0.59918  0.39025  1.0000
  Hf  Hf8       1.0  0.44445  0.60821  0.87006  1.0000
  Hf  Hf9       1.0  0.69505  0.11080  0.37503  1.0000
  Hf  Hf10      1.0  0.69814  0.11109  0.86999  1.0000
  Hf  Hf11      1.0  0.69480  0.61360  0.37988  1.0000
  Hf  Hf12      1.0  0.70060  0.62238  0.86353  1.0000
  Hf  Hf13      1.0  0.94904  0.10803  0.37500  1.0000
  Hf  Hf14      1.0  0.94658  0.10094  0.88307  1.0000
  Hf  Hf15      1.0  0.94230  0.60331  0.37983  1.0000
  Hf  Hf16      1.0  0.94701  0.60523  0.87353  1.0000
  Hf  Hf17      1.0  0.05729  0.38327  0.12135  1.0000
  Hf  Hf18      1.0  0.05657  0.38325  0.62304  1.0000
  Hf  Hf19      1.0  0.05548  0.89312  0.12418  1.0000
  Hf  Hf20      1.0  0.05202  0.88171  0.63401  1.0000
  Hf  Hf21      1.0  0.30637  0.39519  0.11753  1.0000
  Hf  Hf22      1.0  0.30537  0.39248  0.61648  1.0000
  Hf  Hf23      1.0  0.30269  0.89066  0.13473  1.0000
  Hf  Hf24      1.0  0.29904  0.88884  0.63157  1.0000
  Hf  Hf25      1.0  0.55144  0.40374  0.11563  1.0000
  Hf  Hf26      1.0  0.55525  0.39907  0.61219  1.0000
  Hf  Hf27      1.0  0.55619  0.90004  0.11971  1.0000
  Hf  Hf28      1.0  0.55159  0.88740  0.62965  1.0000
  Hf  Hf29      1.0  0.80399  0.39868  0.11981  1.0000
  Hf  Hf30      1.0  0.80682  0.39152  0.62049  1.0000
  Hf  Hf31      1.0  0.80327  0.88618  0.13018  1.0000
  Hf  Hf32      1.0  0.80475  0.89299  0.62791  1.0000
  Hf  Hf33      1.0  0.05742  0.17985  0.41560  1.0000
  Hf  Hf34      1.0  0.05875  0.18430  0.91829  1.0000
  Hf  Hf35      1.0  0.05048  0.67770  0.42563  1.0000
  Hf  Hf36      1.0  0.05517  0.67650  0.91920  1.0000
  Hf  Hf37      1.0  0.31203  0.18206  0.40889  1.0000
  Hf  Hf38      1.0  0.30478  0.18522  0.91370  1.0000
  Hf  Hf39      1.0  0.30494  0.68240  0.41535  1.0000
  Hf  Hf40      1.0  0.30173  0.67313  0.92516  1.0000
  Hf  Hf41      1.0  0.55464  0.18042  0.41527  1.0000
  Hf  Hf42      1.0  0.55718  0.18787  0.91382  1.0000
  Hf  Hf43      1.0  0.55574  0.69012  0.40888  1.0000
  Hf  Hf44      1.0  0.55600  0.69165  0.91453  1.0000
  Hf  Hf45      1.0  0.80728  0.18942  0.41479  1.0000
  Hf  Hf46      1.0  0.80563  0.18016  0.92415  1.0000
  Hf  Hf47      1.0  0.80197  0.68165  0.42770  1.0000
  Hf  Hf48      1.0  0.80689  0.69431  0.91100  1.0000
  Hf  Hf49      1.0  0.15925  0.38542  0.32637  1.0000
  Hf  Hf50      1.0  0.16250  0.38631  0.82217  1.0000
  Hf  Hf51      1.0  0.15902  0.88534  0.33358  1.0000
  Hf  Hf52      1.0  0.15479  0.88057  0.84371  1.0000
  Hf  Hf53      1.0  0.41099  0.39074  0.32756  1.0000
  Hf  Hf54      1.0  0.41295  0.38780  0.82295  1.0000
  Hf  Hf55      1.0  0.41057  0.89630  0.32406  1.0000
  Hf  Hf56      1.0  0.40368  0.89032  0.83226  1.0000
  Hf  Hf57      1.0  0.65706  0.39136  0.33094  1.0000
  Hf  Hf58      1.0  0.66523  0.39818  0.81681  1.0000
  Hf  Hf59      1.0  0.66015  0.89258  0.32695  1.0000
  Hf  Hf60      1.0  0.65998  0.89709  0.82920  1.0000
  Hf  Hf61      1.0  0.91087  0.38963  0.32873  1.0000
  Hf  Hf62      1.0  0.90850  0.38902  0.83268  1.0000
  Hf  Hf63      1.0  0.90871  0.89407  0.32975  1.0000
  Hf  Hf64      1.0  0.91095  0.88738  0.83568  1.0000
  Hf  Hf65      1.0  0.19320  0.31493  0.08321  1.0000
  Hf  Hf66      1.0  0.19518  0.30332  0.59065  1.0000
  Hf  Hf67      1.0  0.19276  0.80292  0.09446  1.0000
  Hf  Hf68      1.0  0.19148  0.81700  0.58510  1.0000
  Hf  Hf69      1.0  0.44906  0.32477  0.07490  1.0000
  Hf  Hf70      1.0  0.44422  0.31227  0.58022  1.0000
  Hf  Hf71      1.0  0.44398  0.81356  0.08686  1.0000
  Hf  Hf72      1.0  0.44036  0.81968  0.58167  1.0000
  Hf  Hf73      1.0  0.69494  0.32573  0.07766  1.0000
  Hf  Hf74      1.0  0.69583  0.32837  0.57272  1.0000
  Hf  Hf75      1.0  0.69248  0.81561  0.08744  1.0000
  Hf  Hf76      1.0  0.69017  0.82344  0.58481  1.0000
  Hf  Hf77      1.0  0.94599  0.31171  0.08705  1.0000
  Hf  Hf78      1.0  0.94412  0.31637  0.58580  1.0000
  Hf  Hf79      1.0  0.94392  0.81611  0.08816  1.0000
  Hf  Hf80      1.0  0.94183  0.81682  0.59040  1.0000
  Hf  Hf81      1.0  0.08685  0.10333  0.17408  1.0000
  Hf  Hf82      1.0  0.09388  0.10308  0.67440  1.0000
  Hf  Hf83      1.0  0.08779  0.60819  0.17336  1.0000
  Hf  Hf84      1.0  0.08771  0.60664  0.66684  1.0000
  Hf  Hf85      1.0  0.33997  0.11724  0.16626  1.0000
  Hf  Hf86      1.0  0.34137  0.11162  0.66232  1.0000
  Hf  Hf87      1.0  0.34097  0.60552  0.17231  1.0000
  Hf  Hf88      1.0  0.33806  0.61212  0.66679  1.0000
  Hf  Hf89      1.0  0.59493  0.12612  0.15536  1.0000
  Hf  Hf90      1.0  0.58856  0.10949  0.67315  1.0000
  Hf  Hf91      1.0  0.58972  0.60982  0.16914  1.0000
  Hf  Hf92      1.0  0.59395  0.61369  0.66816  1.0000
  Hf  Hf93      1.0  0.84177  0.11028  0.16905  1.0000
  Hf  Hf94      1.0  0.84451  0.11154  0.66690  1.0000
  Hf  Hf95      1.0  0.83880  0.61435  0.17558  1.0000
  Hf  Hf96      1.0  0.84293  0.61109  0.66606  1.0000
  F   F1        1.0  0.08588  0.12126  0.30594  1.0000
  F   F2        1.0  0.07845  0.12113  0.81829  1.0000
  F   F3        1.0  0.07990  0.62972  0.31002  1.0000
  F   F4        1.0  0.07424  0.61725  0.81347  1.0000
  F   F5        1.0  0.33430  0.12518  0.29939  1.0000
  F   F6        1.0  0.32757  0.13083  0.80152  1.0000
  F   F7        1.0  0.33474  0.62164  0.30353  1.0000
  F   F8        1.0  0.32730  0.62774  0.80121  1.0000
  F   F9        1.0  0.57738  0.12471  0.30330  1.0000
  F   F10       1.0  0.57617  0.11118  0.80901  1.0000
  F   F11       1.0  0.58503  0.62855  0.31145  1.0000
  F   F12       1.0  0.58013  0.62902  0.81115  1.0000
  F   F13       1.0  0.82707  0.13965  0.29755  1.0000
  F   F14       1.0  0.84147  0.13382  0.79045  1.0000
  F   F15       1.0  0.82958  0.62976  0.30921  1.0000
  F   F16       1.0  0.83455  0.64750  0.79644  1.0000
  F   F17       1.0  0.18660  0.34394  0.44021  1.0000
  F   F18       1.0  0.19385  0.34208  0.93526  1.0000
  F   F19       1.0  0.18644  0.84520  0.44471  1.0000
  F   F20       1.0  0.17985  0.82834  0.96036  1.0000
  F   F21       1.0  0.43282  0.33497  0.44829  1.0000
  F   F22       1.0  0.44079  0.33717  0.93845  1.0000
  F   F23       1.0  0.43840  0.85332  0.44357  1.0000
  F   F24       1.0  0.43397  0.83500  0.95477  1.0000
  F   F25       1.0  0.68324  0.35612  0.44240  1.0000
  F   F26       1.0  0.68561  0.34444  0.94211  1.0000
  F   F27       1.0  0.68874  0.84515  0.44152  1.0000
  F   F28       1.0  0.68388  0.84839  0.94917  1.0000
  F   F29       1.0  0.94186  0.35930  0.43070  1.0000
  F   F30       1.0  0.93869  0.34727  0.93629  1.0000
  F   F31       1.0  0.93140  0.84543  0.44697  1.0000
  F   F32       1.0  0.93370  0.83926  0.95496  1.0000
  F   F33       1.0  0.17722  0.38650  0.18715  1.0000
  F   F34       1.0  0.17389  0.37582  0.68964  1.0000
  F   F35       1.0  0.16927  0.85668  0.21356  1.0000
  F   F36       1.0  0.15912  0.85828  0.71191  1.0000
  F   F37       1.0  0.42639  0.37383  0.18700  1.0000
  F   F38       1.0  0.42380  0.36910  0.68873  1.0000
  F   F39       1.0  0.42285  0.88116  0.19389  1.0000
  F   F40       1.0  0.41940  0.87419  0.69551  1.0000
  F   F41       1.0  0.66414  0.36163  0.20272  1.0000
  F   F42       1.0  0.67138  0.36924  0.69194  1.0000
  F   F43       1.0  0.66968  0.86970  0.20162  1.0000
  F   F44       1.0  0.66156  0.86256  0.70407  1.0000
  F   F45       1.0  0.91308  0.37117  0.19805  1.0000
  F   F46       1.0  0.92416  0.38647  0.68698  1.0000
  F   F47       1.0  0.91766  0.87846  0.19249  1.0000
  F   F48       1.0  0.91944  0.86342  0.70045  1.0000
  F   F49       1.0  0.06369  0.15887  0.05686  1.0000
  F   F50       1.0  0.06789  0.15121  0.55997  1.0000
  F   F51       1.0  0.05233  0.65462  0.07329  1.0000
  F   F52       1.0  0.05454  0.64544  0.56885  1.0000
  F   F53       1.0  0.31901  0.16805  0.04182  1.0000
  F   F54       1.0  0.31783  0.15278  0.54784  1.0000
  F   F55       1.0  0.30889  0.64221  0.05203  1.0000
  F   F56       1.0  0.31229  0.66972  0.54545  1.0000
  F   F57       1.0  0.56224  0.15473  0.05324  1.0000
  F   F58       1.0  0.56353  0.16412  0.54875  1.0000
  F   F59       1.0  0.56959  0.66391  0.04521  1.0000
  F   F60       1.0  0.57204  0.66653  0.54382  1.0000
  F   F61       1.0  0.82083  0.17239  0.04428  1.0000
  F   F62       1.0  0.81781  0.16036  0.55004  1.0000
  F   F63       1.0  0.80748  0.66781  0.05533  1.0000
  F   F64       1.0  0.80639  0.65310  0.56707  1.0000
  F   F65       1.0  0.19349  0.21425  0.21296  1.0000
  F   F66       1.0  0.19958  0.19834  0.72687  1.0000
  F   F67       1.0  0.20433  0.69040  0.22035  1.0000
  F   F68       1.0  0.20272  0.70084  0.70703  1.0000
  F   F69       1.0  0.45080  0.20434  0.20357  1.0000
  F   F70       1.0  0.44987  0.20585  0.71409  1.0000
  F   F71       1.0  0.45181  0.70663  0.21210  1.0000
  F   F72       1.0  0.44600  0.69528  0.70913  1.0000
  F   F73       1.0  0.70957  0.21033  0.20727  1.0000
  F   F74       1.0  0.70628  0.20916  0.70249  1.0000
  F   F75       1.0  0.70906  0.68897  0.22036  1.0000
  F   F76       1.0  0.71086  0.71155  0.70069  1.0000
  F   F77       1.0  0.96220  0.20131  0.21965  1.0000
  F   F78       1.0  0.94769  0.19499  0.70957  1.0000
  F   F79       1.0  0.94841  0.69944  0.21624  1.0000
  F   F80       1.0  0.95908  0.70984  0.70634  1.0000
  F   F81       1.0  0.15073  0.06624  0.03645  1.0000
  F   F82       1.0  0.15607  0.08631  0.55120  1.0000
  F   F83       1.0  0.13943  0.59468  0.03863  1.0000
  F   F84       1.0  0.14893  0.59636  0.54692  1.0000
  F   F85       1.0  0.39888  0.09560  0.03055  1.0000
  F   F86       1.0  0.39998  0.09154  0.53834  1.0000
  F   F87       1.0  0.39657  0.58941  0.03598  1.0000
  F   F88       1.0  0.39632  0.58349  0.55441  1.0000
  F   F89       1.0  0.65656  0.10203  0.03108  1.0000
  F   F90       1.0  0.64862  0.10441  0.54658  1.0000
  F   F91       1.0  0.65143  0.60282  0.03571  1.0000
  F   F92       1.0  0.65372  0.60586  0.55031  1.0000
  F   F93       1.0  0.90073  0.10102  0.04607  1.0000
  F   F94       1.0  0.90366  0.09530  0.52201  1.0000
  F   F95       1.0  0.89637  0.62307  0.03533  1.0000
  F   F96       1.0  0.89830  0.57988  0.54351  1.0000
  F   F97       1.0  0.14579  0.19692  0.09916  1.0000
  F   F98       1.0  0.15146  0.18641  0.63856  1.0000
  F   F99       1.0  0.14964  0.68944  0.13775  1.0000
  F   F100      1.0  0.14493  0.71099  0.63229  1.0000
  F   F101      1.0  0.40029  0.19738  0.11815  1.0000
  F   F102      1.0  0.39871  0.19470  0.63515  1.0000
  F   F103      1.0  0.40457  0.69190  0.12058  1.0000
  F   F104      1.0  0.39794  0.70150  0.62008  1.0000
  F   F105      1.0  0.65405  0.19683  0.12674  1.0000
  F   F106      1.0  0.65349  0.21310  0.61884  1.0000
  F   F107      1.0  0.65379  0.70127  0.12675  1.0000
  F   F108      1.0  0.65398  0.70433  0.63199  1.0000
  F   F109      1.0  0.90731  0.19548  0.12838  1.0000
  F   F110      1.0  0.90847  0.20293  0.59257  1.0000
  F   F111      1.0  0.89539  0.71266  0.13750  1.0000
  F   F112      1.0  0.90074  0.69345  0.61746  1.0000
  F   F113      1.0  0.09658  0.30381  0.37322  1.0000
  F   F114      1.0  0.10449  0.29291  0.88292  1.0000
  F   F115      1.0  0.09449  0.77991  0.37805  1.0000
  F   F116      1.0  0.09729  0.79650  0.90306  1.0000
  F   F117      1.0  0.35183  0.29686  0.37300  1.0000
  F   F118      1.0  0.35167  0.30316  0.87237  1.0000
  F   F119      1.0  0.35299  0.79044  0.34985  1.0000
  F   F120      1.0  0.34286  0.80045  0.88438  1.0000
  F   F121      1.0  0.59768  0.30920  0.37609  1.0000
  F   F122      1.0  0.60226  0.30745  0.88619  1.0000
  F   F123      1.0  0.59214  0.80817  0.36746  1.0000
  F   F124      1.0  0.60015  0.80850  0.87327  1.0000
  F   F125      1.0  0.84766  0.30972  0.38830  1.0000
  F   F126      1.0  0.84301  0.30894  0.86597  1.0000
  F   F127      1.0  0.84822  0.80474  0.38344  1.0000
  F   F128      1.0  0.85128  0.79750  0.87289  1.0000
  F   F129      1.0  0.05864  0.24219  0.15143  1.0000
  F   F130      1.0  0.06144  0.23512  0.66192  1.0000
  F   F131      1.0  0.07007  0.74776  0.12919  1.0000
  F   F132      1.0  0.06279  0.74580  0.64306  1.0000
  F   F133      1.0  0.31241  0.25181  0.14122  1.0000
  F   F134      1.0  0.32429  0.25441  0.61922  1.0000
  F   F135      1.0  0.32501  0.74915  0.11498  1.0000
  F   F136      1.0  0.31243  0.75161  0.64740  1.0000
  F   F137      1.0  0.57001  0.25586  0.12043  1.0000
  F   F138      1.0  0.56461  0.25599  0.63685  1.0000
  F   F139      1.0  0.56208  0.74656  0.14384  1.0000
  F   F140      1.0  0.56428  0.74566  0.64675  1.0000
  F   F141      1.0  0.81416  0.25691  0.13670  1.0000
  F   F142      1.0  0.82304  0.25589  0.63051  1.0000
  F   F143      1.0  0.80140  0.73982  0.16742  1.0000
  F   F144      1.0  0.81546  0.74608  0.64230  1.0000
  F   F145      1.0  0.12344  0.34604  0.13000  1.0000
  F   F146      1.0  0.12705  0.36878  0.60314  1.0000
  F   F147      1.0  0.12405  0.87253  0.10808  1.0000
  F   F148      1.0  0.12498  0.89253  0.59040  1.0000
  F   F149      1.0  0.37812  0.36688  0.10013  1.0000
  F   F150      1.0  0.37498  0.37822  0.60247  1.0000
  F   F151      1.0  0.37198  0.86887  0.11384  1.0000
  F   F152      1.0  0.36811  0.87136  0.60766  1.0000
  F   F153      1.0  0.61786  0.36167  0.11495  1.0000
  F   F154      1.0  0.62134  0.37771  0.61185  1.0000
  F   F155      1.0  0.62461  0.87265  0.11313  1.0000
  F   F156      1.0  0.62415  0.88491  0.59726  1.0000
  F   F157      1.0  0.87476  0.36629  0.10628  1.0000
  F   F158      1.0  0.87698  0.36943  0.60940  1.0000
  F   F159      1.0  0.87301  0.87622  0.09792  1.0000
  F   F160      1.0  0.87285  0.86117  0.62121  1.0000
  F   F161      1.0  0.18205  0.24073  0.37236  1.0000
  F   F162      1.0  0.18410  0.24655  0.86319  1.0000
  F   F163      1.0  0.18887  0.74867  0.35763  1.0000
  F   F164      1.0  0.18601  0.74772  0.85461  1.0000
  F   F165      1.0  0.44316  0.25124  0.35133  1.0000
  F   F166      1.0  0.43984  0.24626  0.85339  1.0000
  F   F167      1.0  0.42898  0.75259  0.36694  1.0000
  F   F168      1.0  0.42749  0.73759  0.86848  1.0000
  F   F169      1.0  0.68681  0.25571  0.36073  1.0000
  F   F170      1.0  0.68822  0.24717  0.85881  1.0000
  F   F171      1.0  0.67985  0.75503  0.36195  1.0000
  F   F172      1.0  0.69438  0.75785  0.84552  1.0000
  F   F173      1.0  0.93870  0.25262  0.35760  1.0000
  F   F174      1.0  0.92596  0.24608  0.86001  1.0000
  F   F175      1.0  0.93491  0.75116  0.34534  1.0000
  F   F176      1.0  0.93743  0.75119  0.85733  1.0000
  F   F177      1.0  0.12155  0.10398  0.42135  1.0000
  F   F178      1.0  0.12639  0.11843  0.89731  1.0000
  F   F179      1.0  0.12143  0.61158  0.42487  1.0000
  F   F180      1.0  0.12724  0.62867  0.87926  1.0000
  F   F181      1.0  0.38034  0.12117  0.39385  1.0000
  F   F182      1.0  0.37559  0.12893  0.89280  1.0000
  F   F183      1.0  0.37588  0.61179  0.41299  1.0000
  F   F184      1.0  0.37259  0.61131  0.90034  1.0000
  F   F185      1.0  0.62398  0.13010  0.38998  1.0000
  F   F186      1.0  0.62529  0.14292  0.88200  1.0000
  F   F187      1.0  0.62301  0.62336  0.40477  1.0000
  F   F188      1.0  0.62738  0.63634  0.89611  1.0000
  F   F189      1.0  0.87941  0.15389  0.35893  1.0000
  F   F190      1.0  0.87325  0.10765  0.91654  1.0000
  F   F191      1.0  0.86944  0.62012  0.41266  1.0000
  F   F192      1.0  0.88143  0.62868  0.89722  1.0000
  F   F193      1.0  0.00601  0.37948  0.05997  1.0000
  F   F194      1.0  0.00598  0.35594  0.58483  1.0000
  F   F195      1.0  0.00427  0.85544  0.09293  1.0000
  F   F196      1.0  0.00659  0.86283  0.58447  1.0000
  F   F197      1.0  0.25515  0.36330  0.06152  1.0000
  F   F198      1.0  0.25810  0.35545  0.58059  1.0000
  F   F199      1.0  0.26186  0.85353  0.07924  1.0000
  F   F200      1.0  0.25307  0.85647  0.58702  1.0000
  F   F201      1.0  0.51148  0.36975  0.06912  1.0000
  F   F202      1.0  0.50584  0.35578  0.57174  1.0000
  F   F203      1.0  0.50678  0.86989  0.07209  1.0000
  F   F204      1.0  0.50225  0.85739  0.58977  1.0000
  F   F205      1.0  0.76139  0.37328  0.04301  1.0000
  F   F206      1.0  0.76063  0.35260  0.57064  1.0000
  F   F207      1.0  0.75187  0.86427  0.08951  1.0000
  F   F208      1.0  0.75632  0.88010  0.58631  1.0000
  F   F209      1.0  0.07084  0.48018  0.16189  1.0000
  F   F210      1.0  0.06968  0.48440  0.66298  1.0000
  F   F211      1.0  0.06152  0.97463  0.18859  1.0000
  F   F212      1.0  0.07081  0.98546  0.68277  1.0000
  F   F213      1.0  0.32090  0.48326  0.16892  1.0000
  F   F214      1.0  0.31207  0.49525  0.67568  1.0000
  F   F215      1.0  0.31763  0.99420  0.16699  1.0000
  F   F216      1.0  0.31170  0.97624  0.68167  1.0000
  F   F217      1.0  0.57656  0.49668  0.14963  1.0000
  F   F218      1.0  0.57396  0.49122  0.67838  1.0000
  F   F219      1.0  0.57165  0.98602  0.17212  1.0000
  F   F220      1.0  0.56442  0.98670  0.67681  1.0000
  F   F221      1.0  0.81793  0.50147  0.16105  1.0000
  F   F222      1.0  0.81904  0.48450  0.67318  1.0000
  F   F223      1.0  0.83171  0.99126  0.15030  1.0000
  F   F224      1.0  0.82288  0.99429  0.66885  1.0000
  F   F225      1.0  0.24264  0.13085  0.43681  1.0000
  F   F226      1.0  0.24047  0.13496  0.92788  1.0000
  F   F227      1.0  0.24019  0.63254  0.43243  1.0000
  F   F228      1.0  0.24172  0.62431  0.92998  1.0000
  F   F229      1.0  0.49058  0.13243  0.43268  1.0000
  F   F230      1.0  0.48934  0.13934  0.94442  1.0000
  F   F231      1.0  0.48769  0.64664  0.42855  1.0000
  F   F232      1.0  0.49378  0.65605  0.91364  1.0000
  F   F233      1.0  0.74697  0.15378  0.40061  1.0000
  F   F234      1.0  0.74886  0.12717  0.91230  1.0000
  F   F235      1.0  0.74192  0.65963  0.41326  1.0000
  F   F236      1.0  0.74514  0.65424  0.91710  1.0000
  F   F237      1.0  0.99598  0.13952  0.42070  1.0000
  F   F238      1.0  0.98868  0.15356  0.92783  1.0000
  F   F239      1.0  0.98654  0.64530  0.42543  1.0000
  F   F240      1.0  0.99059  0.62819  0.93063  1.0000
  F   F241      1.0  0.18489  0.01601  0.32987  1.0000
  F   F242      1.0  0.18382  0.00641  0.83546  1.0000
  F   F243      1.0  0.18223  0.51448  0.30492  1.0000
  F   F244      1.0  0.18694  0.51338  0.81770  1.0000
  F   F245      1.0  0.43203  0.02224  0.32105  1.0000
  F   F246      1.0  0.42671  0.01198  0.82580  1.0000
  F   F247      1.0  0.43635  0.51411  0.32325  1.0000
  F   F248      1.0  0.43232  0.50462  0.82575  1.0000
  F   F249      1.0  0.68114  0.01875  0.32776  1.0000
  F   F250      1.0  0.67363  0.01368  0.83928  1.0000
  F   F251      1.0  0.68178  0.52026  0.31128  1.0000
  F   F252      1.0  0.68519  0.52326  0.81632  1.0000
  F   F253      1.0  0.93299  0.02200  0.32846  1.0000
  F   F254      1.0  0.92829  0.01265  0.83280  1.0000
  F   F255      1.0  0.92636  0.52234  0.31447  1.0000
  F   F256      1.0  0.93817  0.51197  0.80350  1.0000
  F   F257      1.0  0.00210  0.25203  0.00311  1.0000
  F   F258      1.0  0.99944  0.24368  0.50801  1.0000
  F   F259      1.0  0.00324  0.75564  0.98770  1.0000
  F   F260      1.0  0.99584  0.74599  0.50460  1.0000
  F   F261      1.0  0.24473  0.22587  0.01196  1.0000
  F   F262      1.0  0.25043  0.24822  0.50696  1.0000
  F   F263      1.0  0.24813  0.73440  0.01506  1.0000
  F   F264      1.0  0.25327  0.75870  0.48406  1.0000
  F   F265      1.0  0.50816  0.27450  0.98194  1.0000
  F   F266      1.0  0.49681  0.25009  0.48909  1.0000
  F   F267      1.0  0.50328  0.75450  0.00017  1.0000
  F   F268      1.0  0.50061  0.76343  0.50014  1.0000
  F   F269      1.0  0.74521  0.24041  0.99851  1.0000
  F   F270      1.0  0.75374  0.26757  0.47555  1.0000
  F   F271      1.0  0.75210  0.77248  0.98461  1.0000
  F   F272      1.0  0.75270  0.76872  0.49072  1.0000
  F   F273      1.0  0.12695  0.98859  0.23884  1.0000
  F   F274      1.0  0.12026  0.99232  0.76312  1.0000
  F   F275      1.0  0.11751  0.48854  0.25352  1.0000
  F   F276      1.0  0.12465  0.49395  0.75491  1.0000
  F   F277      1.0  0.36915  0.99966  0.25642  1.0000
  F   F278      1.0  0.36887  0.99468  0.75795  1.0000
  F   F279      1.0  0.37392  0.48572  0.25356  1.0000
  F   F280      1.0  0.37222  0.49035  0.75733  1.0000
  F   F281      1.0  0.62557  0.99960  0.25273  1.0000
  F   F282      1.0  0.63422  0.01780  0.73236  1.0000
  F   F283      1.0  0.63173  0.50487  0.23086  1.0000
  F   F284      1.0  0.63762  0.51176  0.73311  1.0000
  F   F285      1.0  0.87655  0.01633  0.25869  1.0000
  F   F286      1.0  0.87490  0.99397  0.75347  1.0000
  F   F287      1.0  0.86655  0.49479  0.25307  1.0000
  F   F288      1.0  0.87079  0.48955  0.75548  1.0000
  F   F289      1.0  0.04122  0.03173  0.02578  1.0000
  F   F290      1.0  0.03884  0.03086  0.53702  1.0000
  F   F291      1.0  0.04675  0.52519  0.01136  1.0000
  F   F292      1.0  0.04069  0.52176  0.52971  1.0000
  F   F293      1.0  0.29596  0.03732  0.01469  1.0000
  F   F294      1.0  0.29820  0.02585  0.50908  1.0000
  F   F295      1.0  0.28870  0.51843  0.02731  1.0000
  F   F296      1.0  0.29540  0.53461  0.51278  1.0000
  F   F297      1.0  0.54498  0.03903  0.01138  1.0000
  F   F298      1.0  0.54872  0.03446  0.51803  1.0000
  F   F299      1.0  0.53593  0.53719  0.02205  1.0000
  F   F300      1.0  0.54525  0.53892  0.51990  1.0000
  F   F301      1.0  0.79104  0.03146  0.03407  1.0000
  F   F302      1.0  0.80159  0.03829  0.51010  1.0000
  F   F303      1.0  0.79229  0.53409  0.01726  1.0000
  F   F304      1.0  0.78833  0.53261  0.51792  1.0000
  F   F305      1.0  0.23832  0.40258  0.22773  1.0000
  F   F306      1.0  0.23741  0.42002  0.71725  1.0000
  F   F307      1.0  0.23367  0.92125  0.22416  1.0000
  F   F308      1.0  0.22605  0.91896  0.72144  1.0000
  F   F309      1.0  0.48572  0.41724  0.22659  1.0000
  F   F310      1.0  0.48958  0.41127  0.71702  1.0000
  F   F311      1.0  0.48889  0.92865  0.21545  1.0000
  F   F312      1.0  0.48089  0.90800  0.74364  1.0000
  F   F313      1.0  0.73348  0.39759  0.22499  1.0000
  F   F314      1.0  0.73508  0.42383  0.71319  1.0000
  F   F315      1.0  0.73494  0.92283  0.23263  1.0000
  F   F316      1.0  0.73241  0.92263  0.72646  1.0000
  F   F317      1.0  0.98514  0.41629  0.21659  1.0000
  F   F318      1.0  0.98708  0.39852  0.72799  1.0000
  F   F319      1.0  0.97858  0.92591  0.22409  1.0000
  F   F320      1.0  0.98541  0.90737  0.73875  1.0000
  F   F321      1.0  0.20322  0.46712  0.48135  1.0000
  F   F322      1.0  0.19421  0.46955  0.00134  1.0000
  F   F323      1.0  0.20534  0.96683  0.49172  1.0000
  F   F324      1.0  0.21500  0.94404  0.98220  1.0000
  F   F325      1.0  0.46096  0.46466  0.48117  1.0000
  F   F326      1.0  0.46057  0.47988  0.96973  1.0000
  F   F327      1.0  0.45505  0.97391  0.48009  1.0000
  F   F328      1.0  0.45709  0.96902  0.97527  1.0000
  F   F329      1.0  0.70302  0.47875  0.48805  1.0000
  F   F330      1.0  0.69599  0.47064  0.98337  1.0000
  F   F331      1.0  0.70377  0.97520  0.49719  1.0000
  F   F332      1.0  0.71098  0.96555  0.98064  1.0000
  F   F333      1.0  0.95912  0.46945  0.47558  1.0000
  F   F334      1.0  0.95249  0.47694  0.99064  1.0000
  F   F335      1.0  0.96274  0.96366  0.47479  1.0000
  F   F336      1.0  0.95916  0.96946  0.98293  1.0000
  F   F337      1.0  0.01824  0.08119  0.28210  1.0000
  F   F338      1.0  0.01515  0.08567  0.78095  1.0000
  F   F339      1.0  0.01232  0.59338  0.26691  1.0000
  F   F340      1.0  0.01413  0.57428  0.77383  1.0000
  F   F341      1.0  0.26256  0.09631  0.28627  1.0000
  F   F342      1.0  0.26832  0.08833  0.75913  1.0000
  F   F343      1.0  0.26971  0.58134  0.27206  1.0000
  F   F344      1.0  0.26536  0.59056  0.76977  1.0000
  F   F345      1.0  0.51619  0.11261  0.25937  1.0000
  F   F346      1.0  0.50984  0.08727  0.77523  1.0000
  F   F347      1.0  0.51621  0.58348  0.26794  1.0000
  F   F348      1.0  0.51098  0.59923  0.75852  1.0000
  F   F349      1.0  0.76554  0.08837  0.27577  1.0000
  F   F350      1.0  0.76760  0.09876  0.76197  1.0000
  F   F351      1.0  0.76477  0.58314  0.28787  1.0000
  F   F352      1.0  0.76987  0.58090  0.78542  1.0000
  F   F353      1.0  0.10090  0.39945  0.46299  1.0000
  F   F354      1.0  0.10256  0.38921  0.97119  1.0000
  F   F355      1.0  0.09384  0.88941  0.45257  1.0000
  F   F356      1.0  0.10144  0.90006  0.97237  1.0000
  F   F357      1.0  0.35097  0.41764  0.44896  1.0000
  F   F358      1.0  0.35248  0.39707  0.95746  1.0000
  F   F359      1.0  0.34965  0.89171  0.44868  1.0000
  F   F360      1.0  0.34571  0.90946  0.95674  1.0000
  F   F361      1.0  0.59453  0.41970  0.45702  1.0000
  F   F362      1.0  0.60261  0.43114  0.94310  1.0000
  F   F363      1.0  0.60046  0.89406  0.46892  1.0000
  F   F364      1.0  0.60189  0.90766  0.96205  1.0000
  F   F365      1.0  0.85343  0.41526  0.45914  1.0000
  F   F366      1.0  0.85149  0.41405  0.96016  1.0000
  F   F367      1.0  0.84992  0.89543  0.47232  1.0000
  F   F368      1.0  0.85115  0.89503  0.95651  1.0000
  F   F369      1.0  0.04797  0.29550  0.29166  1.0000
  F   F370      1.0  0.05090  0.30010  0.78949  1.0000
  F   F371      1.0  0.04160  0.79763  0.27826  1.0000
  F   F372      1.0  0.05182  0.79966  0.78878  1.0000
  F   F373      1.0  0.29719  0.29146  0.29129  1.0000
  F   F374      1.0  0.29391  0.30863  0.78357  1.0000
  F   F375      1.0  0.29847  0.79075  0.28199  1.0000
  F   F376      1.0  0.28548  0.78965  0.81022  1.0000
  F   F377      1.0  0.54539  0.29358  0.28707  1.0000
  F   F378      1.0  0.55351  0.29684  0.78666  1.0000
  F   F379      1.0  0.53925  0.78441  0.28632  1.0000
  F   F380      1.0  0.54564  0.79961  0.78702  1.0000
  F   F381      1.0  0.80615  0.30793  0.28122  1.0000
  F   F382      1.0  0.79601  0.29281  0.78697  1.0000
  F   F383      1.0  0.80148  0.81291  0.27738  1.0000
  F   F384      1.0  0.78948  0.81056  0.78529  1.0000
