data_image0
_chemical_formula_structural       Hf96F384
_chemical_formula_sum              "Hf96 F384"
_cell_length_a       31.0149
_cell_length_b       15.5078
_cell_length_c       15.5029
_cell_angle_alpha    63.342
_cell_angle_beta     63.342
_cell_angle_gamma    80.1625

_space_group_name_H-M_alt    "P 1"
_space_group_IT_number       1

loop_
  _space_group_symop_operation_xyz
  'x, y, z'

loop_
  _atom_site_type_symbol
  _atom_site_label
  _atom_site_symmetry_multiplicity
  _atom_site_fract_x
  _atom_site_fract_y
  _atom_site_fract_z
  _atom_site_occupancy
  Hf  Hf1       1.0  0.19350  0.10928  0.37820  1.0000
  Hf  Hf2       1.0  0.19580  0.10709  0.87630  1.0000
  Hf  Hf3       1.0  0.19419  0.60921  0.37633  1.0000
  Hf  Hf4       1.0  0.19614  0.61085  0.87058  1.0000
  Hf  Hf5       1.0  0.44734  0.10183  0.38084  1.0000
  Hf  Hf6       1.0  0.44816  0.10072  0.87949  1.0000
  Hf  Hf7       1.0  0.44719  0.60714  0.37466  1.0000
  Hf  Hf8       1.0  0.44262  0.60369  0.88320  1.0000
  Hf  Hf9       1.0  0.69256  0.10363  0.38598  1.0000
  Hf  Hf10      1.0  0.69662  0.10690  0.87694  1.0000
  Hf  Hf11      1.0  0.69688  0.60459  0.37447  1.0000
  Hf  Hf12      1.0  0.69575  0.60410  0.87945  1.0000
  Hf  Hf13      1.0  0.94278  0.11568  0.37927  1.0000
  Hf  Hf14      1.0  0.94567  0.10014  0.87835  1.0000
  Hf  Hf15      1.0  0.94633  0.60625  0.37905  1.0000
  Hf  Hf16      1.0  0.94679  0.60995  0.86994  1.0000
  Hf  Hf17      1.0  0.05183  0.39163  0.12973  1.0000
  Hf  Hf18      1.0  0.05602  0.39700  0.62066  1.0000
  Hf  Hf19      1.0  0.05750  0.90189  0.10901  1.0000
  Hf  Hf20      1.0  0.05324  0.89740  0.61876  1.0000
  Hf  Hf21      1.0  0.30387  0.40135  0.11265  1.0000
  Hf  Hf22      1.0  0.30715  0.38662  0.62396  1.0000
  Hf  Hf23      1.0  0.30492  0.89250  0.12643  1.0000
  Hf  Hf24      1.0  0.30795  0.89850  0.61744  1.0000
  Hf  Hf25      1.0  0.55400  0.39239  0.12406  1.0000
  Hf  Hf26      1.0  0.55292  0.38477  0.63666  1.0000
  Hf  Hf27      1.0  0.55342  0.89210  0.13382  1.0000
  Hf  Hf28      1.0  0.55368  0.89600  0.62525  1.0000
  Hf  Hf29      1.0  0.80151  0.39011  0.13001  1.0000
  Hf  Hf30      1.0  0.80253  0.39549  0.62381  1.0000
  Hf  Hf31      1.0  0.80438  0.89070  0.12584  1.0000
  Hf  Hf32      1.0  0.80167  0.88803  0.63537  1.0000
  Hf  Hf33      1.0  0.05816  0.17959  0.41499  1.0000
  Hf  Hf34      1.0  0.05291  0.19474  0.91272  1.0000
  Hf  Hf35      1.0  0.05940  0.68917  0.40458  1.0000
  Hf  Hf36      1.0  0.06097  0.67911  0.90795  1.0000
  Hf  Hf37      1.0  0.30246  0.18566  0.41035  1.0000
  Hf  Hf38      1.0  0.30293  0.17924  0.91681  1.0000
  Hf  Hf39      1.0  0.30650  0.68077  0.41297  1.0000
  Hf  Hf40      1.0  0.30536  0.68829  0.91459  1.0000
  Hf  Hf41      1.0  0.55645  0.18460  0.42568  1.0000
  Hf  Hf42      1.0  0.55494  0.17789  0.92268  1.0000
  Hf  Hf43      1.0  0.55476  0.66939  0.42904  1.0000
  Hf  Hf44      1.0  0.55659  0.68292  0.91785  1.0000
  Hf  Hf45      1.0  0.80684  0.18204  0.41668  1.0000
  Hf  Hf46      1.0  0.80812  0.16952  0.91856  1.0000
  Hf  Hf47      1.0  0.80810  0.68235  0.41637  1.0000
  Hf  Hf48      1.0  0.80512  0.68161  0.91470  1.0000
  Hf  Hf49      1.0  0.16098  0.39388  0.31946  1.0000
  Hf  Hf50      1.0  0.15981  0.39025  0.82522  1.0000
  Hf  Hf51      1.0  0.15747  0.89500  0.33168  1.0000
  Hf  Hf52      1.0  0.15803  0.89152  0.82458  1.0000
  Hf  Hf53      1.0  0.40760  0.38616  0.33165  1.0000
  Hf  Hf54      1.0  0.40637  0.38307  0.83351  1.0000
  Hf  Hf55      1.0  0.40786  0.89467  0.33446  1.0000
  Hf  Hf56      1.0  0.40784  0.88237  0.83897  1.0000
  Hf  Hf57      1.0  0.66149  0.39271  0.32782  1.0000
  Hf  Hf58      1.0  0.66079  0.38797  0.83120  1.0000
  Hf  Hf59      1.0  0.66022  0.88330  0.33073  1.0000
  Hf  Hf60      1.0  0.65755  0.88778  0.83808  1.0000
  Hf  Hf61      1.0  0.90974  0.39573  0.33729  1.0000
  Hf  Hf62      1.0  0.90779  0.38360  0.83280  1.0000
  Hf  Hf63      1.0  0.91134  0.88356  0.33040  1.0000
  Hf  Hf64      1.0  0.91112  0.88681  0.83214  1.0000
  Hf  Hf65      1.0  0.19125  0.32268  0.07558  1.0000
  Hf  Hf66      1.0  0.19287  0.32265  0.57926  1.0000
  Hf  Hf67      1.0  0.19507  0.81985  0.08067  1.0000
  Hf  Hf68      1.0  0.19606  0.82727  0.57252  1.0000
  Hf  Hf69      1.0  0.44541  0.32141  0.07917  1.0000
  Hf  Hf70      1.0  0.44108  0.30773  0.59379  1.0000
  Hf  Hf71      1.0  0.44308  0.81147  0.09137  1.0000
  Hf  Hf72      1.0  0.44598  0.81740  0.58833  1.0000
  Hf  Hf73      1.0  0.69466  0.32090  0.08547  1.0000
  Hf  Hf74      1.0  0.69287  0.31320  0.58492  1.0000
  Hf  Hf75      1.0  0.69516  0.81225  0.08794  1.0000
  Hf  Hf76      1.0  0.69468  0.82303  0.58513  1.0000
  Hf  Hf77      1.0  0.93990  0.31708  0.08323  1.0000
  Hf  Hf78      1.0  0.94250  0.31429  0.58947  1.0000
  Hf  Hf79      1.0  0.94810  0.81135  0.07567  1.0000
  Hf  Hf80      1.0  0.94702  0.81666  0.57503  1.0000
  Hf  Hf81      1.0  0.09062  0.11618  0.16217  1.0000
  Hf  Hf82      1.0  0.08778  0.11773  0.66963  1.0000
  Hf  Hf83      1.0  0.09250  0.61603  0.16092  1.0000
  Hf  Hf84      1.0  0.09181  0.60879  0.66620  1.0000
  Hf  Hf85      1.0  0.34464  0.12054  0.15534  1.0000
  Hf  Hf86      1.0  0.34161  0.10714  0.66879  1.0000
  Hf  Hf87      1.0  0.33810  0.60598  0.17276  1.0000
  Hf  Hf88      1.0  0.34206  0.61646  0.66367  1.0000
  Hf  Hf89      1.0  0.58989  0.10768  0.17683  1.0000
  Hf  Hf90      1.0  0.58912  0.10338  0.67763  1.0000
  Hf  Hf91      1.0  0.58993  0.61446  0.16457  1.0000
  Hf  Hf92      1.0  0.59378  0.61270  0.66807  1.0000
  Hf  Hf93      1.0  0.83498  0.10265  0.17838  1.0000
  Hf  Hf94      1.0  0.84227  0.10994  0.66685  1.0000
  Hf  Hf95      1.0  0.84073  0.61040  0.16633  1.0000
  Hf  Hf96      1.0  0.84419  0.60727  0.66505  1.0000
  F   F1        1.0  0.07788  0.11720  0.30869  1.0000
  F   F2        1.0  0.07818  0.13655  0.80569  1.0000
  F   F3        1.0  0.07406  0.61018  0.30333  1.0000
  F   F4        1.0  0.08016  0.62013  0.80518  1.0000
  F   F5        1.0  0.32647  0.13192  0.30325  1.0000
  F   F6        1.0  0.32710  0.12853  0.80184  1.0000
  F   F7        1.0  0.32379  0.62421  0.30490  1.0000
  F   F8        1.0  0.32790  0.63211  0.80898  1.0000
  F   F9        1.0  0.57863  0.13566  0.30962  1.0000
  F   F10       1.0  0.57917  0.13021  0.80211  1.0000
  F   F11       1.0  0.57956  0.61810  0.31666  1.0000
  F   F12       1.0  0.57830  0.62986  0.80279  1.0000
  F   F13       1.0  0.82403  0.12626  0.30992  1.0000
  F   F14       1.0  0.82998  0.11754  0.80413  1.0000
  F   F15       1.0  0.83032  0.63045  0.30762  1.0000
  F   F16       1.0  0.83227  0.63445  0.80257  1.0000
  F   F17       1.0  0.19365  0.35322  0.43314  1.0000
  F   F18       1.0  0.19155  0.34506  0.93270  1.0000
  F   F19       1.0  0.18249  0.85862  0.44226  1.0000
  F   F20       1.0  0.18560  0.83075  0.94311  1.0000
  F   F21       1.0  0.43419  0.33104  0.44784  1.0000
  F   F22       1.0  0.43041  0.33570  0.95294  1.0000
  F   F23       1.0  0.43271  0.83902  0.45879  1.0000
  F   F24       1.0  0.42909  0.83901  0.96602  1.0000
  F   F25       1.0  0.68500  0.34329  0.45695  1.0000
  F   F26       1.0  0.68788  0.33982  0.95222  1.0000
  F   F27       1.0  0.68724  0.82770  0.44745  1.0000
  F   F28       1.0  0.68668  0.83196  0.94917  1.0000
  F   F29       1.0  0.93122  0.34285  0.45750  1.0000
  F   F30       1.0  0.93500  0.33252  0.94852  1.0000
  F   F31       1.0  0.93875  0.83977  0.44682  1.0000
  F   F32       1.0  0.93938  0.84574  0.93496  1.0000
  F   F33       1.0  0.16556  0.38729  0.18653  1.0000
  F   F34       1.0  0.16720  0.36404  0.70215  1.0000
  F   F35       1.0  0.16328  0.86227  0.19836  1.0000
  F   F36       1.0  0.16950  0.88610  0.69221  1.0000
  F   F37       1.0  0.41790  0.36930  0.19957  1.0000
  F   F38       1.0  0.42220  0.36922  0.69886  1.0000
  F   F39       1.0  0.42186  0.86092  0.20687  1.0000
  F   F40       1.0  0.42662  0.87394  0.70380  1.0000
  F   F41       1.0  0.67989  0.37635  0.19603  1.0000
  F   F42       1.0  0.66425  0.36627  0.70572  1.0000
  F   F43       1.0  0.67083  0.87869  0.19076  1.0000
  F   F44       1.0  0.67139  0.87114  0.69919  1.0000
  F   F45       1.0  0.91969  0.38563  0.19420  1.0000
  F   F46       1.0  0.92124  0.37278  0.69832  1.0000
  F   F47       1.0  0.92551  0.86865  0.19250  1.0000
  F   F48       1.0  0.92390  0.87389  0.68712  1.0000
  F   F49       1.0  0.06304  0.17363  0.04474  1.0000
  F   F50       1.0  0.06496  0.16747  0.54991  1.0000
  F   F51       1.0  0.06620  0.67485  0.04459  1.0000
  F   F52       1.0  0.06903  0.66094  0.54538  1.0000
  F   F53       1.0  0.31598  0.15367  0.04760  1.0000
  F   F54       1.0  0.30882  0.15737  0.56519  1.0000
  F   F55       1.0  0.31916  0.66843  0.04942  1.0000
  F   F56       1.0  0.31795  0.65591  0.54639  1.0000
  F   F57       1.0  0.55094  0.15317  0.06465  1.0000
  F   F58       1.0  0.56806  0.15703  0.55020  1.0000
  F   F59       1.0  0.56306  0.67179  0.05398  1.0000
  F   F60       1.0  0.56219  0.65186  0.56538  1.0000
  F   F61       1.0  0.82217  0.15860  0.05064  1.0000
  F   F62       1.0  0.81611  0.15406  0.54763  1.0000
  F   F63       1.0  0.81572  0.65483  0.05123  1.0000
  F   F64       1.0  0.81834  0.67193  0.54268  1.0000
  F   F65       1.0  0.19479  0.21751  0.20531  1.0000
  F   F66       1.0  0.19511  0.19456  0.71000  1.0000
  F   F67       1.0  0.20826  0.70454  0.20059  1.0000
  F   F68       1.0  0.19913  0.70733  0.70972  1.0000
  F   F69       1.0  0.46002  0.20560  0.19795  1.0000
  F   F70       1.0  0.45495  0.19463  0.71458  1.0000
  F   F71       1.0  0.45726  0.69936  0.21907  1.0000
  F   F72       1.0  0.45422  0.70143  0.72583  1.0000
  F   F73       1.0  0.69712  0.21098  0.22488  1.0000
  F   F74       1.0  0.69985  0.20132  0.70384  1.0000
  F   F75       1.0  0.70626  0.68926  0.20523  1.0000
  F   F76       1.0  0.71093  0.70897  0.69548  1.0000
  F   F77       1.0  0.95122  0.20243  0.20281  1.0000
  F   F78       1.0  0.95814  0.20040  0.71717  1.0000
  F   F79       1.0  0.94367  0.69955  0.23048  1.0000
  F   F80       1.0  0.94970  0.69791  0.71878  1.0000
  F   F81       1.0  0.14738  0.09538  0.03119  1.0000
  F   F82       1.0  0.14864  0.10098  0.52460  1.0000
  F   F83       1.0  0.15350  0.60556  0.03839  1.0000
  F   F84       1.0  0.14820  0.59741  0.52789  1.0000
  F   F85       1.0  0.40068  0.08263  0.04592  1.0000
  F   F86       1.0  0.39654  0.08963  0.53685  1.0000
  F   F87       1.0  0.39866  0.58019  0.04180  1.0000
  F   F88       1.0  0.39570  0.59118  0.54180  1.0000
  F   F89       1.0  0.64268  0.09483  0.04697  1.0000
  F   F90       1.0  0.64211  0.08523  0.55428  1.0000
  F   F91       1.0  0.64748  0.58438  0.04989  1.0000
  F   F92       1.0  0.64988  0.60551  0.54039  1.0000
  F   F93       1.0  0.90003  0.08534  0.04386  1.0000
  F   F94       1.0  0.89905  0.10893  0.53708  1.0000
  F   F95       1.0  0.90080  0.59186  0.03764  1.0000
  F   F96       1.0  0.90222  0.58467  0.54569  1.0000
  F   F97       1.0  0.14986  0.20967  0.11379  1.0000
  F   F98       1.0  0.14558  0.21039  0.61113  1.0000
  F   F99       1.0  0.14926  0.69495  0.14087  1.0000
  F   F100      1.0  0.15002  0.70540  0.61224  1.0000
  F   F101      1.0  0.40640  0.19510  0.11765  1.0000
  F   F102      1.0  0.40533  0.18728  0.62738  1.0000
  F   F103      1.0  0.39476  0.69179  0.14721  1.0000
  F   F104      1.0  0.40244  0.68502  0.63073  1.0000
  F   F105      1.0  0.65168  0.20258  0.13301  1.0000
  F   F106      1.0  0.64494  0.19954  0.62195  1.0000
  F   F107      1.0  0.65286  0.69598  0.12614  1.0000
  F   F108      1.0  0.65059  0.70472  0.63299  1.0000
  F   F109      1.0  0.89214  0.19684  0.12217  1.0000
  F   F110      1.0  0.90476  0.19202  0.64416  1.0000
  F   F111      1.0  0.91142  0.68833  0.12049  1.0000
  F   F112      1.0  0.90088  0.69051  0.63606  1.0000
  F   F113      1.0  0.10281  0.30745  0.36213  1.0000
  F   F114      1.0  0.09141  0.32055  0.86639  1.0000
  F   F115      1.0  0.09578  0.82315  0.39074  1.0000
  F   F116      1.0  0.09512  0.80973  0.86577  1.0000
  F   F117      1.0  0.34905  0.30269  0.37501  1.0000
  F   F118      1.0  0.34233  0.31190  0.87166  1.0000
  F   F119      1.0  0.34965  0.81325  0.38420  1.0000
  F   F120      1.0  0.34893  0.80248  0.86495  1.0000
  F   F121      1.0  0.59909  0.29689  0.35765  1.0000
  F   F122      1.0  0.59479  0.30022  0.88926  1.0000
  F   F123      1.0  0.60047  0.79974  0.37620  1.0000
  F   F124      1.0  0.59746  0.80472  0.86938  1.0000
  F   F125      1.0  0.85283  0.30618  0.37481  1.0000
  F   F126      1.0  0.84728  0.28764  0.87593  1.0000
  F   F127      1.0  0.85563  0.79235  0.35565  1.0000
  F   F128      1.0  0.85439  0.79279  0.86397  1.0000
  F   F129      1.0  0.05977  0.24831  0.14797  1.0000
  F   F130      1.0  0.05720  0.25225  0.65064  1.0000
  F   F131      1.0  0.06922  0.75701  0.13742  1.0000
  F   F132      1.0  0.06101  0.74878  0.64842  1.0000
  F   F133      1.0  0.31556  0.25221  0.13906  1.0000
  F   F134      1.0  0.31439  0.24916  0.64540  1.0000
  F   F135      1.0  0.31086  0.75016  0.15855  1.0000
  F   F136      1.0  0.31350  0.75325  0.63204  1.0000
  F   F137      1.0  0.56891  0.24950  0.14103  1.0000
  F   F138      1.0  0.55663  0.23960  0.66367  1.0000
  F   F139      1.0  0.56578  0.74513  0.15116  1.0000
  F   F140      1.0  0.57047  0.75813  0.62968  1.0000
  F   F141      1.0  0.80323  0.24271  0.16947  1.0000
  F   F142      1.0  0.82391  0.25640  0.61776  1.0000
  F   F143      1.0  0.82430  0.74511  0.13975  1.0000
  F   F144      1.0  0.82383  0.75217  0.63606  1.0000
  F   F145      1.0  0.12314  0.36886  0.09885  1.0000
  F   F146      1.0  0.12788  0.38044  0.59251  1.0000
  F   F147      1.0  0.12499  0.89385  0.08604  1.0000
  F   F148      1.0  0.12173  0.86257  0.61749  1.0000
  F   F149      1.0  0.37179  0.37410  0.11311  1.0000
  F   F150      1.0  0.37380  0.35644  0.62127  1.0000
  F   F151      1.0  0.37214  0.87742  0.11575  1.0000
  F   F152      1.0  0.37637  0.85795  0.62139  1.0000
  F   F153      1.0  0.62654  0.36937  0.11911  1.0000
  F   F154      1.0  0.62527  0.37415  0.60472  1.0000
  F   F155      1.0  0.62325  0.87142  0.11069  1.0000
  F   F156      1.0  0.62696  0.87927  0.59803  1.0000
  F   F157      1.0  0.87339  0.36980  0.11150  1.0000
  F   F158      1.0  0.87206  0.37137  0.61718  1.0000
  F   F159      1.0  0.87731  0.87523  0.09781  1.0000
  F   F160      1.0  0.87214  0.87649  0.60488  1.0000
  F   F161      1.0  0.19094  0.25955  0.34063  1.0000
  F   F162      1.0  0.19395  0.25234  0.83805  1.0000
  F   F163      1.0  0.18196  0.75198  0.36308  1.0000
  F   F164      1.0  0.17439  0.75106  0.86888  1.0000
  F   F165      1.0  0.43986  0.24989  0.33873  1.0000
  F   F166      1.0  0.43902  0.24648  0.85871  1.0000
  F   F167      1.0  0.43704  0.75148  0.36931  1.0000
  F   F168      1.0  0.42817  0.74036  0.88991  1.0000
  F   F169      1.0  0.67360  0.24393  0.37385  1.0000
  F   F170      1.0  0.68881  0.24781  0.85361  1.0000
  F   F171      1.0  0.68761  0.74834  0.34547  1.0000
  F   F172      1.0  0.68434  0.74240  0.86160  1.0000
  F   F173      1.0  0.94556  0.25942  0.33594  1.0000
  F   F174      1.0  0.92584  0.24256  0.88071  1.0000
  F   F175      1.0  0.93720  0.74700  0.37183  1.0000
  F   F176      1.0  0.93090  0.74769  0.85697  1.0000
  F   F177      1.0  0.12574  0.13627  0.38241  1.0000
  F   F178      1.0  0.12227  0.13891  0.89768  1.0000
  F   F179      1.0  0.12765  0.65044  0.36838  1.0000
  F   F180      1.0  0.12460  0.61558  0.89695  1.0000
  F   F181      1.0  0.37882  0.14180  0.38496  1.0000
  F   F182      1.0  0.37882  0.15629  0.87489  1.0000
  F   F183      1.0  0.37834  0.64110  0.38175  1.0000
  F   F184      1.0  0.37577  0.63324  0.88370  1.0000
  F   F185      1.0  0.62311  0.11206  0.41243  1.0000
  F   F186      1.0  0.62808  0.12953  0.90014  1.0000
  F   F187      1.0  0.62674  0.61990  0.40718  1.0000
  F   F188      1.0  0.62523  0.63631  0.88793  1.0000
  F   F189      1.0  0.87799  0.14057  0.37409  1.0000
  F   F190      1.0  0.87813  0.11660  0.88768  1.0000
  F   F191      1.0  0.87668  0.61082  0.41070  1.0000
  F   F192      1.0  0.87308  0.61799  0.90997  1.0000
  F   F193      1.0  0.00571  0.35292  0.08771  1.0000
  F   F194      1.0  0.00745  0.36396  0.57439  1.0000
  F   F195      1.0  0.00881  0.85385  0.07705  1.0000
  F   F196      1.0  0.00867  0.86550  0.56787  1.0000
  F   F197      1.0  0.25933  0.36526  0.05682  1.0000
  F   F198      1.0  0.26057  0.36454  0.56636  1.0000
  F   F199      1.0  0.25793  0.85073  0.08377  1.0000
  F   F200      1.0  0.25998  0.86347  0.56784  1.0000
  F   F201      1.0  0.50717  0.36419  0.07703  1.0000
  F   F202      1.0  0.50590  0.35072  0.58586  1.0000
  F   F203      1.0  0.50804  0.85336  0.08218  1.0000
  F   F204      1.0  0.50988  0.86002  0.56154  1.0000
  F   F205      1.0  0.75917  0.36194  0.07650  1.0000
  F   F206      1.0  0.75332  0.36621  0.57993  1.0000
  F   F207      1.0  0.75870  0.85423  0.08176  1.0000
  F   F208      1.0  0.75667  0.86230  0.58781  1.0000
  F   F209      1.0  0.07187  0.49132  0.16439  1.0000
  F   F210      1.0  0.06829  0.48622  0.68219  1.0000
  F   F211      1.0  0.06547  0.00212  0.16486  1.0000
  F   F212      1.0  0.06854  0.99306  0.66800  1.0000
  F   F213      1.0  0.31929  0.48576  0.17298  1.0000
  F   F214      1.0  0.31823  0.47649  0.67978  1.0000
  F   F215      1.0  0.32327  0.98964  0.17231  1.0000
  F   F216      1.0  0.31929  0.98738  0.67410  1.0000
  F   F217      1.0  0.56913  0.48715  0.16981  1.0000
  F   F218      1.0  0.57138  0.48011  0.67631  1.0000
  F   F219      1.0  0.57306  0.98722  0.17872  1.0000
  F   F220      1.0  0.56850  0.96906  0.69235  1.0000
  F   F221      1.0  0.81745  0.48747  0.17648  1.0000
  F   F222      1.0  0.81594  0.48864  0.67051  1.0000
  F   F223      1.0  0.81575  0.98685  0.16695  1.0000
  F   F224      1.0  0.82042  0.98946  0.67239  1.0000
  F   F225      1.0  0.23748  0.13353  0.44067  1.0000
  F   F226      1.0  0.23962  0.13485  0.93177  1.0000
  F   F227      1.0  0.24011  0.64734  0.42409  1.0000
  F   F228      1.0  0.24020  0.64573  0.91766  1.0000
  F   F229      1.0  0.49392  0.13374  0.42351  1.0000
  F   F230      1.0  0.49602  0.13907  0.92436  1.0000
  F   F231      1.0  0.48991  0.62781  0.44362  1.0000
  F   F232      1.0  0.49641  0.63522  0.93596  1.0000
  F   F233      1.0  0.73907  0.14970  0.41668  1.0000
  F   F234      1.0  0.74224  0.13284  0.92988  1.0000
  F   F235      1.0  0.74123  0.63985  0.41622  1.0000
  F   F236      1.0  0.74151  0.64842  0.92237  1.0000
  F   F237      1.0  0.99430  0.14447  0.42001  1.0000
  F   F238      1.0  0.99078  0.14019  0.92055  1.0000
  F   F239      1.0  0.99921  0.64886  0.41040  1.0000
  F   F240      1.0  0.99650  0.62714  0.93342  1.0000
  F   F241      1.0  0.17819  0.02271  0.32445  1.0000
  F   F242      1.0  0.17359  0.01174  0.84708  1.0000
  F   F243      1.0  0.18133  0.51733  0.32458  1.0000
  F   F244      1.0  0.18944  0.51712  0.81341  1.0000
  F   F245      1.0  0.42843  0.01949  0.32823  1.0000
  F   F246      1.0  0.42988  0.01804  0.82969  1.0000
  F   F247      1.0  0.42548  0.50878  0.33863  1.0000
  F   F248      1.0  0.42673  0.51073  0.83258  1.0000
  F   F249      1.0  0.68713  0.01532  0.31838  1.0000
  F   F250      1.0  0.67952  0.00660  0.83698  1.0000
  F   F251      1.0  0.68338  0.51086  0.31931  1.0000
  F   F252      1.0  0.67857  0.51474  0.83571  1.0000
  F   F253      1.0  0.93178  0.00640  0.31986  1.0000
  F   F254      1.0  0.93425  0.01531  0.80912  1.0000
  F   F255      1.0  0.93026  0.52219  0.32126  1.0000
  F   F256      1.0  0.93686  0.51724  0.80899  1.0000
  F   F257      1.0  0.99289  0.24453  0.99701  1.0000
  F   F258      1.0  0.00518  0.26562  0.49185  1.0000
  F   F259      1.0  0.00189  0.74265  0.99964  1.0000
  F   F260      1.0  0.00531  0.76133  0.49085  1.0000
  F   F261      1.0  0.25323  0.24457  0.99654  1.0000
  F   F262      1.0  0.24698  0.24590  0.50648  1.0000
  F   F263      1.0  0.25045  0.75472  0.00242  1.0000
  F   F264      1.0  0.24709  0.75025  0.49547  1.0000
  F   F265      1.0  0.50009  0.26615  0.97746  1.0000
  F   F266      1.0  0.49522  0.23978  0.50897  1.0000
  F   F267      1.0  0.49436  0.75206  0.00239  1.0000
  F   F268      1.0  0.50085  0.73417  0.50956  1.0000
  F   F269      1.0  0.75467  0.23763  0.00725  1.0000
  F   F270      1.0  0.75246  0.25084  0.50663  1.0000
  F   F271      1.0  0.75550  0.76364  0.98089  1.0000
  F   F272      1.0  0.75472  0.76011  0.49003  1.0000
  F   F273      1.0  0.13023  0.01128  0.22811  1.0000
  F   F274      1.0  0.12189  0.00866  0.74555  1.0000
  F   F275      1.0  0.12507  0.49812  0.25250  1.0000
  F   F276      1.0  0.13312  0.50621  0.73233  1.0000
  F   F277      1.0  0.37372  0.00859  0.25076  1.0000
  F   F278      1.0  0.37542  0.99364  0.75138  1.0000
  F   F279      1.0  0.36414  0.48971  0.26775  1.0000
  F   F280      1.0  0.37009  0.50736  0.75272  1.0000
  F   F281      1.0  0.62702  0.00232  0.25326  1.0000
  F   F282      1.0  0.61984  0.99858  0.76600  1.0000
  F   F283      1.0  0.62501  0.49929  0.24863  1.0000
  F   F284      1.0  0.63266  0.50977  0.74451  1.0000
  F   F285      1.0  0.87447  0.99353  0.24378  1.0000
  F   F286      1.0  0.88560  0.00302  0.72791  1.0000
  F   F287      1.0  0.87368  0.49969  0.25626  1.0000
  F   F288      1.0  0.86337  0.49176  0.77116  1.0000
  F   F289      1.0  0.04548  0.03079  0.01404  1.0000
  F   F290      1.0  0.03330  0.03886  0.53601  1.0000
  F   F291      1.0  0.04640  0.52245  0.01705  1.0000
  F   F292      1.0  0.04521  0.53337  0.51556  1.0000
  F   F293      1.0  0.30059  0.02905  0.00051  1.0000
  F   F294      1.0  0.29827  0.03616  0.51446  1.0000
  F   F295      1.0  0.28663  0.54285  0.02327  1.0000
  F   F296      1.0  0.29510  0.53747  0.51398  1.0000
  F   F297      1.0  0.54736  0.02484  0.02616  1.0000
  F   F298      1.0  0.54019  0.02736  0.53362  1.0000
  F   F299      1.0  0.54403  0.53577  0.02410  1.0000
  F   F300      1.0  0.54632  0.52356  0.52980  1.0000
  F   F301      1.0  0.79109  0.03154  0.02192  1.0000
  F   F302      1.0  0.78768  0.02717  0.52835  1.0000
  F   F303      1.0  0.78606  0.52650  0.03452  1.0000
  F   F304      1.0  0.79147  0.52993  0.53093  1.0000
  F   F305      1.0  0.23901  0.42645  0.20874  1.0000
  F   F306      1.0  0.22977  0.42049  0.71129  1.0000
  F   F307      1.0  0.23326  0.92501  0.21721  1.0000
  F   F308      1.0  0.23422  0.91616  0.71788  1.0000
  F   F309      1.0  0.48027  0.43168  0.22080  1.0000
  F   F310      1.0  0.48352  0.42237  0.72532  1.0000
  F   F311      1.0  0.48733  0.91265  0.23358  1.0000
  F   F312      1.0  0.48500  0.90540  0.74534  1.0000
  F   F313      1.0  0.73645  0.41255  0.24294  1.0000
  F   F314      1.0  0.73153  0.42760  0.72091  1.0000
  F   F315      1.0  0.73687  0.91525  0.21819  1.0000
  F   F316      1.0  0.72978  0.91901  0.73308  1.0000
  F   F317      1.0  0.98608  0.42000  0.23145  1.0000
  F   F318      1.0  0.98764  0.40391  0.72366  1.0000
  F   F319      1.0  0.98973  0.89120  0.24288  1.0000
  F   F320      1.0  0.98701  0.90047  0.72364  1.0000
  F   F321      1.0  0.20608  0.47690  0.47966  1.0000
  F   F322      1.0  0.20775  0.47638  0.97174  1.0000
  F   F323      1.0  0.21211  0.97156  0.47145  1.0000
  F   F324      1.0  0.20724  0.96986  0.99091  1.0000
  F   F325      1.0  0.44917  0.46208  0.49547  1.0000
  F   F326      1.0  0.46238  0.46932  0.96832  1.0000
  F   F327      1.0  0.45557  0.96438  0.48070  1.0000
  F   F328      1.0  0.45962  0.96095  0.98489  1.0000
  F   F329      1.0  0.70990  0.47023  0.47308  1.0000
  F   F330      1.0  0.71215  0.47964  0.97944  1.0000
  F   F331      1.0  0.70841  0.96601  0.48337  1.0000
  F   F332      1.0  0.71116  0.95951  0.97463  1.0000
  F   F333      1.0  0.95452  0.46276  0.48887  1.0000
  F   F334      1.0  0.95756  0.46072  0.96958  1.0000
  F   F335      1.0  0.95829  0.97490  0.46839  1.0000
  F   F336      1.0  0.96299  0.96495  0.96365  1.0000
  F   F337      1.0  0.00899  0.08837  0.27589  1.0000
  F   F338      1.0  0.01895  0.06667  0.78267  1.0000
  F   F339      1.0  0.01311  0.59935  0.26258  1.0000
  F   F340      1.0  0.01763  0.59172  0.76626  1.0000
  F   F341      1.0  0.26308  0.09961  0.26071  1.0000
  F   F342      1.0  0.26222  0.08840  0.76821  1.0000
  F   F343      1.0  0.26182  0.58295  0.27317  1.0000
  F   F344      1.0  0.26854  0.59644  0.75598  1.0000
  F   F345      1.0  0.51402  0.09048  0.28018  1.0000
  F   F346      1.0  0.51695  0.06825  0.78984  1.0000
  F   F347      1.0  0.51459  0.57392  0.27496  1.0000
  F   F348      1.0  0.51989  0.57833  0.77241  1.0000
  F   F349      1.0  0.76057  0.09093  0.27463  1.0000
  F   F350      1.0  0.76468  0.09787  0.76328  1.0000
  F   F351      1.0  0.76836  0.59905  0.27194  1.0000
  F   F352      1.0  0.76326  0.59470  0.76828  1.0000
  F   F353      1.0  0.10058  0.40456  0.45932  1.0000
  F   F354      1.0  0.10372  0.40570  0.95386  1.0000
  F   F355      1.0  0.09986  0.93823  0.45970  1.0000
  F   F356      1.0  0.09589  0.90150  0.95051  1.0000
  F   F357      1.0  0.35220  0.39775  0.47614  1.0000
  F   F358      1.0  0.34693  0.41889  0.96485  1.0000
  F   F359      1.0  0.35347  0.91894  0.46552  1.0000
  F   F360      1.0  0.34961  0.88626  0.97055  1.0000
  F   F361      1.0  0.59984  0.38778  0.46607  1.0000
  F   F362      1.0  0.60124  0.40362  0.96585  1.0000
  F   F363      1.0  0.60190  0.91658  0.45489  1.0000
  F   F364      1.0  0.59684  0.89257  0.97062  1.0000
  F   F365      1.0  0.85270  0.41839  0.46092  1.0000
  F   F366      1.0  0.84936  0.39486  0.96470  1.0000
  F   F367      1.0  0.84824  0.90398  0.44874  1.0000
  F   F368      1.0  0.85426  0.90092  0.95418  1.0000
  F   F369      1.0  0.05789  0.29585  0.27583  1.0000
  F   F370      1.0  0.04972  0.31410  0.77423  1.0000
  F   F371      1.0  0.06904  0.80336  0.27038  1.0000
  F   F372      1.0  0.04559  0.79979  0.78816  1.0000
  F   F373      1.0  0.30018  0.29984  0.27873  1.0000
  F   F374      1.0  0.29061  0.29420  0.78947  1.0000
  F   F375      1.0  0.29181  0.80843  0.30091  1.0000
  F   F376      1.0  0.29246  0.80771  0.77299  1.0000
  F   F377      1.0  0.53668  0.31489  0.28003  1.0000
  F   F378      1.0  0.54893  0.30191  0.79050  1.0000
  F   F379      1.0  0.54877  0.80560  0.29137  1.0000
  F   F380      1.0  0.54784  0.79300  0.78304  1.0000
  F   F381      1.0  0.79594  0.30233  0.30254  1.0000
  F   F382      1.0  0.79331  0.30060  0.78024  1.0000
  F   F383      1.0  0.79387  0.78916  0.28670  1.0000
  F   F384      1.0  0.79910  0.79682  0.78102  1.0000
