data_image0
_chemical_formula_structural       Hf96F384
_chemical_formula_sum              "Hf96 F384"
_cell_length_a       31.0272
_cell_length_b       15.5174
_cell_length_c       15.5071
_cell_angle_alpha    63.342
_cell_angle_beta     63.342
_cell_angle_gamma    80.1625

_space_group_name_H-M_alt    "P 1"
_space_group_IT_number       1

loop_
  _space_group_symop_operation_xyz
  'x, y, z'

loop_
  _atom_site_type_symbol
  _atom_site_label
  _atom_site_symmetry_multiplicity
  _atom_site_fract_x
  _atom_site_fract_y
  _atom_site_fract_z
  _atom_site_occupancy
  Hf  Hf1       1.0  0.19507  0.10764  0.37343  1.0000
  Hf  Hf2       1.0  0.20067  0.11382  0.86442  1.0000
  Hf  Hf3       1.0  0.19626  0.61671  0.36757  1.0000
  Hf  Hf4       1.0  0.19403  0.60588  0.87370  1.0000
  Hf  Hf5       1.0  0.44781  0.11175  0.36696  1.0000
  Hf  Hf6       1.0  0.44776  0.10866  0.87386  1.0000
  Hf  Hf7       1.0  0.44362  0.60668  0.37628  1.0000
  Hf  Hf8       1.0  0.44780  0.61006  0.86744  1.0000
  Hf  Hf9       1.0  0.69685  0.10309  0.37828  1.0000
  Hf  Hf10      1.0  0.69436  0.09675  0.88473  1.0000
  Hf  Hf11      1.0  0.69633  0.59926  0.38604  1.0000
  Hf  Hf12      1.0  0.69699  0.60219  0.88141  1.0000
  Hf  Hf13      1.0  0.94845  0.11045  0.37205  1.0000
  Hf  Hf14      1.0  0.94915  0.11757  0.87017  1.0000
  Hf  Hf15      1.0  0.94794  0.60454  0.38054  1.0000
  Hf  Hf16      1.0  0.94834  0.61198  0.87563  1.0000
  Hf  Hf17      1.0  0.05615  0.39721  0.12288  1.0000
  Hf  Hf18      1.0  0.05393  0.39633  0.62190  1.0000
  Hf  Hf19      1.0  0.05455  0.89596  0.12040  1.0000
  Hf  Hf20      1.0  0.05314  0.90145  0.62016  1.0000
  Hf  Hf21      1.0  0.30278  0.39529  0.12998  1.0000
  Hf  Hf22      1.0  0.30344  0.38991  0.63114  1.0000
  Hf  Hf23      1.0  0.30152  0.90079  0.12573  1.0000
  Hf  Hf24      1.0  0.30486  0.89550  0.61839  1.0000
  Hf  Hf25      1.0  0.55220  0.38997  0.12480  1.0000
  Hf  Hf26      1.0  0.55404  0.38725  0.63002  1.0000
  Hf  Hf27      1.0  0.55514  0.88132  0.13816  1.0000
  Hf  Hf28      1.0  0.55510  0.88621  0.63183  1.0000
  Hf  Hf29      1.0  0.80479  0.39010  0.13037  1.0000
  Hf  Hf30      1.0  0.80386  0.39285  0.62938  1.0000
  Hf  Hf31      1.0  0.79961  0.88678  0.13037  1.0000
  Hf  Hf32      1.0  0.80269  0.88778  0.62437  1.0000
  Hf  Hf33      1.0  0.05629  0.19408  0.41445  1.0000
  Hf  Hf34      1.0  0.05589  0.18127  0.91307  1.0000
  Hf  Hf35      1.0  0.05655  0.69050  0.40897  1.0000
  Hf  Hf36      1.0  0.05698  0.69168  0.90208  1.0000
  Hf  Hf37      1.0  0.30674  0.17423  0.41889  1.0000
  Hf  Hf38      1.0  0.30668  0.18780  0.91656  1.0000
  Hf  Hf39      1.0  0.30365  0.68392  0.41888  1.0000
  Hf  Hf40      1.0  0.30488  0.67268  0.92089  1.0000
  Hf  Hf41      1.0  0.55144  0.17873  0.42423  1.0000
  Hf  Hf42      1.0  0.55668  0.17466  0.92266  1.0000
  Hf  Hf43      1.0  0.55715  0.67639  0.42271  1.0000
  Hf  Hf44      1.0  0.55450  0.67754  0.92060  1.0000
  Hf  Hf45      1.0  0.80650  0.18082  0.41088  1.0000
  Hf  Hf46      1.0  0.80721  0.18528  0.91729  1.0000
  Hf  Hf47      1.0  0.80875  0.67692  0.42248  1.0000
  Hf  Hf48      1.0  0.80605  0.67974  0.91440  1.0000
  Hf  Hf49      1.0  0.15890  0.39325  0.32865  1.0000
  Hf  Hf50      1.0  0.15543  0.38953  0.83002  1.0000
  Hf  Hf51      1.0  0.15973  0.88986  0.33259  1.0000
  Hf  Hf52      1.0  0.15748  0.89100  0.82886  1.0000
  Hf  Hf53      1.0  0.40770  0.38807  0.33429  1.0000
  Hf  Hf54      1.0  0.40835  0.38640  0.84043  1.0000
  Hf  Hf55      1.0  0.40625  0.88787  0.33604  1.0000
  Hf  Hf56      1.0  0.40518  0.88239  0.84110  1.0000
  Hf  Hf57      1.0  0.65653  0.37975  0.34617  1.0000
  Hf  Hf58      1.0  0.65821  0.38949  0.83537  1.0000
  Hf  Hf59      1.0  0.65691  0.88441  0.34355  1.0000
  Hf  Hf60      1.0  0.65873  0.88366  0.83584  1.0000
  Hf  Hf61      1.0  0.91435  0.39504  0.32495  1.0000
  Hf  Hf62      1.0  0.90784  0.39005  0.83869  1.0000
  Hf  Hf63      1.0  0.90831  0.88944  0.32978  1.0000
  Hf  Hf64      1.0  0.90600  0.89125  0.83230  1.0000
  Hf  Hf65      1.0  0.19434  0.32155  0.07737  1.0000
  Hf  Hf66      1.0  0.20026  0.32862  0.56859  1.0000
  Hf  Hf67      1.0  0.19481  0.82762  0.07345  1.0000
  Hf  Hf68      1.0  0.19401  0.81906  0.58135  1.0000
  Hf  Hf69      1.0  0.44271  0.31672  0.08610  1.0000
  Hf  Hf70      1.0  0.44219  0.31055  0.58933  1.0000
  Hf  Hf71      1.0  0.44643  0.81935  0.08471  1.0000
  Hf  Hf72      1.0  0.44674  0.81337  0.58191  1.0000
  Hf  Hf73      1.0  0.69218  0.30942  0.09372  1.0000
  Hf  Hf74      1.0  0.69295  0.30947  0.58985  1.0000
  Hf  Hf75      1.0  0.69303  0.80051  0.09860  1.0000
  Hf  Hf76      1.0  0.69370  0.81493  0.58455  1.0000
  Hf  Hf77      1.0  0.94518  0.32344  0.08093  1.0000
  Hf  Hf78      1.0  0.94653  0.32215  0.57963  1.0000
  Hf  Hf79      1.0  0.94276  0.81982  0.07590  1.0000
  Hf  Hf80      1.0  0.94730  0.81833  0.57947  1.0000
  Hf  Hf81      1.0  0.09145  0.11201  0.16743  1.0000
  Hf  Hf82      1.0  0.09282  0.11829  0.66065  1.0000
  Hf  Hf83      1.0  0.09075  0.61868  0.15610  1.0000
  Hf  Hf84      1.0  0.08859  0.62164  0.66273  1.0000
  Hf  Hf85      1.0  0.33980  0.11935  0.16721  1.0000
  Hf  Hf86      1.0  0.33815  0.11130  0.66815  1.0000
  Hf  Hf87      1.0  0.34393  0.62336  0.15437  1.0000
  Hf  Hf88      1.0  0.33850  0.61105  0.67049  1.0000
  Hf  Hf89      1.0  0.58969  0.11353  0.16606  1.0000
  Hf  Hf90      1.0  0.59377  0.11604  0.66466  1.0000
  Hf  Hf91      1.0  0.58996  0.60015  0.17652  1.0000
  Hf  Hf92      1.0  0.59291  0.60979  0.66845  1.0000
  Hf  Hf93      1.0  0.84195  0.10902  0.16223  1.0000
  Hf  Hf94      1.0  0.83993  0.10711  0.66857  1.0000
  Hf  Hf95      1.0  0.84190  0.61449  0.16391  1.0000
  Hf  Hf96      1.0  0.84125  0.60388  0.66837  1.0000
  F   F1        1.0  0.08649  0.15513  0.28801  1.0000
  F   F2        1.0  0.08197  0.11718  0.80460  1.0000
  F   F3        1.0  0.07135  0.64185  0.29650  1.0000
  F   F4        1.0  0.07513  0.61901  0.80840  1.0000
  F   F5        1.0  0.33013  0.11839  0.30785  1.0000
  F   F6        1.0  0.32372  0.12421  0.80815  1.0000
  F   F7        1.0  0.32832  0.62908  0.30918  1.0000
  F   F8        1.0  0.32885  0.59723  0.82193  1.0000
  F   F9        1.0  0.57895  0.14178  0.29409  1.0000
  F   F10       1.0  0.58044  0.13092  0.80041  1.0000
  F   F11       1.0  0.58448  0.62756  0.30507  1.0000
  F   F12       1.0  0.58138  0.61615  0.81649  1.0000
  F   F13       1.0  0.83354  0.12014  0.30001  1.0000
  F   F14       1.0  0.82709  0.12456  0.80619  1.0000
  F   F15       1.0  0.83286  0.62757  0.30308  1.0000
  F   F16       1.0  0.83214  0.61589  0.80559  1.0000
  F   F17       1.0  0.18927  0.34490  0.43323  1.0000
  F   F18       1.0  0.18446  0.35352  0.94200  1.0000
  F   F19       1.0  0.17978  0.83465  0.44873  1.0000
  F   F20       1.0  0.18344  0.84940  0.94788  1.0000
  F   F21       1.0  0.42940  0.33144  0.45829  1.0000
  F   F22       1.0  0.43954  0.34794  0.95053  1.0000
  F   F23       1.0  0.43491  0.84305  0.44676  1.0000
  F   F24       1.0  0.43077  0.82572  0.95258  1.0000
  F   F25       1.0  0.68526  0.34183  0.44917  1.0000
  F   F26       1.0  0.67740  0.32342  0.96190  1.0000
  F   F27       1.0  0.69045  0.85229  0.44198  1.0000
  F   F28       1.0  0.69153  0.82257  0.95514  1.0000
  F   F29       1.0  0.93918  0.34523  0.44496  1.0000
  F   F30       1.0  0.93219  0.35250  0.94502  1.0000
  F   F31       1.0  0.93685  0.84120  0.43370  1.0000
  F   F32       1.0  0.93673  0.84872  0.93256  1.0000
  F   F33       1.0  0.17869  0.39056  0.18231  1.0000
  F   F34       1.0  0.17004  0.37616  0.68322  1.0000
  F   F35       1.0  0.17341  0.87867  0.18498  1.0000
  F   F36       1.0  0.18297  0.89691  0.67715  1.0000
  F   F37       1.0  0.42536  0.37660  0.19259  1.0000
  F   F38       1.0  0.41585  0.34273  0.71924  1.0000
  F   F39       1.0  0.42889  0.87703  0.19288  1.0000
  F   F40       1.0  0.41391  0.86640  0.69272  1.0000
  F   F41       1.0  0.66358  0.37785  0.20603  1.0000
  F   F42       1.0  0.66838  0.37697  0.69301  1.0000
  F   F43       1.0  0.67099  0.85758  0.20334  1.0000
  F   F44       1.0  0.67071  0.85819  0.69922  1.0000
  F   F45       1.0  0.92233  0.37555  0.19248  1.0000
  F   F46       1.0  0.91916  0.37176  0.69760  1.0000
  F   F47       1.0  0.91378  0.87549  0.18681  1.0000
  F   F48       1.0  0.91377  0.87616  0.69094  1.0000
  F   F49       1.0  0.06718  0.16539  0.04803  1.0000
  F   F50       1.0  0.06768  0.17941  0.54342  1.0000
  F   F51       1.0  0.06708  0.66390  0.04250  1.0000
  F   F52       1.0  0.05704  0.65780  0.55494  1.0000
  F   F53       1.0  0.31802  0.17873  0.04024  1.0000
  F   F54       1.0  0.31694  0.15323  0.55299  1.0000
  F   F55       1.0  0.31488  0.66084  0.05192  1.0000
  F   F56       1.0  0.31639  0.67818  0.55040  1.0000
  F   F57       1.0  0.56392  0.15415  0.05941  1.0000
  F   F58       1.0  0.56229  0.15990  0.55342  1.0000
  F   F59       1.0  0.55653  0.65148  0.07099  1.0000
  F   F60       1.0  0.55588  0.64926  0.56940  1.0000
  F   F61       1.0  0.80499  0.15855  0.05912  1.0000
  F   F62       1.0  0.81365  0.16427  0.54851  1.0000
  F   F63       1.0  0.81551  0.65579  0.05530  1.0000
  F   F64       1.0  0.81336  0.64740  0.55605  1.0000
  F   F65       1.0  0.19733  0.20605  0.20271  1.0000
  F   F66       1.0  0.21248  0.19853  0.69842  1.0000
  F   F67       1.0  0.21023  0.71840  0.19624  1.0000
  F   F68       1.0  0.20136  0.71442  0.71621  1.0000
  F   F69       1.0  0.45349  0.20204  0.21724  1.0000
  F   F70       1.0  0.45878  0.20097  0.72234  1.0000
  F   F71       1.0  0.46124  0.70094  0.21810  1.0000
  F   F72       1.0  0.46278  0.69576  0.69146  1.0000
  F   F73       1.0  0.70680  0.19854  0.20899  1.0000
  F   F74       1.0  0.69920  0.19444  0.71684  1.0000
  F   F75       1.0  0.70225  0.69212  0.23639  1.0000
  F   F76       1.0  0.70387  0.70792  0.71217  1.0000
  F   F77       1.0  0.96098  0.20994  0.20986  1.0000
  F   F78       1.0  0.96008  0.20634  0.71713  1.0000
  F   F79       1.0  0.95287  0.70359  0.19171  1.0000
  F   F80       1.0  0.96366  0.70505  0.68715  1.0000
  F   F81       1.0  0.14776  0.09080  0.02574  1.0000
  F   F82       1.0  0.15218  0.09292  0.53508  1.0000
  F   F83       1.0  0.14428  0.57581  0.04391  1.0000
  F   F84       1.0  0.14678  0.61147  0.51553  1.0000
  F   F85       1.0  0.39954  0.09664  0.02977  1.0000
  F   F86       1.0  0.39879  0.09189  0.53364  1.0000
  F   F87       1.0  0.40104  0.61048  0.02753  1.0000
  F   F88       1.0  0.39508  0.59850  0.53623  1.0000
  F   F89       1.0  0.65109  0.08318  0.04768  1.0000
  F   F90       1.0  0.64893  0.08867  0.53491  1.0000
  F   F91       1.0  0.65021  0.58279  0.05044  1.0000
  F   F92       1.0  0.64441  0.58005  0.55391  1.0000
  F   F93       1.0  0.90286  0.10952  0.03618  1.0000
  F   F94       1.0  0.90308  0.10945  0.53453  1.0000
  F   F95       1.0  0.90058  0.60156  0.02633  1.0000
  F   F96       1.0  0.90119  0.57771  0.54400  1.0000
  F   F97       1.0  0.14802  0.20272  0.10297  1.0000
  F   F98       1.0  0.15175  0.21252  0.60464  1.0000
  F   F99       1.0  0.14839  0.69768  0.11771  1.0000
  F   F100      1.0  0.14867  0.69377  0.62815  1.0000
  F   F101      1.0  0.40198  0.19673  0.13200  1.0000
  F   F102      1.0  0.40164  0.19018  0.62607  1.0000
  F   F103      1.0  0.40424  0.69164  0.13655  1.0000
  F   F104      1.0  0.40414  0.69453  0.62296  1.0000
  F   F105      1.0  0.65240  0.19604  0.13330  1.0000
  F   F106      1.0  0.65501  0.18560  0.62436  1.0000
  F   F107      1.0  0.65252  0.69083  0.13110  1.0000
  F   F108      1.0  0.65088  0.68693  0.64358  1.0000
  F   F109      1.0  0.90458  0.20371  0.13311  1.0000
  F   F110      1.0  0.90766  0.20206  0.64109  1.0000
  F   F111      1.0  0.90030  0.70643  0.11113  1.0000
  F   F112      1.0  0.90526  0.69802  0.62070  1.0000
  F   F113      1.0  0.10614  0.30299  0.35524  1.0000
  F   F114      1.0  0.09677  0.32039  0.86216  1.0000
  F   F115      1.0  0.09788  0.80533  0.37662  1.0000
  F   F116      1.0  0.09874  0.81769  0.85068  1.0000
  F   F117      1.0  0.34991  0.29698  0.37295  1.0000
  F   F118      1.0  0.34038  0.31935  0.87234  1.0000
  F   F119      1.0  0.34690  0.81362  0.35494  1.0000
  F   F120      1.0  0.34870  0.80829  0.88410  1.0000
  F   F121      1.0  0.60002  0.29619  0.37574  1.0000
  F   F122      1.0  0.60043  0.29196  0.88312  1.0000
  F   F123      1.0  0.59771  0.79522  0.36856  1.0000
  F   F124      1.0  0.59582  0.79771  0.86501  1.0000
  F   F125      1.0  0.84876  0.29462  0.36764  1.0000
  F   F126      1.0  0.84577  0.29715  0.88278  1.0000
  F   F127      1.0  0.84597  0.79733  0.38833  1.0000
  F   F128      1.0  0.84721  0.80873  0.86705  1.0000
  F   F129      1.0  0.05567  0.25177  0.15826  1.0000
  F   F130      1.0  0.06502  0.25572  0.64990  1.0000
  F   F131      1.0  0.06101  0.75362  0.13758  1.0000
  F   F132      1.0  0.06486  0.75565  0.64517  1.0000
  F   F133      1.0  0.31850  0.24718  0.15126  1.0000
  F   F134      1.0  0.31471  0.24790  0.64293  1.0000
  F   F135      1.0  0.32253  0.76040  0.13338  1.0000
  F   F136      1.0  0.31950  0.75097  0.64947  1.0000
  F   F137      1.0  0.56161  0.25077  0.13468  1.0000
  F   F138      1.0  0.56056  0.23616  0.65938  1.0000
  F   F139      1.0  0.56858  0.74894  0.13541  1.0000
  F   F140      1.0  0.56443  0.74685  0.65661  1.0000
  F   F141      1.0  0.82381  0.25107  0.12976  1.0000
  F   F142      1.0  0.82153  0.25063  0.63854  1.0000
  F   F143      1.0  0.81582  0.74544  0.14863  1.0000
  F   F144      1.0  0.81516  0.74199  0.64724  1.0000
  F   F145      1.0  0.12566  0.36708  0.10603  1.0000
  F   F146      1.0  0.12946  0.39667  0.57967  1.0000
  F   F147      1.0  0.12543  0.87161  0.09817  1.0000
  F   F148      1.0  0.12664  0.86802  0.61092  1.0000
  F   F149      1.0  0.36720  0.36814  0.13228  1.0000
  F   F150      1.0  0.37309  0.36918  0.61116  1.0000
  F   F151      1.0  0.37698  0.88529  0.10749  1.0000
  F   F152      1.0  0.37440  0.87389  0.59254  1.0000
  F   F153      1.0  0.61765  0.36973  0.12391  1.0000
  F   F154      1.0  0.62389  0.35800  0.61582  1.0000
  F   F155      1.0  0.62734  0.87179  0.10204  1.0000
  F   F156      1.0  0.62514  0.87682  0.60364  1.0000
  F   F157      1.0  0.87680  0.38909  0.10073  1.0000
  F   F158      1.0  0.87561  0.39188  0.59393  1.0000
  F   F159      1.0  0.87101  0.87965  0.09618  1.0000
  F   F160      1.0  0.87517  0.88801  0.58632  1.0000
  F   F161      1.0  0.18741  0.25407  0.34075  1.0000
  F   F162      1.0  0.18669  0.26218  0.84977  1.0000
  F   F163      1.0  0.19247  0.75001  0.35184  1.0000
  F   F164      1.0  0.17755  0.74877  0.86958  1.0000
  F   F165      1.0  0.43699  0.24792  0.35829  1.0000
  F   F166      1.0  0.42658  0.24346  0.88192  1.0000
  F   F167      1.0  0.42534  0.74584  0.36691  1.0000
  F   F168      1.0  0.43929  0.74745  0.83760  1.0000
  F   F169      1.0  0.68593  0.24339  0.37010  1.0000
  F   F170      1.0  0.68213  0.23677  0.86530  1.0000
  F   F171      1.0  0.68195  0.73537  0.38772  1.0000
  F   F172      1.0  0.67838  0.73472  0.87722  1.0000
  F   F173      1.0  0.93696  0.24991  0.36400  1.0000
  F   F174      1.0  0.93648  0.25135  0.86603  1.0000
  F   F175      1.0  0.94134  0.75407  0.32638  1.0000
  F   F176      1.0  0.93373  0.75356  0.84687  1.0000
  F   F177      1.0  0.12368  0.12905  0.39848  1.0000
  F   F178      1.0  0.12967  0.15333  0.86952  1.0000
  F   F179      1.0  0.12475  0.65807  0.35694  1.0000
  F   F180      1.0  0.12145  0.63314  0.89651  1.0000
  F   F181      1.0  0.37766  0.12323  0.39358  1.0000
  F   F182      1.0  0.37539  0.13933  0.88287  1.0000
  F   F183      1.0  0.37409  0.62715  0.38907  1.0000
  F   F184      1.0  0.37624  0.63099  0.89004  1.0000
  F   F185      1.0  0.62683  0.12817  0.38904  1.0000
  F   F186      1.0  0.62413  0.11420  0.90586  1.0000
  F   F187      1.0  0.62538  0.62041  0.41465  1.0000
  F   F188      1.0  0.62093  0.61014  0.91782  1.0000
  F   F189      1.0  0.87726  0.12491  0.40244  1.0000
  F   F190      1.0  0.87918  0.14349  0.86793  1.0000
  F   F191      1.0  0.87764  0.63358  0.39531  1.0000
  F   F192      1.0  0.87510  0.63094  0.89714  1.0000
  F   F193      1.0  0.00703  0.36965  0.08540  1.0000
  F   F194      1.0  0.01003  0.36387  0.57411  1.0000
  F   F195      1.0  0.00612  0.86553  0.07303  1.0000
  F   F196      1.0  0.01042  0.86372  0.57015  1.0000
  F   F197      1.0  0.26014  0.35434  0.08561  1.0000
  F   F198      1.0  0.25796  0.35591  0.57791  1.0000
  F   F199      1.0  0.25484  0.87465  0.07270  1.0000
  F   F200      1.0  0.26278  0.85457  0.56785  1.0000
  F   F201      1.0  0.50814  0.34976  0.07467  1.0000
  F   F202      1.0  0.50706  0.35641  0.58367  1.0000
  F   F203      1.0  0.51297  0.85089  0.07627  1.0000
  F   F204      1.0  0.51010  0.86945  0.57103  1.0000
  F   F205      1.0  0.75496  0.35701  0.07566  1.0000
  F   F206      1.0  0.75840  0.35255  0.58302  1.0000
  F   F207      1.0  0.75441  0.84217  0.09328  1.0000
  F   F208      1.0  0.76072  0.85027  0.57070  1.0000
  F   F209      1.0  0.06076  0.49090  0.18061  1.0000
  F   F210      1.0  0.06781  0.48938  0.67465  1.0000
  F   F211      1.0  0.07147  0.99449  0.16185  1.0000
  F   F212      1.0  0.06642  0.99987  0.65784  1.0000
  F   F213      1.0  0.31863  0.49364  0.18268  1.0000
  F   F214      1.0  0.32093  0.48593  0.67028  1.0000
  F   F215      1.0  0.31563  0.00497  0.16200  1.0000
  F   F216      1.0  0.31885  0.98217  0.67061  1.0000
  F   F217      1.0  0.56681  0.48517  0.17455  1.0000
  F   F218      1.0  0.56634  0.47489  0.68421  1.0000
  F   F219      1.0  0.57046  0.97789  0.17734  1.0000
  F   F220      1.0  0.57068  0.98260  0.68791  1.0000
  F   F221      1.0  0.81746  0.48780  0.18287  1.0000
  F   F222      1.0  0.81704  0.47592  0.68635  1.0000
  F   F223      1.0  0.81960  0.99034  0.16472  1.0000
  F   F224      1.0  0.82080  0.98619  0.67084  1.0000
  F   F225      1.0  0.24120  0.12780  0.43394  1.0000
  F   F226      1.0  0.24328  0.16620  0.91035  1.0000
  F   F227      1.0  0.23841  0.63318  0.43061  1.0000
  F   F228      1.0  0.24137  0.64124  0.91628  1.0000
  F   F229      1.0  0.49444  0.14218  0.41789  1.0000
  F   F230      1.0  0.49381  0.13641  0.92215  1.0000
  F   F231      1.0  0.48997  0.62241  0.43476  1.0000
  F   F232      1.0  0.49534  0.64453  0.91665  1.0000
  F   F233      1.0  0.74302  0.13711  0.42492  1.0000
  F   F234      1.0  0.74290  0.13343  0.91857  1.0000
  F   F235      1.0  0.74557  0.62466  0.43352  1.0000
  F   F236      1.0  0.74461  0.63165  0.92674  1.0000
  F   F237      1.0  0.99757  0.14446  0.40815  1.0000
  F   F238      1.0  0.99276  0.12653  0.94685  1.0000
  F   F239      1.0  0.98723  0.64375  0.44018  1.0000
  F   F240      1.0  0.99389  0.64396  0.92037  1.0000
  F   F241      1.0  0.17985  0.01564  0.31598  1.0000
  F   F242      1.0  0.17519  0.01584  0.83508  1.0000
  F   F243      1.0  0.17752  0.52708  0.31444  1.0000
  F   F244      1.0  0.17635  0.52112  0.82090  1.0000
  F   F245      1.0  0.43132  0.02498  0.30701  1.0000
  F   F246      1.0  0.42542  0.01096  0.82887  1.0000
  F   F247      1.0  0.43514  0.50178  0.33609  1.0000
  F   F248      1.0  0.43768  0.51274  0.81514  1.0000
  F   F249      1.0  0.68142  0.01976  0.31914  1.0000
  F   F250      1.0  0.68633  0.00517  0.82388  1.0000
  F   F251      1.0  0.68208  0.51661  0.32620  1.0000
  F   F252      1.0  0.67948  0.50938  0.82413  1.0000
  F   F253      1.0  0.92907  0.01800  0.31506  1.0000
  F   F254      1.0  0.93398  0.02588  0.81910  1.0000
  F   F255      1.0  0.92918  0.51072  0.33417  1.0000
  F   F256      1.0  0.93020  0.51913  0.82024  1.0000
  F   F257      1.0  0.00098  0.26734  0.99207  1.0000
  F   F258      1.0  0.00156  0.25207  0.50495  1.0000
  F   F259      1.0  0.00321  0.75851  0.98542  1.0000
  F   F260      1.0  0.00292  0.77229  0.47310  1.0000
  F   F261      1.0  0.24901  0.26267  0.99556  1.0000
  F   F262      1.0  0.25362  0.25524  0.49102  1.0000
  F   F263      1.0  0.24522  0.73520  0.00112  1.0000
  F   F264      1.0  0.24839  0.75914  0.49679  1.0000
  F   F265      1.0  0.50104  0.23611  0.00686  1.0000
  F   F266      1.0  0.49721  0.24673  0.50384  1.0000
  F   F267      1.0  0.49821  0.76209  0.99342  1.0000
  F   F268      1.0  0.50891  0.76471  0.49251  1.0000
  F   F269      1.0  0.74466  0.24938  0.99980  1.0000
  F   F270      1.0  0.74592  0.24446  0.49994  1.0000
  F   F271      1.0  0.74828  0.71877  0.01700  1.0000
  F   F272      1.0  0.74510  0.73345  0.50786  1.0000
  F   F273      1.0  0.11799  0.99566  0.26164  1.0000
  F   F274      1.0  0.12147  0.00002  0.74965  1.0000
  F   F275      1.0  0.11843  0.50234  0.25692  1.0000
  F   F276      1.0  0.12700  0.50507  0.73837  1.0000
  F   F277      1.0  0.37603  0.00381  0.24937  1.0000
  F   F278      1.0  0.37411  0.00549  0.74907  1.0000
  F   F279      1.0  0.37918  0.50566  0.24346  1.0000
  F   F280      1.0  0.38460  0.49467  0.74679  1.0000
  F   F281      1.0  0.61889  0.99013  0.26804  1.0000
  F   F282      1.0  0.62706  0.99662  0.75226  1.0000
  F   F283      1.0  0.61382  0.48756  0.27380  1.0000
  F   F284      1.0  0.62151  0.49111  0.76097  1.0000
  F   F285      1.0  0.87175  0.99240  0.24895  1.0000
  F   F286      1.0  0.86770  0.99542  0.75915  1.0000
  F   F287      1.0  0.88826  0.51440  0.22870  1.0000
  F   F288      1.0  0.87603  0.49934  0.74817  1.0000
  F   F289      1.0  0.05732  0.02929  0.00420  1.0000
  F   F290      1.0  0.03898  0.03777  0.52186  1.0000
  F   F291      1.0  0.03785  0.53554  0.02961  1.0000
  F   F292      1.0  0.05237  0.53053  0.50891  1.0000
  F   F293      1.0  0.28355  0.04206  0.02859  1.0000
  F   F294      1.0  0.29134  0.03042  0.51982  1.0000
  F   F295      1.0  0.28557  0.52966  0.03110  1.0000
  F   F296      1.0  0.29270  0.53929  0.51316  1.0000
  F   F297      1.0  0.54449  0.02805  0.02952  1.0000
  F   F298      1.0  0.55026  0.02524  0.51684  1.0000
  F   F299      1.0  0.52787  0.51505  0.04423  1.0000
  F   F300      1.0  0.54588  0.52151  0.51895  1.0000
  F   F301      1.0  0.79301  0.02024  0.02231  1.0000
  F   F302      1.0  0.79170  0.02294  0.53015  1.0000
  F   F303      1.0  0.79211  0.53049  0.01959  1.0000
  F   F304      1.0  0.79764  0.51791  0.52830  1.0000
  F   F305      1.0  0.23892  0.43289  0.22081  1.0000
  F   F306      1.0  0.22902  0.42153  0.72564  1.0000
  F   F307      1.0  0.23076  0.91545  0.22854  1.0000
  F   F308      1.0  0.24036  0.89517  0.74321  1.0000
  F   F309      1.0  0.48529  0.41539  0.22294  1.0000
  F   F310      1.0  0.48017  0.39845  0.74044  1.0000
  F   F311      1.0  0.48855  0.90830  0.23690  1.0000
  F   F312      1.0  0.47991  0.90350  0.73121  1.0000
  F   F313      1.0  0.73818  0.40373  0.22757  1.0000
  F   F314      1.0  0.73292  0.40292  0.74229  1.0000
  F   F315      1.0  0.73373  0.90456  0.23125  1.0000
  F   F316      1.0  0.73634  0.89321  0.73718  1.0000
  F   F317      1.0  0.98529  0.41723  0.22416  1.0000
  F   F318      1.0  0.98872  0.41786  0.72953  1.0000
  F   F319      1.0  0.98524  0.93938  0.19901  1.0000
  F   F320      1.0  0.97914  0.91568  0.72308  1.0000
  F   F321      1.0  0.21883  0.47575  0.45232  1.0000
  F   F322      1.0  0.21214  0.46727  0.98153  1.0000
  F   F323      1.0  0.20537  0.96066  0.47109  1.0000
  F   F324      1.0  0.21079  0.97993  0.96954  1.0000
  F   F325      1.0  0.45379  0.46218  0.48241  1.0000
  F   F326      1.0  0.45911  0.47204  0.97228  1.0000
  F   F327      1.0  0.46279  0.96232  0.47066  1.0000
  F   F328      1.0  0.45862  0.96187  0.96906  1.0000
  F   F329      1.0  0.70881  0.46702  0.48789  1.0000
  F   F330      1.0  0.69313  0.45973  0.98331  1.0000
  F   F331      1.0  0.71459  0.97250  0.46889  1.0000
  F   F332      1.0  0.70378  0.95505  0.98139  1.0000
  F   F333      1.0  0.96749  0.47322  0.47340  1.0000
  F   F334      1.0  0.95613  0.47059  0.96890  1.0000
  F   F335      1.0  0.95865  0.97209  0.46298  1.0000
  F   F336      1.0  0.95282  0.97643  0.97839  1.0000
  F   F337      1.0  0.01683  0.09205  0.27170  1.0000
  F   F338      1.0  0.01789  0.09249  0.76816  1.0000
  F   F339      1.0  0.01264  0.59507  0.26678  1.0000
  F   F340      1.0  0.01620  0.58983  0.76692  1.0000
  F   F341      1.0  0.26345  0.09403  0.27057  1.0000
  F   F342      1.0  0.26601  0.06905  0.77568  1.0000
  F   F343      1.0  0.26783  0.60760  0.26373  1.0000
  F   F344      1.0  0.26636  0.57975  0.77705  1.0000
  F   F345      1.0  0.51634  0.08650  0.26719  1.0000
  F   F346      1.0  0.51263  0.07841  0.76956  1.0000
  F   F347      1.0  0.51909  0.58059  0.28302  1.0000
  F   F348      1.0  0.51877  0.57495  0.77947  1.0000
  F   F349      1.0  0.76611  0.09178  0.26587  1.0000
  F   F350      1.0  0.76357  0.07847  0.77265  1.0000
  F   F351      1.0  0.76348  0.57907  0.28655  1.0000
  F   F352      1.0  0.76608  0.57891  0.76311  1.0000
  F   F353      1.0  0.09926  0.39754  0.45282  1.0000
  F   F354      1.0  0.09707  0.41335  0.96182  1.0000
  F   F355      1.0  0.09464  0.90920  0.46415  1.0000
  F   F356      1.0  0.09626  0.88502  0.96857  1.0000
  F   F357      1.0  0.34832  0.41142  0.46337  1.0000
  F   F358      1.0  0.35546  0.42322  0.96009  1.0000
  F   F359      1.0  0.34588  0.90308  0.46088  1.0000
  F   F360      1.0  0.34876  0.92216  0.97100  1.0000
  F   F361      1.0  0.60032  0.38823  0.47933  1.0000
  F   F362      1.0  0.59398  0.42082  0.95856  1.0000
  F   F363      1.0  0.60165  0.88874  0.46783  1.0000
  F   F364      1.0  0.60221  0.89136  0.96141  1.0000
  F   F365      1.0  0.84966  0.39285  0.45480  1.0000
  F   F366      1.0  0.84791  0.40552  0.96682  1.0000
  F   F367      1.0  0.84996  0.89806  0.46103  1.0000
  F   F368      1.0  0.85073  0.89744  0.95622  1.0000
  F   F369      1.0  0.04523  0.31010  0.29557  1.0000
  F   F370      1.0  0.05175  0.29694  0.78198  1.0000
  F   F371      1.0  0.04438  0.80535  0.28566  1.0000
  F   F372      1.0  0.04149  0.81733  0.77871  1.0000
  F   F373      1.0  0.28858  0.29798  0.29282  1.0000
  F   F374      1.0  0.29703  0.29983  0.77918  1.0000
  F   F375      1.0  0.29379  0.80340  0.28234  1.0000
  F   F376      1.0  0.30064  0.78946  0.79582  1.0000
  F   F377      1.0  0.54376  0.29694  0.29224  1.0000
  F   F378      1.0  0.54068  0.29053  0.79906  1.0000
  F   F379      1.0  0.54365  0.77988  0.28853  1.0000
  F   F380      1.0  0.54545  0.80027  0.79178  1.0000
  F   F381      1.0  0.79117  0.28956  0.28227  1.0000
  F   F382      1.0  0.79619  0.29925  0.79292  1.0000
  F   F383      1.0  0.79524  0.79191  0.29899  1.0000
  F   F384      1.0  0.79581  0.79552  0.78810  1.0000
