data_image0
_chemical_formula_structural       Hf96F384
_chemical_formula_sum              "Hf96 F384"
_cell_length_a       31.0277
_cell_length_b       15.5128
_cell_length_c       15.5024
_cell_angle_alpha    63.342
_cell_angle_beta     63.342
_cell_angle_gamma    80.1625

_space_group_name_H-M_alt    "P 1"
_space_group_IT_number       1

loop_
  _space_group_symop_operation_xyz
  'x, y, z'

loop_
  _atom_site_type_symbol
  _atom_site_label
  _atom_site_symmetry_multiplicity
  _atom_site_fract_x
  _atom_site_fract_y
  _atom_site_fract_z
  _atom_site_occupancy
  Hf  Hf1       1.0  0.19325  0.10109  0.37791  1.0000
  Hf  Hf2       1.0  0.19690  0.11104  0.87351  1.0000
  Hf  Hf3       1.0  0.19740  0.61371  0.35903  1.0000
  Hf  Hf4       1.0  0.19731  0.60199  0.87853  1.0000
  Hf  Hf5       1.0  0.44688  0.10474  0.38031  1.0000
  Hf  Hf6       1.0  0.44775  0.11104  0.87427  1.0000
  Hf  Hf7       1.0  0.44815  0.60191  0.36365  1.0000
  Hf  Hf8       1.0  0.44608  0.60399  0.88368  1.0000
  Hf  Hf9       1.0  0.69613  0.11032  0.37941  1.0000
  Hf  Hf10      1.0  0.69529  0.11478  0.87329  1.0000
  Hf  Hf11      1.0  0.69685  0.61517  0.37116  1.0000
  Hf  Hf12      1.0  0.70024  0.60856  0.87181  1.0000
  Hf  Hf13      1.0  0.94290  0.10572  0.38048  1.0000
  Hf  Hf14      1.0  0.95053  0.11794  0.85848  1.0000
  Hf  Hf15      1.0  0.94640  0.61215  0.36875  1.0000
  Hf  Hf16      1.0  0.94488  0.60589  0.88476  1.0000
  Hf  Hf17      1.0  0.05719  0.38899  0.12990  1.0000
  Hf  Hf18      1.0  0.05156  0.38710  0.63801  1.0000
  Hf  Hf19      1.0  0.05406  0.88807  0.13194  1.0000
  Hf  Hf20      1.0  0.05300  0.89108  0.62399  1.0000
  Hf  Hf21      1.0  0.30576  0.38811  0.12751  1.0000
  Hf  Hf22      1.0  0.30001  0.39206  0.62970  1.0000
  Hf  Hf23      1.0  0.30635  0.88983  0.12406  1.0000
  Hf  Hf24      1.0  0.30355  0.88825  0.62562  1.0000
  Hf  Hf25      1.0  0.55142  0.39965  0.12070  1.0000
  Hf  Hf26      1.0  0.55449  0.39397  0.62354  1.0000
  Hf  Hf27      1.0  0.55434  0.89504  0.11851  1.0000
  Hf  Hf28      1.0  0.55200  0.89728  0.61751  1.0000
  Hf  Hf29      1.0  0.80469  0.39361  0.12383  1.0000
  Hf  Hf30      1.0  0.80179  0.38325  0.63069  1.0000
  Hf  Hf31      1.0  0.80588  0.90577  0.11362  1.0000
  Hf  Hf32      1.0  0.79975  0.88717  0.62466  1.0000
  Hf  Hf33      1.0  0.05636  0.17681  0.42541  1.0000
  Hf  Hf34      1.0  0.05237  0.17608  0.92900  1.0000
  Hf  Hf35      1.0  0.05561  0.67960  0.42510  1.0000
  Hf  Hf36      1.0  0.05788  0.68204  0.91350  1.0000
  Hf  Hf37      1.0  0.30574  0.18119  0.42014  1.0000
  Hf  Hf38      1.0  0.30430  0.17281  0.92145  1.0000
  Hf  Hf39      1.0  0.30097  0.67534  0.42165  1.0000
  Hf  Hf40      1.0  0.30781  0.67824  0.90918  1.0000
  Hf  Hf41      1.0  0.55454  0.18868  0.41817  1.0000
  Hf  Hf42      1.0  0.55127  0.17605  0.92448  1.0000
  Hf  Hf43      1.0  0.55232  0.68034  0.41676  1.0000
  Hf  Hf44      1.0  0.55798  0.68646  0.91401  1.0000
  Hf  Hf45      1.0  0.80738  0.18920  0.40895  1.0000
  Hf  Hf46      1.0  0.80452  0.18890  0.91674  1.0000
  Hf  Hf47      1.0  0.80535  0.68154  0.42047  1.0000
  Hf  Hf48      1.0  0.80636  0.68595  0.91818  1.0000
  Hf  Hf49      1.0  0.15448  0.38299  0.33718  1.0000
  Hf  Hf50      1.0  0.15534  0.37661  0.84792  1.0000
  Hf  Hf51      1.0  0.16150  0.88423  0.33311  1.0000
  Hf  Hf52      1.0  0.15705  0.88995  0.83797  1.0000
  Hf  Hf53      1.0  0.40685  0.38333  0.33495  1.0000
  Hf  Hf54      1.0  0.41765  0.39615  0.82001  1.0000
  Hf  Hf55      1.0  0.41055  0.88222  0.33202  1.0000
  Hf  Hf56      1.0  0.40905  0.88868  0.83312  1.0000
  Hf  Hf57      1.0  0.65960  0.38999  0.32870  1.0000
  Hf  Hf58      1.0  0.66074  0.39667  0.82491  1.0000
  Hf  Hf59      1.0  0.65671  0.89146  0.33815  1.0000
  Hf  Hf60      1.0  0.66146  0.89120  0.82996  1.0000
  Hf  Hf61      1.0  0.90882  0.38928  0.32966  1.0000
  Hf  Hf62      1.0  0.90977  0.38863  0.83196  1.0000
  Hf  Hf63      1.0  0.90902  0.89481  0.33196  1.0000
  Hf  Hf64      1.0  0.91061  0.89090  0.83510  1.0000
  Hf  Hf65      1.0  0.19571  0.31497  0.08621  1.0000
  Hf  Hf66      1.0  0.19284  0.31466  0.58677  1.0000
  Hf  Hf67      1.0  0.19446  0.81900  0.07702  1.0000
  Hf  Hf68      1.0  0.19401  0.80965  0.59475  1.0000
  Hf  Hf69      1.0  0.44349  0.31186  0.08156  1.0000
  Hf  Hf70      1.0  0.44029  0.31619  0.58611  1.0000
  Hf  Hf71      1.0  0.44608  0.81355  0.08333  1.0000
  Hf  Hf72      1.0  0.44223  0.80954  0.59071  1.0000
  Hf  Hf73      1.0  0.69087  0.31851  0.08914  1.0000
  Hf  Hf74      1.0  0.69289  0.32026  0.57945  1.0000
  Hf  Hf75      1.0  0.69323  0.82258  0.08118  1.0000
  Hf  Hf76      1.0  0.69288  0.82199  0.58536  1.0000
  Hf  Hf77      1.0  0.94468  0.31158  0.08878  1.0000
  Hf  Hf78      1.0  0.94680  0.32590  0.57086  1.0000
  Hf  Hf79      1.0  0.94701  0.82308  0.07489  1.0000
  Hf  Hf80      1.0  0.94305  0.81725  0.58468  1.0000
  Hf  Hf81      1.0  0.08835  0.10885  0.17609  1.0000
  Hf  Hf82      1.0  0.09283  0.11042  0.66853  1.0000
  Hf  Hf83      1.0  0.08942  0.60545  0.17444  1.0000
  Hf  Hf84      1.0  0.09366  0.61253  0.66970  1.0000
  Hf  Hf85      1.0  0.34107  0.11317  0.16389  1.0000
  Hf  Hf86      1.0  0.33929  0.10335  0.66966  1.0000
  Hf  Hf87      1.0  0.34291  0.60805  0.16261  1.0000
  Hf  Hf88      1.0  0.34410  0.61340  0.65694  1.0000
  Hf  Hf89      1.0  0.59077  0.11396  0.16531  1.0000
  Hf  Hf90      1.0  0.58923  0.11430  0.66732  1.0000
  Hf  Hf91      1.0  0.59843  0.61378  0.15444  1.0000
  Hf  Hf92      1.0  0.59666  0.62066  0.65177  1.0000
  Hf  Hf93      1.0  0.84271  0.11552  0.16203  1.0000
  Hf  Hf94      1.0  0.83895  0.11269  0.66873  1.0000
  Hf  Hf95      1.0  0.84154  0.61512  0.16462  1.0000
  Hf  Hf96      1.0  0.84424  0.61710  0.65719  1.0000
  F   F1        1.0  0.07212  0.12606  0.31723  1.0000
  F   F2        1.0  0.08104  0.11904  0.81494  1.0000
  F   F3        1.0  0.08470  0.62864  0.30706  1.0000
  F   F4        1.0  0.07887  0.61114  0.81400  1.0000
  F   F5        1.0  0.33212  0.13596  0.30068  1.0000
  F   F6        1.0  0.32406  0.12951  0.80471  1.0000
  F   F7        1.0  0.32129  0.61584  0.31315  1.0000
  F   F8        1.0  0.33665  0.65120  0.78350  1.0000
  F   F9        1.0  0.57612  0.12841  0.31600  1.0000
  F   F10       1.0  0.57161  0.11877  0.81148  1.0000
  F   F11       1.0  0.58285  0.63817  0.29860  1.0000
  F   F12       1.0  0.58417  0.63985  0.79185  1.0000
  F   F13       1.0  0.82744  0.11296  0.31170  1.0000
  F   F14       1.0  0.82748  0.13789  0.79717  1.0000
  F   F15       1.0  0.82960  0.62676  0.29678  1.0000
  F   F16       1.0  0.83267  0.64277  0.80209  1.0000
  F   F17       1.0  0.18443  0.32766  0.45266  1.0000
  F   F18       1.0  0.17542  0.32785  0.96021  1.0000
  F   F19       1.0  0.18448  0.82675  0.45770  1.0000
  F   F20       1.0  0.18800  0.83092  0.94882  1.0000
  F   F21       1.0  0.42285  0.33310  0.45897  1.0000
  F   F22       1.0  0.44052  0.33098  0.93821  1.0000
  F   F23       1.0  0.43959  0.84172  0.44000  1.0000
  F   F24       1.0  0.43792  0.85371  0.94327  1.0000
  F   F25       1.0  0.68455  0.33968  0.44598  1.0000
  F   F26       1.0  0.68799  0.34589  0.94201  1.0000
  F   F27       1.0  0.69038  0.86280  0.43887  1.0000
  F   F28       1.0  0.68737  0.84864  0.95045  1.0000
  F   F29       1.0  0.94031  0.35163  0.43587  1.0000
  F   F30       1.0  0.93024  0.33640  0.94850  1.0000
  F   F31       1.0  0.93298  0.83524  0.44487  1.0000
  F   F32       1.0  0.94445  0.85357  0.92944  1.0000
  F   F33       1.0  0.17325  0.38121  0.19255  1.0000
  F   F34       1.0  0.16284  0.35800  0.70349  1.0000
  F   F35       1.0  0.17154  0.88863  0.19522  1.0000
  F   F36       1.0  0.17082  0.87120  0.69735  1.0000
  F   F37       1.0  0.41614  0.36184  0.19927  1.0000
  F   F38       1.0  0.42015  0.38543  0.68419  1.0000
  F   F39       1.0  0.41787  0.87002  0.19224  1.0000
  F   F40       1.0  0.41758  0.87664  0.70039  1.0000
  F   F41       1.0  0.66392  0.39292  0.18856  1.0000
  F   F42       1.0  0.66747  0.37314  0.69864  1.0000
  F   F43       1.0  0.67346  0.87839  0.18725  1.0000
  F   F44       1.0  0.66876  0.88874  0.69385  1.0000
  F   F45       1.0  0.92373  0.36855  0.19719  1.0000
  F   F46       1.0  0.92034  0.36899  0.70391  1.0000
  F   F47       1.0  0.91779  0.86678  0.19765  1.0000
  F   F48       1.0  0.91993  0.87382  0.70474  1.0000
  F   F49       1.0  0.05650  0.15183  0.06745  1.0000
  F   F50       1.0  0.06461  0.16927  0.55640  1.0000
  F   F51       1.0  0.06885  0.66358  0.05539  1.0000
  F   F52       1.0  0.06395  0.65420  0.55042  1.0000
  F   F53       1.0  0.32168  0.16704  0.03604  1.0000
  F   F54       1.0  0.32036  0.15752  0.54188  1.0000
  F   F55       1.0  0.31731  0.65144  0.04445  1.0000
  F   F56       1.0  0.30696  0.65446  0.56283  1.0000
  F   F57       1.0  0.55810  0.15071  0.06608  1.0000
  F   F58       1.0  0.56441  0.16173  0.55072  1.0000
  F   F59       1.0  0.56569  0.64353  0.05722  1.0000
  F   F60       1.0  0.56256  0.66056  0.55978  1.0000
  F   F61       1.0  0.81472  0.16101  0.04841  1.0000
  F   F62       1.0  0.81811  0.17306  0.54391  1.0000
  F   F63       1.0  0.81620  0.66091  0.05352  1.0000
  F   F64       1.0  0.80465  0.65286  0.56081  1.0000
  F   F65       1.0  0.20709  0.20267  0.22078  1.0000
  F   F66       1.0  0.20190  0.19655  0.71858  1.0000
  F   F67       1.0  0.20595  0.70304  0.20128  1.0000
  F   F68       1.0  0.20808  0.70653  0.71914  1.0000
  F   F69       1.0  0.45760  0.20372  0.20337  1.0000
  F   F70       1.0  0.45869  0.20144  0.70558  1.0000
  F   F71       1.0  0.45988  0.70342  0.20407  1.0000
  F   F72       1.0  0.44723  0.70776  0.71863  1.0000
  F   F73       1.0  0.70084  0.21236  0.21072  1.0000
  F   F74       1.0  0.70691  0.20568  0.71677  1.0000
  F   F75       1.0  0.70836  0.71158  0.20059  1.0000
  F   F76       1.0  0.70039  0.71107  0.71213  1.0000
  F   F77       1.0  0.95656  0.20117  0.20999  1.0000
  F   F78       1.0  0.95232  0.19420  0.68884  1.0000
  F   F79       1.0  0.95423  0.69277  0.21038  1.0000
  F   F80       1.0  0.95386  0.70239  0.71979  1.0000
  F   F81       1.0  0.14545  0.10937  0.05104  1.0000
  F   F82       1.0  0.14998  0.08625  0.53634  1.0000
  F   F83       1.0  0.15208  0.58400  0.02581  1.0000
  F   F84       1.0  0.15241  0.60960  0.53861  1.0000
  F   F85       1.0  0.39598  0.09339  0.04547  1.0000
  F   F86       1.0  0.40250  0.08673  0.54637  1.0000
  F   F87       1.0  0.40362  0.58611  0.04347  1.0000
  F   F88       1.0  0.39951  0.59085  0.52452  1.0000
  F   F89       1.0  0.65035  0.10112  0.04081  1.0000
  F   F90       1.0  0.65313  0.09797  0.54335  1.0000
  F   F91       1.0  0.65355  0.59769  0.03822  1.0000
  F   F92       1.0  0.64921  0.59771  0.52557  1.0000
  F   F93       1.0  0.89826  0.09366  0.03928  1.0000
  F   F94       1.0  0.89673  0.08267  0.52728  1.0000
  F   F95       1.0  0.90104  0.58115  0.04864  1.0000
  F   F96       1.0  0.89388  0.58315  0.53150  1.0000
  F   F97       1.0  0.15377  0.18802  0.14700  1.0000
  F   F98       1.0  0.14738  0.19332  0.64418  1.0000
  F   F99       1.0  0.14939  0.68981  0.13374  1.0000
  F   F100      1.0  0.15290  0.68718  0.65580  1.0000
  F   F101      1.0  0.40741  0.19849  0.11839  1.0000
  F   F102      1.0  0.39768  0.19511  0.65105  1.0000
  F   F103      1.0  0.39777  0.68399  0.13934  1.0000
  F   F104      1.0  0.40581  0.68994  0.60885  1.0000
  F   F105      1.0  0.65253  0.19193  0.13336  1.0000
  F   F106      1.0  0.65055  0.20372  0.63333  1.0000
  F   F107      1.0  0.65368  0.70080  0.12251  1.0000
  F   F108      1.0  0.65241  0.70783  0.61184  1.0000
  F   F109      1.0  0.90242  0.18869  0.13096  1.0000
  F   F110      1.0  0.89834  0.19475  0.60009  1.0000
  F   F111      1.0  0.89752  0.70838  0.12236  1.0000
  F   F112      1.0  0.90458  0.68942  0.62062  1.0000
  F   F113      1.0  0.09956  0.29531  0.35563  1.0000
  F   F114      1.0  0.09951  0.29057  0.90220  1.0000
  F   F115      1.0  0.10042  0.80783  0.37779  1.0000
  F   F116      1.0  0.09734  0.81218  0.88187  1.0000
  F   F117      1.0  0.34844  0.30405  0.37873  1.0000
  F   F118      1.0  0.34991  0.28400  0.83812  1.0000
  F   F119      1.0  0.34838  0.79549  0.38338  1.0000
  F   F120      1.0  0.34681  0.79717  0.86374  1.0000
  F   F121      1.0  0.59738  0.29954  0.38397  1.0000
  F   F122      1.0  0.58986  0.29921  0.87689  1.0000
  F   F123      1.0  0.59966  0.81744  0.38099  1.0000
  F   F124      1.0  0.59742  0.80756  0.87335  1.0000
  F   F125      1.0  0.84879  0.31382  0.36973  1.0000
  F   F126      1.0  0.85413  0.29963  0.87247  1.0000
  F   F127      1.0  0.84917  0.80259  0.38199  1.0000
  F   F128      1.0  0.84706  0.80648  0.86866  1.0000
  F   F129      1.0  0.07539  0.25701  0.13918  1.0000
  F   F130      1.0  0.06939  0.25242  0.65123  1.0000
  F   F131      1.0  0.06202  0.74058  0.16130  1.0000
  F   F132      1.0  0.07083  0.75153  0.63483  1.0000
  F   F133      1.0  0.31761  0.24901  0.14258  1.0000
  F   F134      1.0  0.31731  0.25371  0.62634  1.0000
  F   F135      1.0  0.31152  0.75422  0.13018  1.0000
  F   F136      1.0  0.32431  0.75479  0.62106  1.0000
  F   F137      1.0  0.56669  0.25119  0.13690  1.0000
  F   F138      1.0  0.56823  0.24995  0.63755  1.0000
  F   F139      1.0  0.56846  0.74017  0.13189  1.0000
  F   F140      1.0  0.55739  0.75488  0.64435  1.0000
  F   F141      1.0  0.81398  0.24669  0.14389  1.0000
  F   F142      1.0  0.80912  0.24681  0.65230  1.0000
  F   F143      1.0  0.81441  0.76106  0.14031  1.0000
  F   F144      1.0  0.82159  0.75710  0.62597  1.0000
  F   F145      1.0  0.13062  0.38217  0.10013  1.0000
  F   F146      1.0  0.12250  0.37573  0.60119  1.0000
  F   F147      1.0  0.12502  0.86825  0.11305  1.0000
  F   F148      1.0  0.12387  0.87150  0.62004  1.0000
  F   F149      1.0  0.38184  0.38507  0.07668  1.0000
  F   F150      1.0  0.36894  0.36460  0.62820  1.0000
  F   F151      1.0  0.37451  0.85598  0.11021  1.0000
  F   F152      1.0  0.37281  0.85087  0.62452  1.0000
  F   F153      1.0  0.62484  0.37468  0.10062  1.0000
  F   F154      1.0  0.62662  0.38937  0.59564  1.0000
  F   F155      1.0  0.62263  0.87325  0.10394  1.0000
  F   F156      1.0  0.62137  0.87518  0.60658  1.0000
  F   F157      1.0  0.87735  0.37029  0.10124  1.0000
  F   F158      1.0  0.87618  0.34078  0.62092  1.0000
  F   F159      1.0  0.87677  0.87938  0.09262  1.0000
  F   F160      1.0  0.87537  0.85941  0.61807  1.0000
  F   F161      1.0  0.17211  0.25034  0.37136  1.0000
  F   F162      1.0  0.18182  0.24984  0.85271  1.0000
  F   F163      1.0  0.18985  0.75817  0.33811  1.0000
  F   F164      1.0  0.18267  0.75323  0.86400  1.0000
  F   F165      1.0  0.43213  0.24423  0.35620  1.0000
  F   F166      1.0  0.43075  0.25427  0.85927  1.0000
  F   F167      1.0  0.43912  0.74570  0.35191  1.0000
  F   F168      1.0  0.42398  0.74463  0.88216  1.0000
  F   F169      1.0  0.68915  0.25605  0.34353  1.0000
  F   F170      1.0  0.67173  0.25555  0.87114  1.0000
  F   F171      1.0  0.68833  0.76369  0.35213  1.0000
  F   F172      1.0  0.68365  0.74610  0.86372  1.0000
  F   F173      1.0  0.92895  0.24681  0.36199  1.0000
  F   F174      1.0  0.94600  0.25380  0.83986  1.0000
  F   F175      1.0  0.93645  0.74634  0.34864  1.0000
  F   F176      1.0  0.92367  0.74009  0.89058  1.0000
  F   F177      1.0  0.12066  0.10994  0.41203  1.0000
  F   F178      1.0  0.12358  0.11747  0.91743  1.0000
  F   F179      1.0  0.12760  0.63272  0.39912  1.0000
  F   F180      1.0  0.12576  0.63408  0.89101  1.0000
  F   F181      1.0  0.37771  0.11660  0.39944  1.0000
  F   F182      1.0  0.37738  0.10932  0.89306  1.0000
  F   F183      1.0  0.37318  0.62534  0.38130  1.0000
  F   F184      1.0  0.37858  0.62156  0.89531  1.0000
  F   F185      1.0  0.62284  0.12267  0.40611  1.0000
  F   F186      1.0  0.62315  0.12806  0.89202  1.0000
  F   F187      1.0  0.62485  0.65634  0.38596  1.0000
  F   F188      1.0  0.62759  0.62786  0.89888  1.0000
  F   F189      1.0  0.87329  0.14260  0.38188  1.0000
  F   F190      1.0  0.87810  0.13682  0.89179  1.0000
  F   F191      1.0  0.87542  0.64172  0.38184  1.0000
  F   F192      1.0  0.87421  0.62400  0.90374  1.0000
  F   F193      1.0  0.00915  0.35668  0.08549  1.0000
  F   F194      1.0  0.00494  0.35317  0.59258  1.0000
  F   F195      1.0  0.01221  0.85717  0.07407  1.0000
  F   F196      1.0  0.00596  0.85378  0.58234  1.0000
  F   F197      1.0  0.26192  0.34883  0.08522  1.0000
  F   F198      1.0  0.25438  0.38066  0.55425  1.0000
  F   F199      1.0  0.25577  0.87104  0.06722  1.0000
  F   F200      1.0  0.25675  0.86347  0.57631  1.0000
  F   F201      1.0  0.50369  0.36283  0.08293  1.0000
  F   F202      1.0  0.51163  0.36875  0.56745  1.0000
  F   F203      1.0  0.50510  0.86923  0.07807  1.0000
  F   F204      1.0  0.50987  0.86108  0.56412  1.0000
  F   F205      1.0  0.75606  0.36834  0.07127  1.0000
  F   F206      1.0  0.75702  0.35880  0.57655  1.0000
  F   F207      1.0  0.75689  0.87170  0.05423  1.0000
  F   F208      1.0  0.75681  0.85815  0.57168  1.0000
  F   F209      1.0  0.06578  0.48394  0.18062  1.0000
  F   F210      1.0  0.07462  0.48167  0.67364  1.0000
  F   F211      1.0  0.07206  0.97988  0.16855  1.0000
  F   F212      1.0  0.06602  0.98585  0.67945  1.0000
  F   F213      1.0  0.32768  0.48292  0.16431  1.0000
  F   F214      1.0  0.32108  0.48370  0.67252  1.0000
  F   F215      1.0  0.31904  0.98418  0.17274  1.0000
  F   F216      1.0  0.32468  0.97683  0.67726  1.0000
  F   F217      1.0  0.56949  0.48240  0.17122  1.0000
  F   F218      1.0  0.57032  0.48755  0.68163  1.0000
  F   F219      1.0  0.56895  0.98438  0.17705  1.0000
  F   F220      1.0  0.56654  0.98775  0.67252  1.0000
  F   F221      1.0  0.81932  0.48108  0.17244  1.0000
  F   F222      1.0  0.81770  0.48891  0.66389  1.0000
  F   F223      1.0  0.82170  0.99202  0.16996  1.0000
  F   F224      1.0  0.81414  0.98490  0.67610  1.0000
  F   F225      1.0  0.24074  0.15099  0.40655  1.0000
  F   F226      1.0  0.23827  0.11900  0.94675  1.0000
  F   F227      1.0  0.24267  0.64096  0.40388  1.0000
  F   F228      1.0  0.24448  0.63209  0.93332  1.0000
  F   F229      1.0  0.49307  0.15115  0.42275  1.0000
  F   F230      1.0  0.48768  0.14059  0.93040  1.0000
  F   F231      1.0  0.49238  0.62579  0.43452  1.0000
  F   F232      1.0  0.49210  0.63989  0.94016  1.0000
  F   F233      1.0  0.74518  0.13784  0.41942  1.0000
  F   F234      1.0  0.74316  0.15817  0.90655  1.0000
  F   F235      1.0  0.73935  0.62330  0.44267  1.0000
  F   F236      1.0  0.74082  0.63433  0.93854  1.0000
  F   F237      1.0  0.98434  0.14200  0.43175  1.0000
  F   F238      1.0  0.98539  0.13589  0.94180  1.0000
  F   F239      1.0  0.99161  0.63808  0.43943  1.0000
  F   F240      1.0  0.99151  0.63960  0.93114  1.0000
  F   F241      1.0  0.18277  0.01348  0.31580  1.0000
  F   F242      1.0  0.18014  0.01862  0.82557  1.0000
  F   F243      1.0  0.17599  0.51401  0.31826  1.0000
  F   F244      1.0  0.18149  0.50851  0.83947  1.0000
  F   F245      1.0  0.43329  0.01079  0.32925  1.0000
  F   F246      1.0  0.43545  0.01672  0.82261  1.0000
  F   F247      1.0  0.43327  0.52030  0.31201  1.0000
  F   F248      1.0  0.43776  0.51229  0.82338  1.0000
  F   F249      1.0  0.68001  0.02182  0.31998  1.0000
  F   F250      1.0  0.68309  0.01492  0.82155  1.0000
  F   F251      1.0  0.67759  0.51899  0.32385  1.0000
  F   F252      1.0  0.68674  0.52386  0.80806  1.0000
  F   F253      1.0  0.92666  0.01870  0.32900  1.0000
  F   F254      1.0  0.93579  0.02611  0.81334  1.0000
  F   F255      1.0  0.93402  0.51804  0.32187  1.0000
  F   F256      1.0  0.92287  0.51481  0.82680  1.0000
  F   F257      1.0  0.00267  0.26189  0.99891  1.0000
  F   F258      1.0  0.00583  0.25941  0.49148  1.0000
  F   F259      1.0  0.00034  0.73992  0.01030  1.0000
  F   F260      1.0  0.99744  0.74275  0.51201  1.0000
  F   F261      1.0  0.25007  0.24859  0.00979  1.0000
  F   F262      1.0  0.24930  0.22447  0.50979  1.0000
  F   F263      1.0  0.25320  0.75288  0.99952  1.0000
  F   F264      1.0  0.24094  0.72891  0.51815  1.0000
  F   F265      1.0  0.50277  0.25426  0.99859  1.0000
  F   F266      1.0  0.49654  0.26715  0.48765  1.0000
  F   F267      1.0  0.50539  0.75017  0.00638  1.0000
  F   F268      1.0  0.50020  0.74937  0.49716  1.0000
  F   F269      1.0  0.74696  0.23823  0.01386  1.0000
  F   F270      1.0  0.75131  0.24781  0.49953  1.0000
  F   F271      1.0  0.75093  0.75658  0.98956  1.0000
  F   F272      1.0  0.74803  0.75787  0.48703  1.0000
  F   F273      1.0  0.11517  0.98989  0.27101  1.0000
  F   F274      1.0  0.12359  0.99884  0.75381  1.0000
  F   F275      1.0  0.11899  0.49771  0.26194  1.0000
  F   F276      1.0  0.12190  0.49120  0.75888  1.0000
  F   F277      1.0  0.37245  0.99742  0.24762  1.0000
  F   F278      1.0  0.37884  0.99731  0.74836  1.0000
  F   F279      1.0  0.37166  0.49887  0.25853  1.0000
  F   F280      1.0  0.37442  0.50206  0.74818  1.0000
  F   F281      1.0  0.61861  0.99668  0.25997  1.0000
  F   F282      1.0  0.62486  0.00996  0.74554  1.0000
  F   F283      1.0  0.62101  0.50449  0.25571  1.0000
  F   F284      1.0  0.63075  0.50897  0.73828  1.0000
  F   F285      1.0  0.87825  0.99765  0.24085  1.0000
  F   F286      1.0  0.87215  0.00139  0.75747  1.0000
  F   F287      1.0  0.88037  0.50532  0.23594  1.0000
  F   F288      1.0  0.86225  0.50005  0.75844  1.0000
  F   F289      1.0  0.03628  0.02418  0.02550  1.0000
  F   F290      1.0  0.03324  0.03496  0.54250  1.0000
  F   F291      1.0  0.04289  0.53993  0.02706  1.0000
  F   F292      1.0  0.04301  0.51427  0.53262  1.0000
  F   F293      1.0  0.29392  0.02240  0.02187  1.0000
  F   F294      1.0  0.29108  0.03013  0.53742  1.0000
  F   F295      1.0  0.30161  0.51341  0.00833  1.0000
  F   F296      1.0  0.28511  0.53473  0.52955  1.0000
  F   F297      1.0  0.54350  0.03359  0.02367  1.0000
  F   F298      1.0  0.52510  0.03560  0.54855  1.0000
  F   F299      1.0  0.54768  0.52649  0.01116  1.0000
  F   F300      1.0  0.55101  0.54141  0.51783  1.0000
  F   F301      1.0  0.78638  0.04401  0.01758  1.0000
  F   F302      1.0  0.79263  0.03448  0.52665  1.0000
  F   F303      1.0  0.79516  0.53644  0.01783  1.0000
  F   F304      1.0  0.79266  0.52512  0.51902  1.0000
  F   F305      1.0  0.23688  0.40511  0.23162  1.0000
  F   F306      1.0  0.22588  0.42118  0.71586  1.0000
  F   F307      1.0  0.23855  0.90348  0.23579  1.0000
  F   F308      1.0  0.23307  0.92024  0.72940  1.0000
  F   F309      1.0  0.48172  0.42236  0.21989  1.0000
  F   F310      1.0  0.48896  0.43393  0.71469  1.0000
  F   F311      1.0  0.48468  0.91756  0.22529  1.0000
  F   F312      1.0  0.48272  0.90561  0.72305  1.0000
  F   F313      1.0  0.73785  0.41829  0.21879  1.0000
  F   F314      1.0  0.73151  0.41301  0.72547  1.0000
  F   F315      1.0  0.73910  0.92113  0.21751  1.0000
  F   F316      1.0  0.73387  0.91886  0.71526  1.0000
  F   F317      1.0  0.98845  0.41053  0.22400  1.0000
  F   F318      1.0  0.98665  0.41699  0.74318  1.0000
  F   F319      1.0  0.98515  0.89508  0.23634  1.0000
  F   F320      1.0  0.98367  0.90482  0.73461  1.0000
  F   F321      1.0  0.20007  0.47720  0.45876  1.0000
  F   F322      1.0  0.21445  0.45613  0.96966  1.0000
  F   F323      1.0  0.21178  0.97151  0.46394  1.0000
  F   F324      1.0  0.20238  0.97403  0.97138  1.0000
  F   F325      1.0  0.45716  0.45368  0.46306  1.0000
  F   F326      1.0  0.45993  0.46911  0.96307  1.0000
  F   F327      1.0  0.45332  0.97266  0.48493  1.0000
  F   F328      1.0  0.46273  0.96991  0.97335  1.0000
  F   F329      1.0  0.70631  0.47409  0.47403  1.0000
  F   F330      1.0  0.70577  0.47616  0.96824  1.0000
  F   F331      1.0  0.71052  0.97785  0.48596  1.0000
  F   F332      1.0  0.69687  0.98729  0.98081  1.0000
  F   F333      1.0  0.95546  0.47678  0.48445  1.0000
  F   F334      1.0  0.95315  0.45736  0.98505  1.0000
  F   F335      1.0  0.96052  0.95966  0.46555  1.0000
  F   F336      1.0  0.96326  0.97915  0.96734  1.0000
  F   F337      1.0  0.01521  0.09212  0.27778  1.0000
  F   F338      1.0  0.02028  0.08913  0.76432  1.0000
  F   F339      1.0  0.01786  0.56944  0.29748  1.0000
  F   F340      1.0  0.01406  0.58861  0.76846  1.0000
  F   F341      1.0  0.26913  0.08615  0.27073  1.0000
  F   F342      1.0  0.26682  0.08116  0.76350  1.0000
  F   F343      1.0  0.26605  0.59242  0.25091  1.0000
  F   F344      1.0  0.26874  0.59126  0.77188  1.0000
  F   F345      1.0  0.51520  0.08785  0.27061  1.0000
  F   F346      1.0  0.51584  0.08366  0.76927  1.0000
  F   F347      1.0  0.51891  0.57443  0.28306  1.0000
  F   F348      1.0  0.51477  0.60177  0.77983  1.0000
  F   F349      1.0  0.76358  0.09001  0.27464  1.0000
  F   F350      1.0  0.76489  0.07793  0.77757  1.0000
  F   F351      1.0  0.76394  0.58097  0.28521  1.0000
  F   F352      1.0  0.77019  0.60724  0.76510  1.0000
  F   F353      1.0  0.09482  0.37994  0.46373  1.0000
  F   F354      1.0  0.10136  0.40847  0.97049  1.0000
  F   F355      1.0  0.10126  0.90838  0.47446  1.0000
  F   F356      1.0  0.10416  0.90782  0.97845  1.0000
  F   F357      1.0  0.34989  0.41910  0.47032  1.0000
  F   F358      1.0  0.35141  0.38557  0.93336  1.0000
  F   F359      1.0  0.35169  0.91627  0.46082  1.0000
  F   F360      1.0  0.35332  0.90436  0.96587  1.0000
  F   F361      1.0  0.60050  0.40280  0.46547  1.0000
  F   F362      1.0  0.60653  0.40987  0.95435  1.0000
  F   F363      1.0  0.59920  0.92904  0.46131  1.0000
  F   F364      1.0  0.60639  0.89809  0.96139  1.0000
  F   F365      1.0  0.85186  0.40813  0.47566  1.0000
  F   F366      1.0  0.84892  0.40584  0.96740  1.0000
  F   F367      1.0  0.85251  0.91038  0.46575  1.0000
  F   F368      1.0  0.85167  0.91676  0.95820  1.0000
  F   F369      1.0  0.04467  0.29682  0.28560  1.0000
  F   F370      1.0  0.04850  0.29729  0.80309  1.0000
  F   F371      1.0  0.04164  0.79539  0.30624  1.0000
  F   F372      1.0  0.04461  0.79728  0.79155  1.0000
  F   F373      1.0  0.30153  0.29662  0.28803  1.0000
  F   F374      1.0  0.28161  0.29506  0.79266  1.0000
  F   F375      1.0  0.29844  0.79380  0.29821  1.0000
  F   F376      1.0  0.28685  0.79595  0.78432  1.0000
  F   F377      1.0  0.54559  0.30279  0.28800  1.0000
  F   F378      1.0  0.54653  0.29301  0.78113  1.0000
  F   F379      1.0  0.54255  0.79537  0.28097  1.0000
  F   F380      1.0  0.54117  0.80145  0.79719  1.0000
  F   F381      1.0  0.79544  0.29955  0.29107  1.0000
  F   F382      1.0  0.79614  0.31240  0.79406  1.0000
  F   F383      1.0  0.80035  0.79064  0.29372  1.0000
  F   F384      1.0  0.79220  0.79661  0.77511  1.0000
