data_image0
_chemical_formula_structural       Hf96F384
_chemical_formula_sum              "Hf96 F384"
_cell_length_a       31.0454
_cell_length_b       15.5195
_cell_length_c       15.5122
_cell_angle_alpha    63.342
_cell_angle_beta     63.342
_cell_angle_gamma    80.1625

_space_group_name_H-M_alt    "P 1"
_space_group_IT_number       1

loop_
  _space_group_symop_operation_xyz
  'x, y, z'

loop_
  _atom_site_type_symbol
  _atom_site_label
  _atom_site_symmetry_multiplicity
  _atom_site_fract_x
  _atom_site_fract_y
  _atom_site_fract_z
  _atom_site_occupancy
  Hf  Hf1       1.0  0.19722  0.10997  0.37640  1.0000
  Hf  Hf2       1.0  0.19882  0.10932  0.87416  1.0000
  Hf  Hf3       1.0  0.19829  0.60229  0.36771  1.0000
  Hf  Hf4       1.0  0.19704  0.61441  0.87312  1.0000
  Hf  Hf5       1.0  0.44377  0.11324  0.37221  1.0000
  Hf  Hf6       1.0  0.44741  0.10689  0.87352  1.0000
  Hf  Hf7       1.0  0.44775  0.61063  0.36505  1.0000
  Hf  Hf8       1.0  0.44709  0.60739  0.87508  1.0000
  Hf  Hf9       1.0  0.69705  0.10820  0.37326  1.0000
  Hf  Hf10      1.0  0.69742  0.11296  0.87697  1.0000
  Hf  Hf11      1.0  0.69526  0.60811  0.37797  1.0000
  Hf  Hf12      1.0  0.69341  0.60534  0.88498  1.0000
  Hf  Hf13      1.0  0.95415  0.11081  0.35882  1.0000
  Hf  Hf14      1.0  0.95041  0.10858  0.87867  1.0000
  Hf  Hf15      1.0  0.94971  0.59686  0.38139  1.0000
  Hf  Hf16      1.0  0.94630  0.59947  0.88316  1.0000
  Hf  Hf17      1.0  0.05178  0.38712  0.12573  1.0000
  Hf  Hf18      1.0  0.05214  0.40146  0.62599  1.0000
  Hf  Hf19      1.0  0.05200  0.88932  0.13005  1.0000
  Hf  Hf20      1.0  0.05368  0.90384  0.61983  1.0000
  Hf  Hf21      1.0  0.30060  0.39896  0.12439  1.0000
  Hf  Hf22      1.0  0.30636  0.39585  0.62073  1.0000
  Hf  Hf23      1.0  0.30659  0.89858  0.11771  1.0000
  Hf  Hf24      1.0  0.30138  0.89585  0.62249  1.0000
  Hf  Hf25      1.0  0.55314  0.38647  0.12777  1.0000
  Hf  Hf26      1.0  0.55398  0.39082  0.62568  1.0000
  Hf  Hf27      1.0  0.54902  0.88961  0.13390  1.0000
  Hf  Hf28      1.0  0.55333  0.88907  0.62534  1.0000
  Hf  Hf29      1.0  0.80272  0.37992  0.13514  1.0000
  Hf  Hf30      1.0  0.80384  0.39426  0.62762  1.0000
  Hf  Hf31      1.0  0.80063  0.88542  0.12579  1.0000
  Hf  Hf32      1.0  0.80030  0.88532  0.62958  1.0000
  Hf  Hf33      1.0  0.05717  0.18839  0.41285  1.0000
  Hf  Hf34      1.0  0.05995  0.19018  0.90992  1.0000
  Hf  Hf35      1.0  0.05890  0.68352  0.41050  1.0000
  Hf  Hf36      1.0  0.05851  0.68517  0.90622  1.0000
  Hf  Hf37      1.0  0.30357  0.18851  0.41788  1.0000
  Hf  Hf38      1.0  0.30944  0.18705  0.90838  1.0000
  Hf  Hf39      1.0  0.30726  0.67977  0.41335  1.0000
  Hf  Hf40      1.0  0.30848  0.69270  0.90686  1.0000
  Hf  Hf41      1.0  0.55663  0.18591  0.41340  1.0000
  Hf  Hf42      1.0  0.55690  0.17926  0.92238  1.0000
  Hf  Hf43      1.0  0.55624  0.67531  0.42361  1.0000
  Hf  Hf44      1.0  0.55778  0.68382  0.91499  1.0000
  Hf  Hf45      1.0  0.80933  0.18261  0.41980  1.0000
  Hf  Hf46      1.0  0.80825  0.18014  0.91579  1.0000
  Hf  Hf47      1.0  0.80900  0.67680  0.41479  1.0000
  Hf  Hf48      1.0  0.80574  0.67201  0.92398  1.0000
  Hf  Hf49      1.0  0.15626  0.38964  0.32952  1.0000
  Hf  Hf50      1.0  0.15929  0.39256  0.82846  1.0000
  Hf  Hf51      1.0  0.16071  0.88159  0.33539  1.0000
  Hf  Hf52      1.0  0.15668  0.89549  0.83099  1.0000
  Hf  Hf53      1.0  0.40748  0.38534  0.33516  1.0000
  Hf  Hf54      1.0  0.40874  0.39378  0.82493  1.0000
  Hf  Hf55      1.0  0.40766  0.88871  0.33272  1.0000
  Hf  Hf56      1.0  0.40933  0.89460  0.82979  1.0000
  Hf  Hf57      1.0  0.65813  0.38821  0.33677  1.0000
  Hf  Hf58      1.0  0.65727  0.39354  0.83853  1.0000
  Hf  Hf59      1.0  0.65605  0.88522  0.33968  1.0000
  Hf  Hf60      1.0  0.65446  0.89209  0.83519  1.0000
  Hf  Hf61      1.0  0.90893  0.38575  0.33684  1.0000
  Hf  Hf62      1.0  0.90761  0.37920  0.84008  1.0000
  Hf  Hf63      1.0  0.90773  0.88308  0.33648  1.0000
  Hf  Hf64      1.0  0.91068  0.88438  0.83272  1.0000
  Hf  Hf65      1.0  0.19711  0.32260  0.06975  1.0000
  Hf  Hf66      1.0  0.19021  0.32052  0.59010  1.0000
  Hf  Hf67      1.0  0.18940  0.81314  0.09046  1.0000
  Hf  Hf68      1.0  0.19609  0.81184  0.58350  1.0000
  Hf  Hf69      1.0  0.44217  0.32149  0.08074  1.0000
  Hf  Hf70      1.0  0.44675  0.32168  0.58108  1.0000
  Hf  Hf71      1.0  0.44648  0.82550  0.07252  1.0000
  Hf  Hf72      1.0  0.44058  0.82123  0.58623  1.0000
  Hf  Hf73      1.0  0.69180  0.30168  0.09519  1.0000
  Hf  Hf74      1.0  0.68820  0.31017  0.59427  1.0000
  Hf  Hf75      1.0  0.69222  0.81280  0.08642  1.0000
  Hf  Hf76      1.0  0.69647  0.81346  0.58593  1.0000
  Hf  Hf77      1.0  0.94269  0.30425  0.09186  1.0000
  Hf  Hf78      1.0  0.94259  0.31523  0.58862  1.0000
  Hf  Hf79      1.0  0.94114  0.80619  0.08920  1.0000
  Hf  Hf80      1.0  0.94310  0.81314  0.58943  1.0000
  Hf  Hf81      1.0  0.09622  0.11234  0.16135  1.0000
  Hf  Hf82      1.0  0.09081  0.12025  0.65834  1.0000
  Hf  Hf83      1.0  0.08988  0.61612  0.15950  1.0000
  Hf  Hf84      1.0  0.08594  0.62213  0.66784  1.0000
  Hf  Hf85      1.0  0.34187  0.11504  0.16181  1.0000
  Hf  Hf86      1.0  0.34150  0.11737  0.66406  1.0000
  Hf  Hf87      1.0  0.34062  0.62320  0.15444  1.0000
  Hf  Hf88      1.0  0.34007  0.61820  0.65793  1.0000
  Hf  Hf89      1.0  0.58657  0.10634  0.16972  1.0000
  Hf  Hf90      1.0  0.59008  0.10579  0.66365  1.0000
  Hf  Hf91      1.0  0.59141  0.60792  0.16843  1.0000
  Hf  Hf92      1.0  0.59425  0.61391  0.66496  1.0000
  Hf  Hf93      1.0  0.84264  0.11107  0.16669  1.0000
  Hf  Hf94      1.0  0.84546  0.11244  0.66324  1.0000
  Hf  Hf95      1.0  0.84106  0.60016  0.17647  1.0000
  Hf  Hf96      1.0  0.83805  0.60405  0.67220  1.0000
  F   F1        1.0  0.08834  0.15091  0.28056  1.0000
  F   F2        1.0  0.08317  0.13819  0.79173  1.0000
  F   F3        1.0  0.08634  0.65171  0.28938  1.0000
  F   F4        1.0  0.08455  0.63284  0.79912  1.0000
  F   F5        1.0  0.32691  0.13507  0.29424  1.0000
  F   F6        1.0  0.32850  0.12893  0.79641  1.0000
  F   F7        1.0  0.32588  0.63086  0.29643  1.0000
  F   F8        1.0  0.32852  0.64710  0.78369  1.0000
  F   F9        1.0  0.57276  0.12109  0.31395  1.0000
  F   F10       1.0  0.58259  0.14105  0.79928  1.0000
  F   F11       1.0  0.57349  0.61927  0.31123  1.0000
  F   F12       1.0  0.57625  0.63463  0.80466  1.0000
  F   F13       1.0  0.83281  0.12341  0.30320  1.0000
  F   F14       1.0  0.83124  0.14169  0.78959  1.0000
  F   F15       1.0  0.82930  0.61204  0.32012  1.0000
  F   F16       1.0  0.82666  0.61120  0.80676  1.0000
  F   F17       1.0  0.17095  0.33101  0.46413  1.0000
  F   F18       1.0  0.19450  0.35903  0.93272  1.0000
  F   F19       1.0  0.18293  0.83895  0.45154  1.0000
  F   F20       1.0  0.18716  0.84900  0.94048  1.0000
  F   F21       1.0  0.43084  0.32639  0.45916  1.0000
  F   F22       1.0  0.43286  0.34119  0.94574  1.0000
  F   F23       1.0  0.43898  0.84744  0.43320  1.0000
  F   F24       1.0  0.43537  0.84692  0.94082  1.0000
  F   F25       1.0  0.68102  0.33502  0.46100  1.0000
  F   F26       1.0  0.68615  0.33654  0.95801  1.0000
  F   F27       1.0  0.68965  0.84394  0.44848  1.0000
  F   F28       1.0  0.68011  0.83960  0.94980  1.0000
  F   F29       1.0  0.93713  0.34003  0.44148  1.0000
  F   F30       1.0  0.93854  0.34082  0.94534  1.0000
  F   F31       1.0  0.93739  0.83257  0.43899  1.0000
  F   F32       1.0  0.93095  0.83082  0.95098  1.0000
  F   F33       1.0  0.16989  0.37510  0.18928  1.0000
  F   F34       1.0  0.16860  0.38647  0.69111  1.0000
  F   F35       1.0  0.17261  0.86535  0.20553  1.0000
  F   F36       1.0  0.17102  0.86803  0.69945  1.0000
  F   F37       1.0  0.42987  0.39190  0.18254  1.0000
  F   F38       1.0  0.42121  0.39603  0.67986  1.0000
  F   F39       1.0  0.41828  0.88607  0.18037  1.0000
  F   F40       1.0  0.41622  0.86011  0.71235  1.0000
  F   F41       1.0  0.67036  0.36039  0.21070  1.0000
  F   F42       1.0  0.67044  0.37808  0.70620  1.0000
  F   F43       1.0  0.67619  0.85646  0.20336  1.0000
  F   F44       1.0  0.67474  0.87755  0.69603  1.0000
  F   F45       1.0  0.91709  0.34634  0.21056  1.0000
  F   F46       1.0  0.91767  0.36970  0.70819  1.0000
  F   F47       1.0  0.91650  0.84697  0.21848  1.0000
  F   F48       1.0  0.92755  0.87253  0.69318  1.0000
  F   F49       1.0  0.07003  0.15743  0.05370  1.0000
  F   F50       1.0  0.07495  0.16419  0.54175  1.0000
  F   F51       1.0  0.06180  0.65871  0.04943  1.0000
  F   F52       1.0  0.05999  0.67121  0.55153  1.0000
  F   F53       1.0  0.31777  0.17382  0.04736  1.0000
  F   F54       1.0  0.31377  0.16811  0.54837  1.0000
  F   F55       1.0  0.31411  0.67522  0.04007  1.0000
  F   F56       1.0  0.31879  0.65340  0.53934  1.0000
  F   F57       1.0  0.56812  0.15622  0.04704  1.0000
  F   F58       1.0  0.55789  0.15437  0.55895  1.0000
  F   F59       1.0  0.56853  0.65157  0.05219  1.0000
  F   F60       1.0  0.56660  0.65786  0.55463  1.0000
  F   F61       1.0  0.81790  0.17610  0.05432  1.0000
  F   F62       1.0  0.81282  0.15786  0.56240  1.0000
  F   F63       1.0  0.81381  0.64246  0.05706  1.0000
  F   F64       1.0  0.81153  0.65051  0.56373  1.0000
  F   F65       1.0  0.20093  0.20659  0.19844  1.0000
  F   F66       1.0  0.19858  0.20425  0.72750  1.0000
  F   F67       1.0  0.20416  0.69702  0.20226  1.0000
  F   F68       1.0  0.20227  0.70431  0.71594  1.0000
  F   F69       1.0  0.44250  0.20794  0.21134  1.0000
  F   F70       1.0  0.44961  0.21149  0.71358  1.0000
  F   F71       1.0  0.45704  0.70860  0.19837  1.0000
  F   F72       1.0  0.45609  0.70813  0.70812  1.0000
  F   F73       1.0  0.70761  0.19886  0.21096  1.0000
  F   F74       1.0  0.69018  0.20530  0.73627  1.0000
  F   F75       1.0  0.70447  0.69115  0.21139  1.0000
  F   F76       1.0  0.69635  0.69766  0.72208  1.0000
  F   F77       1.0  0.95888  0.18842  0.20416  1.0000
  F   F78       1.0  0.95380  0.20398  0.71246  1.0000
  F   F79       1.0  0.95649  0.69177  0.20102  1.0000
  F   F80       1.0  0.95380  0.69634  0.70364  1.0000
  F   F81       1.0  0.15373  0.10242  0.02452  1.0000
  F   F82       1.0  0.15845  0.09835  0.53337  1.0000
  F   F83       1.0  0.14342  0.58594  0.04235  1.0000
  F   F84       1.0  0.14100  0.59642  0.54178  1.0000
  F   F85       1.0  0.40737  0.09032  0.02875  1.0000
  F   F86       1.0  0.40150  0.09962  0.52948  1.0000
  F   F87       1.0  0.40111  0.60500  0.03201  1.0000
  F   F88       1.0  0.40267  0.61516  0.52703  1.0000
  F   F89       1.0  0.64279  0.09739  0.05257  1.0000
  F   F90       1.0  0.64637  0.09420  0.52906  1.0000
  F   F91       1.0  0.64973  0.59701  0.04765  1.0000
  F   F92       1.0  0.64980  0.59698  0.53781  1.0000
  F   F93       1.0  0.90298  0.09179  0.03492  1.0000
  F   F94       1.0  0.90102  0.08017  0.55360  1.0000
  F   F95       1.0  0.89687  0.57888  0.04509  1.0000
  F   F96       1.0  0.89828  0.58424  0.55605  1.0000
  F   F97       1.0  0.15226  0.20273  0.09948  1.0000
  F   F98       1.0  0.15408  0.18746  0.64011  1.0000
  F   F99       1.0  0.15268  0.69432  0.10340  1.0000
  F   F100      1.0  0.15716  0.70231  0.61647  1.0000
  F   F101      1.0  0.40585  0.18420  0.11442  1.0000
  F   F102      1.0  0.40291  0.18680  0.63116  1.0000
  F   F103      1.0  0.39681  0.71248  0.12788  1.0000
  F   F104      1.0  0.40408  0.70036  0.62832  1.0000
  F   F105      1.0  0.64526  0.19324  0.13605  1.0000
  F   F106      1.0  0.65608  0.18579  0.63118  1.0000
  F   F107      1.0  0.64842  0.69307  0.13718  1.0000
  F   F108      1.0  0.65403  0.69214  0.62464  1.0000
  F   F109      1.0  0.90493  0.18272  0.11723  1.0000
  F   F110      1.0  0.90817  0.19247  0.61869  1.0000
  F   F111      1.0  0.89967  0.68735  0.12986  1.0000
  F   F112      1.0  0.89982  0.69946  0.62151  1.0000
  F   F113      1.0  0.10349  0.29899  0.34767  1.0000
  F   F114      1.0  0.10116  0.30190  0.86954  1.0000
  F   F115      1.0  0.10354  0.80233  0.37335  1.0000
  F   F116      1.0  0.09418  0.81264  0.86438  1.0000
  F   F117      1.0  0.34686  0.31671  0.37191  1.0000
  F   F118      1.0  0.34681  0.31614  0.86988  1.0000
  F   F119      1.0  0.35608  0.79385  0.36780  1.0000
  F   F120      1.0  0.34848  0.80990  0.87932  1.0000
  F   F121      1.0  0.59503  0.31400  0.38498  1.0000
  F   F122      1.0  0.59774  0.30561  0.86238  1.0000
  F   F123      1.0  0.60106  0.80068  0.37344  1.0000
  F   F124      1.0  0.59752  0.80411  0.86812  1.0000
  F   F125      1.0  0.85034  0.28904  0.39529  1.0000
  F   F126      1.0  0.84665  0.29895  0.86836  1.0000
  F   F127      1.0  0.84379  0.79982  0.38034  1.0000
  F   F128      1.0  0.85642  0.78698  0.89845  1.0000
  F   F129      1.0  0.05264  0.24514  0.15049  1.0000
  F   F130      1.0  0.06561  0.26065  0.63958  1.0000
  F   F131      1.0  0.06879  0.75070  0.12756  1.0000
  F   F132      1.0  0.06237  0.75506  0.63432  1.0000
  F   F133      1.0  0.32430  0.26060  0.13609  1.0000
  F   F134      1.0  0.31840  0.25216  0.63028  1.0000
  F   F135      1.0  0.31757  0.75891  0.13076  1.0000
  F   F136      1.0  0.31545  0.75724  0.62860  1.0000
  F   F137      1.0  0.56525  0.25156  0.14104  1.0000
  F   F138      1.0  0.57698  0.25437  0.61977  1.0000
  F   F139      1.0  0.56599  0.75259  0.13735  1.0000
  F   F140      1.0  0.56508  0.74627  0.64124  1.0000
  F   F141      1.0  0.81413  0.24965  0.15439  1.0000
  F   F142      1.0  0.82914  0.26195  0.61866  1.0000
  F   F143      1.0  0.81279  0.73851  0.15240  1.0000
  F   F144      1.0  0.80380  0.74674  0.66656  1.0000
  F   F145      1.0  0.12213  0.36416  0.10471  1.0000
  F   F146      1.0  0.12296  0.38965  0.60564  1.0000
  F   F147      1.0  0.12229  0.86517  0.12258  1.0000
  F   F148      1.0  0.12108  0.86145  0.61956  1.0000
  F   F149      1.0  0.37515  0.37038  0.11891  1.0000
  F   F150      1.0  0.37596  0.36599  0.60284  1.0000
  F   F151      1.0  0.37913  0.88979  0.08898  1.0000
  F   F152      1.0  0.37223  0.86542  0.60633  1.0000
  F   F153      1.0  0.62590  0.35949  0.11351  1.0000
  F   F154      1.0  0.61962  0.36764  0.62721  1.0000
  F   F155      1.0  0.62098  0.87405  0.10262  1.0000
  F   F156      1.0  0.62235  0.85084  0.62067  1.0000
  F   F157      1.0  0.87966  0.36572  0.10043  1.0000
  F   F158      1.0  0.87513  0.36987  0.61603  1.0000
  F   F159      1.0  0.87224  0.86428  0.12221  1.0000
  F   F160      1.0  0.87446  0.87246  0.60719  1.0000
  F   F161      1.0  0.19695  0.25320  0.33854  1.0000
  F   F162      1.0  0.18688  0.25625  0.85910  1.0000
  F   F163      1.0  0.18980  0.73955  0.35352  1.0000
  F   F164      1.0  0.18605  0.75833  0.86462  1.0000
  F   F165      1.0  0.43378  0.25148  0.35242  1.0000
  F   F166      1.0  0.42684  0.24219  0.86236  1.0000
  F   F167      1.0  0.43956  0.75614  0.33773  1.0000
  F   F168      1.0  0.44574  0.75302  0.85355  1.0000
  F   F169      1.0  0.68842  0.24474  0.36470  1.0000
  F   F170      1.0  0.68172  0.24859  0.87766  1.0000
  F   F171      1.0  0.69049  0.75257  0.35580  1.0000
  F   F172      1.0  0.67455  0.74170  0.88186  1.0000
  F   F173      1.0  0.93664  0.24852  0.35624  1.0000
  F   F174      1.0  0.93216  0.23843  0.88056  1.0000
  F   F175      1.0  0.94715  0.73624  0.34865  1.0000
  F   F176      1.0  0.94725  0.74224  0.84708  1.0000
  F   F177      1.0  0.12534  0.12762  0.39517  1.0000
  F   F178      1.0  0.12670  0.12719  0.89364  1.0000
  F   F179      1.0  0.12416  0.61602  0.40351  1.0000
  F   F180      1.0  0.12891  0.65105  0.88425  1.0000
  F   F181      1.0  0.37232  0.13109  0.39970  1.0000
  F   F182      1.0  0.37384  0.12761  0.88936  1.0000
  F   F183      1.0  0.37682  0.60449  0.39819  1.0000
  F   F184      1.0  0.37187  0.63893  0.88665  1.0000
  F   F185      1.0  0.62452  0.14156  0.38617  1.0000
  F   F186      1.0  0.62767  0.11719  0.91073  1.0000
  F   F187      1.0  0.62564  0.64405  0.38298  1.0000
  F   F188      1.0  0.62491  0.62654  0.88693  1.0000
  F   F189      1.0  0.87918  0.14004  0.38691  1.0000
  F   F190      1.0  0.87619  0.13564  0.88851  1.0000
  F   F191      1.0  0.87830  0.62746  0.40039  1.0000
  F   F192      1.0  0.87930  0.64858  0.86631  1.0000
  F   F193      1.0  0.00126  0.36191  0.07798  1.0000
  F   F194      1.0  0.00709  0.35683  0.58249  1.0000
  F   F195      1.0  0.00498  0.85821  0.08424  1.0000
  F   F196      1.0  0.00990  0.86499  0.57405  1.0000
  F   F197      1.0  0.25735  0.34549  0.08696  1.0000
  F   F198      1.0  0.25246  0.36138  0.59471  1.0000
  F   F199      1.0  0.25732  0.86426  0.08257  1.0000
  F   F200      1.0  0.25895  0.86542  0.57181  1.0000
  F   F201      1.0  0.50454  0.35533  0.08041  1.0000
  F   F202      1.0  0.51036  0.35915  0.57061  1.0000
  F   F203      1.0  0.50361  0.86826  0.08354  1.0000
  F   F204      1.0  0.50838  0.86274  0.57102  1.0000
  F   F205      1.0  0.75375  0.36573  0.09338  1.0000
  F   F206      1.0  0.75567  0.36081  0.59808  1.0000
  F   F207      1.0  0.75714  0.86119  0.06555  1.0000
  F   F208      1.0  0.75552  0.87000  0.56616  1.0000
  F   F209      1.0  0.06481  0.47705  0.17203  1.0000
  F   F210      1.0  0.05837  0.48763  0.68963  1.0000
  F   F211      1.0  0.06997  0.98083  0.18772  1.0000
  F   F212      1.0  0.07100  0.99308  0.66867  1.0000
  F   F213      1.0  0.32067  0.49830  0.15503  1.0000
  F   F214      1.0  0.32666  0.48758  0.66433  1.0000
  F   F215      1.0  0.30768  0.99068  0.17460  1.0000
  F   F216      1.0  0.32449  0.99562  0.66099  1.0000
  F   F217      1.0  0.56645  0.47959  0.17702  1.0000
  F   F218      1.0  0.56244  0.48100  0.70155  1.0000
  F   F219      1.0  0.56210  0.98085  0.18642  1.0000
  F   F220      1.0  0.56990  0.98539  0.67001  1.0000
  F   F221      1.0  0.82262  0.47079  0.18130  1.0000
  F   F222      1.0  0.80886  0.48525  0.69147  1.0000
  F   F223      1.0  0.81755  0.99433  0.16735  1.0000
  F   F224      1.0  0.81831  0.98477  0.68695  1.0000
  F   F225      1.0  0.24618  0.13688  0.42295  1.0000
  F   F226      1.0  0.24648  0.15091  0.90501  1.0000
  F   F227      1.0  0.23962  0.64260  0.43367  1.0000
  F   F228      1.0  0.24513  0.64460  0.91790  1.0000
  F   F229      1.0  0.49038  0.14606  0.41781  1.0000
  F   F230      1.0  0.49701  0.13868  0.91715  1.0000
  F   F231      1.0  0.49183  0.64051  0.42641  1.0000
  F   F232      1.0  0.49154  0.63613  0.95792  1.0000
  F   F233      1.0  0.74791  0.12314  0.42971  1.0000
  F   F234      1.0  0.74137  0.13042  0.94201  1.0000
  F   F235      1.0  0.74118  0.62836  0.42480  1.0000
  F   F236      1.0  0.74014  0.62930  0.93923  1.0000
  F   F237      1.0  0.99932  0.12614  0.42021  1.0000
  F   F238      1.0  0.00130  0.12124  0.92834  1.0000
  F   F239      1.0  0.99826  0.62465  0.42641  1.0000
  F   F240      1.0  0.99053  0.61441  0.94527  1.0000
  F   F241      1.0  0.17991  0.00335  0.33659  1.0000
  F   F242      1.0  0.18791  0.01740  0.81755  1.0000
  F   F243      1.0  0.18502  0.51414  0.30757  1.0000
  F   F244      1.0  0.17164  0.52428  0.83571  1.0000
  F   F245      1.0  0.42077  0.01962  0.33032  1.0000
  F   F246      1.0  0.43172  0.02494  0.81798  1.0000
  F   F247      1.0  0.44013  0.51612  0.30175  1.0000
  F   F248      1.0  0.43337  0.52328  0.81429  1.0000
  F   F249      1.0  0.67609  0.01719  0.32403  1.0000
  F   F250      1.0  0.67512  0.01196  0.83297  1.0000
  F   F251      1.0  0.68126  0.51001  0.33353  1.0000
  F   F252      1.0  0.67446  0.52089  0.83520  1.0000
  F   F253      1.0  0.93008  0.01476  0.32862  1.0000
  F   F254      1.0  0.93154  0.01404  0.84162  1.0000
  F   F255      1.0  0.93111  0.51853  0.32338  1.0000
  F   F256      1.0  0.92712  0.51228  0.83976  1.0000
  F   F257      1.0  0.00356  0.24369  0.99857  1.0000
  F   F258      1.0  0.99919  0.24855  0.50746  1.0000
  F   F259      1.0  0.99510  0.75285  0.99401  1.0000
  F   F260      1.0  0.00266  0.76338  0.47850  1.0000
  F   F261      1.0  0.25228  0.24740  0.99506  1.0000
  F   F262      1.0  0.24962  0.27839  0.49113  1.0000
  F   F263      1.0  0.25156  0.75260  0.99501  1.0000
  F   F264      1.0  0.25354  0.75107  0.49733  1.0000
  F   F265      1.0  0.50351  0.25885  0.98604  1.0000
  F   F266      1.0  0.49762  0.25022  0.49979  1.0000
  F   F267      1.0  0.50470  0.76906  0.98725  1.0000
  F   F268      1.0  0.50504  0.75877  0.49441  1.0000
  F   F269      1.0  0.75343  0.25788  0.00538  1.0000
  F   F270      1.0  0.74834  0.26402  0.50151  1.0000
  F   F271      1.0  0.75072  0.74375  0.00774  1.0000
  F   F272      1.0  0.74738  0.73502  0.50994  1.0000
  F   F273      1.0  0.12794  0.00055  0.24656  1.0000
  F   F274      1.0  0.12188  0.01011  0.74983  1.0000
  F   F275      1.0  0.12431  0.51549  0.24145  1.0000
  F   F276      1.0  0.12415  0.50947  0.74750  1.0000
  F   F277      1.0  0.37478  0.99723  0.23483  1.0000
  F   F278      1.0  0.38074  0.00780  0.74714  1.0000
  F   F279      1.0  0.37484  0.50565  0.23791  1.0000
  F   F280      1.0  0.36856  0.50693  0.75110  1.0000
  F   F281      1.0  0.62185  0.99266  0.25698  1.0000
  F   F282      1.0  0.61877  0.99524  0.76124  1.0000
  F   F283      1.0  0.62370  0.48871  0.25209  1.0000
  F   F284      1.0  0.62167  0.50193  0.75912  1.0000
  F   F285      1.0  0.87766  0.00552  0.24159  1.0000
  F   F286      1.0  0.87683  0.99879  0.75625  1.0000
  F   F287      1.0  0.88248  0.50012  0.24634  1.0000
  F   F288      1.0  0.87506  0.49584  0.76093  1.0000
  F   F289      1.0  0.05208  0.02569  0.02695  1.0000
  F   F290      1.0  0.03615  0.03992  0.54078  1.0000
  F   F291      1.0  0.05370  0.52685  0.00124  1.0000
  F   F292      1.0  0.04790  0.53107  0.51136  1.0000
  F   F293      1.0  0.29434  0.04291  0.01182  1.0000
  F   F294      1.0  0.29095  0.03636  0.52289  1.0000
  F   F295      1.0  0.29454  0.53902  0.00982  1.0000
  F   F296      1.0  0.29734  0.52901  0.51053  1.0000
  F   F297      1.0  0.53829  0.03363  0.03895  1.0000
  F   F298      1.0  0.54203  0.03002  0.52082  1.0000
  F   F299      1.0  0.54411  0.52108  0.03245  1.0000
  F   F300      1.0  0.54252  0.53269  0.54826  1.0000
  F   F301      1.0  0.80165  0.02457  0.01992  1.0000
  F   F302      1.0  0.79457  0.02097  0.53818  1.0000
  F   F303      1.0  0.79946  0.52238  0.01728  1.0000
  F   F304      1.0  0.79123  0.52762  0.52191  1.0000
  F   F305      1.0  0.23037  0.42874  0.21536  1.0000
  F   F306      1.0  0.24035  0.41463  0.73073  1.0000
  F   F307      1.0  0.23338  0.91409  0.23155  1.0000
  F   F308      1.0  0.23680  0.90600  0.73221  1.0000
  F   F309      1.0  0.48916  0.39561  0.24014  1.0000
  F   F310      1.0  0.48101  0.41626  0.72086  1.0000
  F   F311      1.0  0.48170  0.92715  0.22828  1.0000
  F   F312      1.0  0.48516  0.93406  0.70719  1.0000
  F   F313      1.0  0.73667  0.41501  0.23940  1.0000
  F   F314      1.0  0.73227  0.42686  0.73323  1.0000
  F   F315      1.0  0.73920  0.92306  0.22003  1.0000
  F   F316      1.0  0.73460  0.90731  0.73327  1.0000
  F   F317      1.0  0.98039  0.41430  0.22881  1.0000
  F   F318      1.0  0.98033  0.43361  0.71403  1.0000
  F   F319      1.0  0.98155  0.92098  0.22223  1.0000
  F   F320      1.0  0.98275  0.92358  0.72953  1.0000
  F   F321      1.0  0.20780  0.46852  0.46107  1.0000
  F   F322      1.0  0.20847  0.47551  0.97596  1.0000
  F   F323      1.0  0.21661  0.97425  0.45781  1.0000
  F   F324      1.0  0.20331  0.96539  0.99522  1.0000
  F   F325      1.0  0.45696  0.47513  0.46764  1.0000
  F   F326      1.0  0.45340  0.46900  0.97017  1.0000
  F   F327      1.0  0.45940  0.97423  0.48379  1.0000
  F   F328      1.0  0.46612  0.96517  0.96306  1.0000
  F   F329      1.0  0.69879  0.46661  0.48796  1.0000
  F   F330      1.0  0.69977  0.46551  0.98838  1.0000
  F   F331      1.0  0.70697  0.96647  0.47616  1.0000
  F   F332      1.0  0.70356  0.97611  0.98466  1.0000
  F   F333      1.0  0.95646  0.46584  0.49422  1.0000
  F   F334      1.0  0.95690  0.46120  0.97984  1.0000
  F   F335      1.0  0.95466  0.96815  0.47385  1.0000
  F   F336      1.0  0.94545  0.95770  0.99794  1.0000
  F   F337      1.0  0.02235  0.07961  0.27753  1.0000
  F   F338      1.0  0.01357  0.09434  0.77066  1.0000
  F   F339      1.0  0.02016  0.57691  0.27376  1.0000
  F   F340      1.0  0.01174  0.59020  0.77319  1.0000
  F   F341      1.0  0.26364  0.09125  0.27329  1.0000
  F   F342      1.0  0.27109  0.08219  0.77512  1.0000
  F   F343      1.0  0.26151  0.58544  0.26787  1.0000
  F   F344      1.0  0.26431  0.57691  0.77726  1.0000
  F   F345      1.0  0.50657  0.10062  0.26596  1.0000
  F   F346      1.0  0.51829  0.08497  0.77735  1.0000
  F   F347      1.0  0.51492  0.60598  0.24284  1.0000
  F   F348      1.0  0.51444  0.59025  0.78973  1.0000
  F   F349      1.0  0.76459  0.08838  0.28297  1.0000
  F   F350      1.0  0.76559  0.10094  0.76534  1.0000
  F   F351      1.0  0.76749  0.57227  0.27985  1.0000
  F   F352      1.0  0.75837  0.59227  0.76901  1.0000
  F   F353      1.0  0.09665  0.39811  0.45965  1.0000
  F   F354      1.0  0.10250  0.39268  0.96297  1.0000
  F   F355      1.0  0.09843  0.92090  0.46188  1.0000
  F   F356      1.0  0.10037  0.90268  0.96506  1.0000
  F   F357      1.0  0.35181  0.40916  0.46392  1.0000
  F   F358      1.0  0.35492  0.41167  0.96244  1.0000
  F   F359      1.0  0.34887  0.90854  0.45280  1.0000
  F   F360      1.0  0.35131  0.91566  0.96210  1.0000
  F   F361      1.0  0.60320  0.42446  0.46600  1.0000
  F   F362      1.0  0.59613  0.39737  0.96470  1.0000
  F   F363      1.0  0.60069  0.89345  0.46127  1.0000
  F   F364      1.0  0.59198  0.90527  0.96291  1.0000
  F   F365      1.0  0.85331  0.41939  0.45725  1.0000
  F   F366      1.0  0.84718  0.38186  0.97996  1.0000
  F   F367      1.0  0.84805  0.89231  0.46759  1.0000
  F   F368      1.0  0.84816  0.89190  0.96867  1.0000
  F   F369      1.0  0.04096  0.30475  0.29758  1.0000
  F   F370      1.0  0.04554  0.29460  0.79691  1.0000
  F   F371      1.0  0.03990  0.79916  0.28376  1.0000
  F   F372      1.0  0.04116  0.79241  0.79051  1.0000
  F   F373      1.0  0.29936  0.30599  0.28932  1.0000
  F   F374      1.0  0.30110  0.29619  0.78004  1.0000
  F   F375      1.0  0.30794  0.80024  0.27741  1.0000
  F   F376      1.0  0.29498  0.81330  0.78050  1.0000
  F   F377      1.0  0.55593  0.29837  0.28599  1.0000
  F   F378      1.0  0.53827  0.29004  0.77650  1.0000
  F   F379      1.0  0.54784  0.80412  0.28982  1.0000
  F   F380      1.0  0.54292  0.81108  0.77834  1.0000
  F   F381      1.0  0.79713  0.30052  0.30142  1.0000
  F   F382      1.0  0.79012  0.29441  0.78736  1.0000
  F   F383      1.0  0.79350  0.79529  0.29157  1.0000
  F   F384      1.0  0.79803  0.79615  0.79602  1.0000
