data_image0
_chemical_formula_structural       Hf96F384
_chemical_formula_sum              "Hf96 F384"
_cell_length_a       31.0238
_cell_length_b       15.5109
_cell_length_c       15.5035
_cell_angle_alpha    63.342
_cell_angle_beta     63.342
_cell_angle_gamma    80.1625

_space_group_name_H-M_alt    "P 1"
_space_group_IT_number       1

loop_
  _space_group_symop_operation_xyz
  'x, y, z'

loop_
  _atom_site_type_symbol
  _atom_site_label
  _atom_site_symmetry_multiplicity
  _atom_site_fract_x
  _atom_site_fract_y
  _atom_site_fract_z
  _atom_site_occupancy
  Hf  Hf1       1.0  0.19561  0.11027  0.37480  1.0000
  Hf  Hf2       1.0  0.19939  0.11459  0.86564  1.0000
  Hf  Hf3       1.0  0.19444  0.60706  0.37493  1.0000
  Hf  Hf4       1.0  0.19968  0.61234  0.87478  1.0000
  Hf  Hf5       1.0  0.44341  0.10241  0.38180  1.0000
  Hf  Hf6       1.0  0.44404  0.10970  0.87353  1.0000
  Hf  Hf7       1.0  0.44704  0.60595  0.37346  1.0000
  Hf  Hf8       1.0  0.44480  0.60225  0.88394  1.0000
  Hf  Hf9       1.0  0.69700  0.10514  0.37058  1.0000
  Hf  Hf10      1.0  0.69335  0.09800  0.88913  1.0000
  Hf  Hf11      1.0  0.69743  0.60833  0.37337  1.0000
  Hf  Hf12      1.0  0.69332  0.60735  0.87133  1.0000
  Hf  Hf13      1.0  0.94596  0.10169  0.37577  1.0000
  Hf  Hf14      1.0  0.94760  0.11085  0.86360  1.0000
  Hf  Hf15      1.0  0.94386  0.59995  0.39290  1.0000
  Hf  Hf16      1.0  0.94296  0.60775  0.86980  1.0000
  Hf  Hf17      1.0  0.05404  0.39356  0.12325  1.0000
  Hf  Hf18      1.0  0.05593  0.39621  0.62016  1.0000
  Hf  Hf19      1.0  0.05398  0.89012  0.12863  1.0000
  Hf  Hf20      1.0  0.05266  0.88968  0.62133  1.0000
  Hf  Hf21      1.0  0.30768  0.39154  0.12050  1.0000
  Hf  Hf22      1.0  0.30209  0.39399  0.63112  1.0000
  Hf  Hf23      1.0  0.30651  0.89366  0.12280  1.0000
  Hf  Hf24      1.0  0.30243  0.89177  0.62796  1.0000
  Hf  Hf25      1.0  0.54970  0.38666  0.13451  1.0000
  Hf  Hf26      1.0  0.55648  0.39229  0.62297  1.0000
  Hf  Hf27      1.0  0.54785  0.89124  0.13206  1.0000
  Hf  Hf28      1.0  0.55198  0.89333  0.63090  1.0000
  Hf  Hf29      1.0  0.80481  0.39061  0.12591  1.0000
  Hf  Hf30      1.0  0.80607  0.38771  0.62437  1.0000
  Hf  Hf31      1.0  0.80688  0.88932  0.12758  1.0000
  Hf  Hf32      1.0  0.80096  0.89327  0.61986  1.0000
  Hf  Hf33      1.0  0.05363  0.18256  0.42064  1.0000
  Hf  Hf34      1.0  0.05914  0.18995  0.90662  1.0000
  Hf  Hf35      1.0  0.05313  0.68327  0.41904  1.0000
  Hf  Hf36      1.0  0.05432  0.68497  0.91617  1.0000
  Hf  Hf37      1.0  0.30366  0.18462  0.41455  1.0000
  Hf  Hf38      1.0  0.30641  0.18830  0.91827  1.0000
  Hf  Hf39      1.0  0.30491  0.68274  0.41335  1.0000
  Hf  Hf40      1.0  0.30584  0.67906  0.92292  1.0000
  Hf  Hf41      1.0  0.55859  0.18625  0.41138  1.0000
  Hf  Hf42      1.0  0.55489  0.17620  0.91718  1.0000
  Hf  Hf43      1.0  0.55650  0.68082  0.42200  1.0000
  Hf  Hf44      1.0  0.55200  0.68443  0.92015  1.0000
  Hf  Hf45      1.0  0.80827  0.18226  0.41366  1.0000
  Hf  Hf46      1.0  0.80659  0.18215  0.91638  1.0000
  Hf  Hf47      1.0  0.80511  0.68361  0.42017  1.0000
  Hf  Hf48      1.0  0.80473  0.68487  0.91979  1.0000
  Hf  Hf49      1.0  0.15955  0.38414  0.33857  1.0000
  Hf  Hf50      1.0  0.16089  0.39116  0.83375  1.0000
  Hf  Hf51      1.0  0.16284  0.89341  0.32812  1.0000
  Hf  Hf52      1.0  0.15849  0.88960  0.83624  1.0000
  Hf  Hf53      1.0  0.40828  0.38637  0.33297  1.0000
  Hf  Hf54      1.0  0.41154  0.39365  0.82509  1.0000
  Hf  Hf55      1.0  0.40378  0.88163  0.34088  1.0000
  Hf  Hf56      1.0  0.40723  0.88256  0.84201  1.0000
  Hf  Hf57      1.0  0.66105  0.39093  0.33148  1.0000
  Hf  Hf58      1.0  0.65846  0.38427  0.83149  1.0000
  Hf  Hf59      1.0  0.66169  0.88882  0.32947  1.0000
  Hf  Hf60      1.0  0.65496  0.88306  0.84267  1.0000
  Hf  Hf61      1.0  0.90833  0.38640  0.33598  1.0000
  Hf  Hf62      1.0  0.90574  0.38942  0.83211  1.0000
  Hf  Hf63      1.0  0.90987  0.89141  0.32994  1.0000
  Hf  Hf64      1.0  0.91154  0.89264  0.83128  1.0000
  Hf  Hf65      1.0  0.19556  0.32635  0.08421  1.0000
  Hf  Hf66      1.0  0.19283  0.32067  0.59263  1.0000
  Hf  Hf67      1.0  0.19664  0.82759  0.07846  1.0000
  Hf  Hf68      1.0  0.19409  0.82035  0.58442  1.0000
  Hf  Hf69      1.0  0.44527  0.30975  0.08276  1.0000
  Hf  Hf70      1.0  0.44680  0.31851  0.57900  1.0000
  Hf  Hf71      1.0  0.44405  0.81848  0.08289  1.0000
  Hf  Hf72      1.0  0.44142  0.81654  0.58161  1.0000
  Hf  Hf73      1.0  0.68965  0.31213  0.08880  1.0000
  Hf  Hf74      1.0  0.69563  0.30134  0.58296  1.0000
  Hf  Hf75      1.0  0.69134  0.81679  0.08013  1.0000
  Hf  Hf76      1.0  0.69140  0.81764  0.58712  1.0000
  Hf  Hf77      1.0  0.94782  0.32708  0.07212  1.0000
  Hf  Hf78      1.0  0.94597  0.31496  0.58117  1.0000
  Hf  Hf79      1.0  0.94411  0.81699  0.08553  1.0000
  Hf  Hf80      1.0  0.94236  0.82243  0.58581  1.0000
  Hf  Hf81      1.0  0.09406  0.10963  0.16934  1.0000
  Hf  Hf82      1.0  0.09381  0.11064  0.66658  1.0000
  Hf  Hf83      1.0  0.09064  0.61390  0.16355  1.0000
  Hf  Hf84      1.0  0.09221  0.61200  0.66381  1.0000
  Hf  Hf85      1.0  0.34251  0.11021  0.16536  1.0000
  Hf  Hf86      1.0  0.34083  0.10991  0.66666  1.0000
  Hf  Hf87      1.0  0.34404  0.61276  0.16987  1.0000
  Hf  Hf88      1.0  0.34328  0.61968  0.65556  1.0000
  Hf  Hf89      1.0  0.58938  0.11090  0.16927  1.0000
  Hf  Hf90      1.0  0.58949  0.10658  0.67062  1.0000
  Hf  Hf91      1.0  0.58794  0.61214  0.16976  1.0000
  Hf  Hf92      1.0  0.59173  0.60998  0.67425  1.0000
  Hf  Hf93      1.0  0.84465  0.11430  0.15550  1.0000
  Hf  Hf94      1.0  0.83831  0.10926  0.66732  1.0000
  Hf  Hf95      1.0  0.84383  0.61061  0.16936  1.0000
  Hf  Hf96      1.0  0.83804  0.61250  0.67703  1.0000
  F   F1        1.0  0.07721  0.11233  0.31328  1.0000
  F   F2        1.0  0.08249  0.12962  0.80027  1.0000
  F   F3        1.0  0.07701  0.64747  0.29804  1.0000
  F   F4        1.0  0.07771  0.61653  0.80913  1.0000
  F   F5        1.0  0.32817  0.12662  0.30620  1.0000
  F   F6        1.0  0.33418  0.13236  0.79898  1.0000
  F   F7        1.0  0.33481  0.63230  0.29623  1.0000
  F   F8        1.0  0.33005  0.64101  0.79472  1.0000
  F   F9        1.0  0.57449  0.12893  0.30767  1.0000
  F   F10       1.0  0.57106  0.11215  0.81627  1.0000
  F   F11       1.0  0.58331  0.60970  0.31340  1.0000
  F   F12       1.0  0.56832  0.61991  0.81804  1.0000
  F   F13       1.0  0.82969  0.13003  0.29380  1.0000
  F   F14       1.0  0.83136  0.12709  0.79406  1.0000
  F   F15       1.0  0.83777  0.64153  0.29791  1.0000
  F   F16       1.0  0.82147  0.61066  0.82679  1.0000
  F   F17       1.0  0.18595  0.34537  0.44849  1.0000
  F   F18       1.0  0.18845  0.34706  0.94206  1.0000
  F   F19       1.0  0.19502  0.86139  0.42927  1.0000
  F   F20       1.0  0.18674  0.85098  0.94048  1.0000
  F   F21       1.0  0.44223  0.34840  0.43289  1.0000
  F   F22       1.0  0.43529  0.33277  0.95509  1.0000
  F   F23       1.0  0.43644  0.84556  0.44552  1.0000
  F   F24       1.0  0.43110  0.84098  0.95282  1.0000
  F   F25       1.0  0.69429  0.33949  0.42754  1.0000
  F   F26       1.0  0.68447  0.32909  0.94511  1.0000
  F   F27       1.0  0.68479  0.84015  0.45453  1.0000
  F   F28       1.0  0.68490  0.83548  0.94190  1.0000
  F   F29       1.0  0.93797  0.34759  0.43725  1.0000
  F   F30       1.0  0.93669  0.34578  0.94344  1.0000
  F   F31       1.0  0.92937  0.84148  0.44563  1.0000
  F   F32       1.0  0.92848  0.83812  0.95340  1.0000
  F   F33       1.0  0.16663  0.35847  0.20947  1.0000
  F   F34       1.0  0.17092  0.37812  0.69745  1.0000
  F   F35       1.0  0.17352  0.86442  0.20099  1.0000
  F   F36       1.0  0.16914  0.85804  0.70328  1.0000
  F   F37       1.0  0.42489  0.37665  0.19246  1.0000
  F   F38       1.0  0.42418  0.37700  0.68627  1.0000
  F   F39       1.0  0.42395  0.86798  0.19595  1.0000
  F   F40       1.0  0.41438  0.86468  0.70011  1.0000
  F   F41       1.0  0.67256  0.36882  0.19502  1.0000
  F   F42       1.0  0.66939  0.36960  0.69380  1.0000
  F   F43       1.0  0.66926  0.87504  0.18951  1.0000
  F   F44       1.0  0.66989  0.86399  0.69848  1.0000
  F   F45       1.0  0.92588  0.38408  0.19066  1.0000
  F   F46       1.0  0.92058  0.36716  0.70002  1.0000
  F   F47       1.0  0.92542  0.87091  0.19952  1.0000
  F   F48       1.0  0.92802  0.88456  0.69112  1.0000
  F   F49       1.0  0.06988  0.16795  0.03863  1.0000
  F   F50       1.0  0.04878  0.14935  0.56550  1.0000
  F   F51       1.0  0.05661  0.64933  0.06465  1.0000
  F   F52       1.0  0.06772  0.66491  0.54245  1.0000
  F   F53       1.0  0.30942  0.16113  0.06609  1.0000
  F   F54       1.0  0.31221  0.16299  0.55485  1.0000
  F   F55       1.0  0.31354  0.65270  0.05926  1.0000
  F   F56       1.0  0.32277  0.67017  0.53915  1.0000
  F   F57       1.0  0.57313  0.16572  0.03785  1.0000
  F   F58       1.0  0.56428  0.16290  0.55312  1.0000
  F   F59       1.0  0.55968  0.66082  0.05870  1.0000
  F   F60       1.0  0.56995  0.66306  0.54955  1.0000
  F   F61       1.0  0.81076  0.16295  0.05638  1.0000
  F   F62       1.0  0.81443  0.16962  0.54558  1.0000
  F   F63       1.0  0.81641  0.66688  0.04903  1.0000
  F   F64       1.0  0.81113  0.65707  0.56114  1.0000
  F   F65       1.0  0.20316  0.19586  0.22137  1.0000
  F   F66       1.0  0.20988  0.20990  0.70286  1.0000
  F   F67       1.0  0.20880  0.70152  0.21414  1.0000
  F   F68       1.0  0.20673  0.69786  0.70557  1.0000
  F   F69       1.0  0.44662  0.20633  0.22096  1.0000
  F   F70       1.0  0.44231  0.19186  0.72025  1.0000
  F   F71       1.0  0.45650  0.70141  0.21707  1.0000
  F   F72       1.0  0.44875  0.69168  0.70498  1.0000
  F   F73       1.0  0.70134  0.20060  0.20605  1.0000
  F   F74       1.0  0.70335  0.19797  0.70494  1.0000
  F   F75       1.0  0.69730  0.69610  0.20957  1.0000
  F   F76       1.0  0.70326  0.69251  0.71923  1.0000
  F   F77       1.0  0.94928  0.21382  0.20481  1.0000
  F   F78       1.0  0.95381  0.20094  0.70823  1.0000
  F   F79       1.0  0.95136  0.69758  0.19809  1.0000
  F   F80       1.0  0.95109  0.71394  0.70745  1.0000
  F   F81       1.0  0.14945  0.09110  0.04424  1.0000
  F   F82       1.0  0.14176  0.10513  0.52635  1.0000
  F   F83       1.0  0.15018  0.61410  0.04139  1.0000
  F   F84       1.0  0.14946  0.58439  0.54626  1.0000
  F   F85       1.0  0.40227  0.09566  0.04100  1.0000
  F   F86       1.0  0.39848  0.08937  0.54653  1.0000
  F   F87       1.0  0.40211  0.61895  0.02555  1.0000
  F   F88       1.0  0.40243  0.59413  0.53311  1.0000
  F   F89       1.0  0.65106  0.06383  0.04495  1.0000
  F   F90       1.0  0.64745  0.08963  0.54033  1.0000
  F   F91       1.0  0.64179  0.59848  0.03725  1.0000
  F   F92       1.0  0.65132  0.61467  0.53538  1.0000
  F   F93       1.0  0.90077  0.07235  0.03026  1.0000
  F   F94       1.0  0.89752  0.07603  0.54611  1.0000
  F   F95       1.0  0.90179  0.57795  0.02800  1.0000
  F   F96       1.0  0.90059  0.59794  0.54760  1.0000
  F   F97       1.0  0.15160  0.20261  0.13327  1.0000
  F   F98       1.0  0.15689  0.19386  0.61960  1.0000
  F   F99       1.0  0.15526  0.70639  0.13108  1.0000
  F   F100      1.0  0.15797  0.70208  0.61110  1.0000
  F   F101      1.0  0.40074  0.18103  0.13249  1.0000
  F   F102      1.0  0.40198  0.20379  0.60417  1.0000
  F   F103      1.0  0.40372  0.69849  0.13004  1.0000
  F   F104      1.0  0.39926  0.69388  0.62194  1.0000
  F   F105      1.0  0.64444  0.19457  0.13256  1.0000
  F   F106      1.0  0.64262  0.19963  0.63126  1.0000
  F   F107      1.0  0.64662  0.71027  0.11757  1.0000
  F   F108      1.0  0.64717  0.70185  0.64604  1.0000
  F   F109      1.0  0.90835  0.18818  0.09578  1.0000
  F   F110      1.0  0.90084  0.20382  0.63111  1.0000
  F   F111      1.0  0.90552  0.68399  0.11425  1.0000
  F   F112      1.0  0.89476  0.70175  0.63262  1.0000
  F   F113      1.0  0.09591  0.30487  0.39762  1.0000
  F   F114      1.0  0.09391  0.31263  0.85879  1.0000
  F   F115      1.0  0.09404  0.79445  0.36030  1.0000
  F   F116      1.0  0.09705  0.81927  0.87326  1.0000
  F   F117      1.0  0.35020  0.28942  0.37842  1.0000
  F   F118      1.0  0.34353  0.30748  0.88886  1.0000
  F   F119      1.0  0.34791  0.80664  0.34521  1.0000
  F   F120      1.0  0.35019  0.80329  0.88546  1.0000
  F   F121      1.0  0.60165  0.31780  0.37271  1.0000
  F   F122      1.0  0.60146  0.29322  0.86994  1.0000
  F   F123      1.0  0.60206  0.79521  0.36775  1.0000
  F   F124      1.0  0.59516  0.80233  0.87267  1.0000
  F   F125      1.0  0.84779  0.31206  0.35696  1.0000
  F   F126      1.0  0.84598  0.30647  0.88107  1.0000
  F   F127      1.0  0.85387  0.80014  0.36686  1.0000
  F   F128      1.0  0.85279  0.80681  0.88336  1.0000
  F   F129      1.0  0.06533  0.24969  0.14896  1.0000
  F   F130      1.0  0.06719  0.24795  0.63053  1.0000
  F   F131      1.0  0.07545  0.75620  0.12670  1.0000
  F   F132      1.0  0.06574  0.75420  0.64209  1.0000
  F   F133      1.0  0.31148  0.25358  0.14359  1.0000
  F   F134      1.0  0.30837  0.25614  0.64810  1.0000
  F   F135      1.0  0.32595  0.75304  0.11872  1.0000
  F   F136      1.0  0.30810  0.75643  0.64170  1.0000
  F   F137      1.0  0.55856  0.24559  0.15307  1.0000
  F   F138      1.0  0.56501  0.25992  0.63399  1.0000
  F   F139      1.0  0.55962  0.74748  0.15035  1.0000
  F   F140      1.0  0.56550  0.75036  0.64115  1.0000
  F   F141      1.0  0.81862  0.25077  0.13033  1.0000
  F   F142      1.0  0.81477  0.25104  0.63888  1.0000
  F   F143      1.0  0.82046  0.74882  0.14361  1.0000
  F   F144      1.0  0.81226  0.75029  0.64589  1.0000
  F   F145      1.0  0.12652  0.37761  0.09778  1.0000
  F   F146      1.0  0.12214  0.37251  0.60875  1.0000
  F   F147      1.0  0.12503  0.88239  0.10688  1.0000
  F   F148      1.0  0.12440  0.88411  0.59089  1.0000
  F   F149      1.0  0.37163  0.34820  0.12231  1.0000
  F   F150      1.0  0.37799  0.37447  0.59445  1.0000
  F   F151      1.0  0.37773  0.88285  0.10960  1.0000
  F   F152      1.0  0.37509  0.86578  0.59881  1.0000
  F   F153      1.0  0.62319  0.37119  0.10330  1.0000
  F   F154      1.0  0.62945  0.38303  0.58258  1.0000
  F   F155      1.0  0.61946  0.88342  0.10927  1.0000
  F   F156      1.0  0.62345  0.88361  0.60433  1.0000
  F   F157      1.0  0.87972  0.36640  0.11365  1.0000
  F   F158      1.0  0.87723  0.36706  0.59308  1.0000
  F   F159      1.0  0.87533  0.85887  0.11827  1.0000
  F   F160      1.0  0.87232  0.87450  0.61059  1.0000
  F   F161      1.0  0.19122  0.25275  0.34513  1.0000
  F   F162      1.0  0.18060  0.24641  0.86850  1.0000
  F   F163      1.0  0.17552  0.75067  0.37785  1.0000
  F   F164      1.0  0.18410  0.75297  0.86116  1.0000
  F   F165      1.0  0.43350  0.24010  0.36532  1.0000
  F   F166      1.0  0.43470  0.25591  0.85231  1.0000
  F   F167      1.0  0.43121  0.74845  0.36781  1.0000
  F   F168      1.0  0.44371  0.75583  0.83158  1.0000
  F   F169      1.0  0.68612  0.24762  0.34624  1.0000
  F   F170      1.0  0.68908  0.23982  0.85015  1.0000
  F   F171      1.0  0.69611  0.76082  0.33743  1.0000
  F   F172      1.0  0.67876  0.74940  0.86048  1.0000
  F   F173      1.0  0.92371  0.23648  0.37324  1.0000
  F   F174      1.0  0.93567  0.24680  0.85527  1.0000
  F   F175      1.0  0.94165  0.73752  0.35629  1.0000
  F   F176      1.0  0.94154  0.75206  0.84296  1.0000
  F   F177      1.0  0.12269  0.14735  0.37612  1.0000
  F   F178      1.0  0.12530  0.13099  0.89020  1.0000
  F   F179      1.0  0.12591  0.61126  0.40551  1.0000
  F   F180      1.0  0.12171  0.63855  0.91205  1.0000
  F   F181      1.0  0.37367  0.11279  0.40409  1.0000
  F   F182      1.0  0.37225  0.12626  0.91364  1.0000
  F   F183      1.0  0.37703  0.61983  0.39861  1.0000
  F   F184      1.0  0.37704  0.63320  0.88767  1.0000
  F   F185      1.0  0.62918  0.13797  0.37265  1.0000
  F   F186      1.0  0.62264  0.12381  0.89123  1.0000
  F   F187      1.0  0.62771  0.62414  0.40177  1.0000
  F   F188      1.0  0.62315  0.63170  0.89699  1.0000
  F   F189      1.0  0.86907  0.11240  0.40125  1.0000
  F   F190      1.0  0.87756  0.13823  0.87908  1.0000
  F   F191      1.0  0.87576  0.61932  0.40839  1.0000
  F   F192      1.0  0.87496  0.64427  0.87905  1.0000
  F   F193      1.0  0.01482  0.34953  0.06997  1.0000
  F   F194      1.0  0.01084  0.35706  0.56691  1.0000
  F   F195      1.0  0.01139  0.85234  0.08661  1.0000
  F   F196      1.0  0.00992  0.86489  0.55868  1.0000
  F   F197      1.0  0.26104  0.37011  0.06184  1.0000
  F   F198      1.0  0.25561  0.37404  0.57996  1.0000
  F   F199      1.0  0.25878  0.86150  0.07706  1.0000
  F   F200      1.0  0.25687  0.86906  0.57222  1.0000
  F   F201      1.0  0.50818  0.36568  0.06313  1.0000
  F   F202      1.0  0.50631  0.36820  0.58318  1.0000
  F   F203      1.0  0.50800  0.85850  0.07022  1.0000
  F   F204      1.0  0.51157  0.85499  0.57680  1.0000
  F   F205      1.0  0.75978  0.37072  0.06272  1.0000
  F   F206      1.0  0.75975  0.35340  0.56463  1.0000
  F   F207      1.0  0.75634  0.85846  0.08051  1.0000
  F   F208      1.0  0.75661  0.84920  0.58535  1.0000
  F   F209      1.0  0.07057  0.48530  0.16656  1.0000
  F   F210      1.0  0.06881  0.48595  0.68421  1.0000
  F   F211      1.0  0.06764  0.98653  0.17701  1.0000
  F   F212      1.0  0.07084  0.98714  0.67072  1.0000
  F   F213      1.0  0.33257  0.48416  0.16002  1.0000
  F   F214      1.0  0.31693  0.48932  0.67372  1.0000
  F   F215      1.0  0.31797  0.98195  0.18266  1.0000
  F   F216      1.0  0.31739  0.98200  0.67819  1.0000
  F   F217      1.0  0.56815  0.47759  0.17764  1.0000
  F   F218      1.0  0.57279  0.48768  0.67778  1.0000
  F   F219      1.0  0.56395  0.98592  0.18690  1.0000
  F   F220      1.0  0.56912  0.98179  0.68498  1.0000
  F   F221      1.0  0.82366  0.48725  0.16731  1.0000
  F   F222      1.0  0.82865  0.47709  0.67352  1.0000
  F   F223      1.0  0.82042  0.97763  0.17782  1.0000
  F   F224      1.0  0.81233  0.98819  0.68440  1.0000
  F   F225      1.0  0.23301  0.14233  0.43783  1.0000
  F   F226      1.0  0.24478  0.14044  0.91706  1.0000
  F   F227      1.0  0.23958  0.63193  0.43381  1.0000
  F   F228      1.0  0.23913  0.64987  0.92856  1.0000
  F   F229      1.0  0.49434  0.14393  0.42428  1.0000
  F   F230      1.0  0.49264  0.14993  0.90715  1.0000
  F   F231      1.0  0.49102  0.63459  0.43024  1.0000
  F   F232      1.0  0.48732  0.63159  0.93895  1.0000
  F   F233      1.0  0.74686  0.13498  0.41223  1.0000
  F   F234      1.0  0.74246  0.13470  0.92828  1.0000
  F   F235      1.0  0.74471  0.63670  0.42543  1.0000
  F   F236      1.0  0.73986  0.64839  0.92071  1.0000
  F   F237      1.0  0.98785  0.14693  0.41892  1.0000
  F   F238      1.0  0.99550  0.14006  0.90983  1.0000
  F   F239      1.0  0.99053  0.62600  0.44782  1.0000
  F   F240      1.0  0.99540  0.63463  0.92243  1.0000
  F   F241      1.0  0.18083  0.01977  0.32411  1.0000
  F   F242      1.0  0.18527  0.01599  0.82390  1.0000
  F   F243      1.0  0.18025  0.51647  0.32374  1.0000
  F   F244      1.0  0.18201  0.51813  0.83552  1.0000
  F   F245      1.0  0.43119  0.01700  0.31398  1.0000
  F   F246      1.0  0.42646  0.01351  0.82994  1.0000
  F   F247      1.0  0.43418  0.51460  0.31463  1.0000
  F   F248      1.0  0.43087  0.50291  0.83441  1.0000
  F   F249      1.0  0.68939  0.01017  0.32303  1.0000
  F   F250      1.0  0.68219  0.00911  0.82225  1.0000
  F   F251      1.0  0.68760  0.51443  0.31970  1.0000
  F   F252      1.0  0.67891  0.51015  0.82370  1.0000
  F   F253      1.0  0.92984  0.01062  0.32874  1.0000
  F   F254      1.0  0.93468  0.01648  0.81418  1.0000
  F   F255      1.0  0.93081  0.51555  0.32438  1.0000
  F   F256      1.0  0.93245  0.50990  0.82745  1.0000
  F   F257      1.0  0.99253  0.23797  0.00527  1.0000
  F   F258      1.0  0.99950  0.26358  0.48410  1.0000
  F   F259      1.0  0.00362  0.76074  0.98813  1.0000
  F   F260      1.0  0.99575  0.75250  0.50513  1.0000
  F   F261      1.0  0.24702  0.24947  0.99988  1.0000
  F   F262      1.0  0.25026  0.25670  0.50639  1.0000
  F   F263      1.0  0.25178  0.75905  0.99210  1.0000
  F   F264      1.0  0.25019  0.75533  0.49321  1.0000
  F   F265      1.0  0.49817  0.23726  0.00635  1.0000
  F   F266      1.0  0.50217  0.25508  0.49147  1.0000
  F   F267      1.0  0.49322  0.73513  0.01100  1.0000
  F   F268      1.0  0.50311  0.75107  0.49952  1.0000
  F   F269      1.0  0.74573  0.25363  0.99600  1.0000
  F   F270      1.0  0.74471  0.22610  0.50684  1.0000
  F   F271      1.0  0.74616  0.74971  0.00417  1.0000
  F   F272      1.0  0.74549  0.74133  0.51425  1.0000
  F   F273      1.0  0.12260  0.98625  0.25532  1.0000
  F   F274      1.0  0.12989  0.00449  0.73655  1.0000
  F   F275      1.0  0.12136  0.50285  0.25130  1.0000
  F   F276      1.0  0.13572  0.50029  0.73779  1.0000
  F   F277      1.0  0.37140  0.99645  0.24966  1.0000
  F   F278      1.0  0.37376  0.00485  0.75350  1.0000
  F   F279      1.0  0.37895  0.49234  0.24698  1.0000
  F   F280      1.0  0.37347  0.49680  0.74276  1.0000
  F   F281      1.0  0.63067  0.00756  0.24073  1.0000
  F   F282      1.0  0.62930  0.00362  0.74513  1.0000
  F   F283      1.0  0.64228  0.52011  0.22734  1.0000
  F   F284      1.0  0.62353  0.50190  0.75475  1.0000
  F   F285      1.0  0.87828  0.00417  0.24042  1.0000
  F   F286      1.0  0.87561  0.00401  0.74863  1.0000
  F   F287      1.0  0.86868  0.49172  0.26076  1.0000
  F   F288      1.0  0.88343  0.51656  0.74317  1.0000
  F   F289      1.0  0.03736  0.03495  0.03516  1.0000
  F   F290      1.0  0.04509  0.02996  0.50678  1.0000
  F   F291      1.0  0.04340  0.52127  0.01345  1.0000
  F   F292      1.0  0.04310  0.52901  0.52195  1.0000
  F   F293      1.0  0.28947  0.03217  0.02867  1.0000
  F   F294      1.0  0.29303  0.03456  0.52031  1.0000
  F   F295      1.0  0.28814  0.54133  0.01827  1.0000
  F   F296      1.0  0.29305  0.53608  0.51914  1.0000
  F   F297      1.0  0.53348  0.02398  0.03545  1.0000
  F   F298      1.0  0.54789  0.03554  0.53036  1.0000
  F   F299      1.0  0.54200  0.53545  0.01797  1.0000
  F   F300      1.0  0.54551  0.53605  0.52467  1.0000
  F   F301      1.0  0.79659  0.03437  0.02318  1.0000
  F   F302      1.0  0.79205  0.03199  0.52234  1.0000
  F   F303      1.0  0.79373  0.54110  0.01858  1.0000
  F   F304      1.0  0.79421  0.53241  0.52196  1.0000
  F   F305      1.0  0.23802  0.41109  0.22403  1.0000
  F   F306      1.0  0.23749  0.42504  0.72712  1.0000
  F   F307      1.0  0.23935  0.91476  0.21116  1.0000
  F   F308      1.0  0.22995  0.92085  0.72096  1.0000
  F   F309      1.0  0.48613  0.39986  0.23530  1.0000
  F   F310      1.0  0.48982  0.41743  0.73709  1.0000
  F   F311      1.0  0.48161  0.91652  0.23260  1.0000
  F   F312      1.0  0.48040  0.91993  0.72436  1.0000
  F   F313      1.0  0.74182  0.41674  0.22189  1.0000
  F   F314      1.0  0.73825  0.41748  0.72375  1.0000
  F   F315      1.0  0.73299  0.92730  0.21167  1.0000
  F   F316      1.0  0.73377  0.90526  0.72534  1.0000
  F   F317      1.0  0.98796  0.40035  0.22555  1.0000
  F   F318      1.0  0.98381  0.42312  0.72189  1.0000
  F   F319      1.0  0.98323  0.92481  0.22616  1.0000
  F   F320      1.0  0.99103  0.92280  0.71889  1.0000
  F   F321      1.0  0.20516  0.47025  0.47879  1.0000
  F   F322      1.0  0.21249  0.47258  0.97963  1.0000
  F   F323      1.0  0.19970  0.97166  0.49247  1.0000
  F   F324      1.0  0.21162  0.97423  0.96849  1.0000
  F   F325      1.0  0.45853  0.46837  0.46906  1.0000
  F   F326      1.0  0.44931  0.46037  0.98870  1.0000
  F   F327      1.0  0.45359  0.97059  0.48478  1.0000
  F   F328      1.0  0.46333  0.96872  0.96181  1.0000
  F   F329      1.0  0.70663  0.47479  0.48126  1.0000
  F   F330      1.0  0.70368  0.47205  0.97110  1.0000
  F   F331      1.0  0.70362  0.97273  0.48169  1.0000
  F   F332      1.0  0.70818  0.96072  0.97042  1.0000
  F   F333      1.0  0.95198  0.47153  0.49413  1.0000
  F   F334      1.0  0.96214  0.47989  0.96728  1.0000
  F   F335      1.0  0.96171  0.96279  0.48155  1.0000
  F   F336      1.0  0.96389  0.96857  0.97065  1.0000
  F   F337      1.0  0.01371  0.08478  0.25979  1.0000
  F   F338      1.0  0.01813  0.09428  0.76059  1.0000
  F   F339      1.0  0.01474  0.59744  0.27734  1.0000
  F   F340      1.0  0.01313  0.60192  0.76216  1.0000
  F   F341      1.0  0.26797  0.09001  0.28165  1.0000
  F   F342      1.0  0.26925  0.09221  0.76067  1.0000
  F   F343      1.0  0.27032  0.56896  0.29219  1.0000
  F   F344      1.0  0.26956  0.58048  0.76682  1.0000
  F   F345      1.0  0.51426  0.08996  0.27458  1.0000
  F   F346      1.0  0.51567  0.07801  0.75897  1.0000
  F   F347      1.0  0.51925  0.56970  0.27748  1.0000
  F   F348      1.0  0.50866  0.57858  0.77841  1.0000
  F   F349      1.0  0.76441  0.08892  0.26620  1.0000
  F   F350      1.0  0.76448  0.08962  0.78058  1.0000
  F   F351      1.0  0.76984  0.59080  0.27369  1.0000
  F   F352      1.0  0.76247  0.57445  0.78058  1.0000
  F   F353      1.0  0.10602  0.41465  0.45723  1.0000
  F   F354      1.0  0.10222  0.39099  0.96302  1.0000
  F   F355      1.0  0.10249  0.88683  0.46202  1.0000
  F   F356      1.0  0.10159  0.91990  0.94937  1.0000
  F   F357      1.0  0.34699  0.40239  0.45483  1.0000
  F   F358      1.0  0.35577  0.41560  0.96111  1.0000
  F   F359      1.0  0.34846  0.88927  0.46650  1.0000
  F   F360      1.0  0.34957  0.91847  0.96148  1.0000
  F   F361      1.0  0.60084  0.41559  0.46123  1.0000
  F   F362      1.0  0.59949  0.40294  0.96082  1.0000
  F   F363      1.0  0.60522  0.90760  0.45224  1.0000
  F   F364      1.0  0.60045  0.90752  0.96390  1.0000
  F   F365      1.0  0.84941  0.40697  0.45584  1.0000
  F   F366      1.0  0.85223  0.40262  0.97110  1.0000
  F   F367      1.0  0.84355  0.90194  0.46101  1.0000
  F   F368      1.0  0.85564  0.91641  0.96211  1.0000
  F   F369      1.0  0.05463  0.29730  0.29421  1.0000
  F   F370      1.0  0.04277  0.30379  0.77668  1.0000
  F   F371      1.0  0.03604  0.79682  0.29114  1.0000
  F   F372      1.0  0.05133  0.80373  0.78266  1.0000
  F   F373      1.0  0.29331  0.30338  0.29783  1.0000
  F   F374      1.0  0.29511  0.30187  0.79002  1.0000
  F   F375      1.0  0.29032  0.78681  0.27268  1.0000
  F   F376      1.0  0.29599  0.80724  0.78260  1.0000
  F   F377      1.0  0.55472  0.29878  0.28474  1.0000
  F   F378      1.0  0.55201  0.29917  0.79108  1.0000
  F   F379      1.0  0.54347  0.79489  0.29271  1.0000
  F   F380      1.0  0.54421  0.79002  0.79066  1.0000
  F   F381      1.0  0.78917  0.28833  0.28785  1.0000
  F   F382      1.0  0.80274  0.29418  0.78408  1.0000
  F   F383      1.0  0.80172  0.80023  0.28688  1.0000
  F   F384      1.0  0.79926  0.80158  0.79345  1.0000
