data_image0
_chemical_formula_structural       Hf96F384
_chemical_formula_sum              "Hf96 F384"
_cell_length_a       31.0215
_cell_length_b       15.5132
_cell_length_c       15.5001
_cell_angle_alpha    63.342
_cell_angle_beta     63.342
_cell_angle_gamma    80.1625

_space_group_name_H-M_alt    "P 1"
_space_group_IT_number       1

loop_
  _space_group_symop_operation_xyz
  'x, y, z'

loop_
  _atom_site_type_symbol
  _atom_site_label
  _atom_site_symmetry_multiplicity
  _atom_site_fract_x
  _atom_site_fract_y
  _atom_site_fract_z
  _atom_site_occupancy
  Hf  Hf1       1.0  0.19883  0.10936  0.37278  1.0000
  Hf  Hf2       1.0  0.19317  0.09729  0.89130  1.0000
  Hf  Hf3       1.0  0.19082  0.60626  0.37052  1.0000
  Hf  Hf4       1.0  0.19963  0.61251  0.87895  1.0000
  Hf  Hf5       1.0  0.44632  0.10853  0.38207  1.0000
  Hf  Hf6       1.0  0.44684  0.11531  0.86654  1.0000
  Hf  Hf7       1.0  0.44772  0.61098  0.36476  1.0000
  Hf  Hf8       1.0  0.44766  0.60428  0.88139  1.0000
  Hf  Hf9       1.0  0.69857  0.10453  0.37981  1.0000
  Hf  Hf10      1.0  0.69343  0.11060  0.87689  1.0000
  Hf  Hf11      1.0  0.69705  0.60810  0.36796  1.0000
  Hf  Hf12      1.0  0.69900  0.61252  0.87009  1.0000
  Hf  Hf13      1.0  0.94366  0.10608  0.38156  1.0000
  Hf  Hf14      1.0  0.94617  0.10481  0.86958  1.0000
  Hf  Hf15      1.0  0.94269  0.60415  0.37386  1.0000
  Hf  Hf16      1.0  0.94882  0.60962  0.86865  1.0000
  Hf  Hf17      1.0  0.05230  0.39318  0.12516  1.0000
  Hf  Hf18      1.0  0.05694  0.39363  0.62411  1.0000
  Hf  Hf19      1.0  0.05336  0.89542  0.12118  1.0000
  Hf  Hf20      1.0  0.05055  0.88917  0.63399  1.0000
  Hf  Hf21      1.0  0.30749  0.39333  0.11811  1.0000
  Hf  Hf22      1.0  0.30371  0.39371  0.62598  1.0000
  Hf  Hf23      1.0  0.29905  0.89088  0.13741  1.0000
  Hf  Hf24      1.0  0.30249  0.89593  0.61750  1.0000
  Hf  Hf25      1.0  0.55533  0.39325  0.11460  1.0000
  Hf  Hf26      1.0  0.55370  0.39063  0.62515  1.0000
  Hf  Hf27      1.0  0.55421  0.89345  0.12719  1.0000
  Hf  Hf28      1.0  0.55390  0.89093  0.62481  1.0000
  Hf  Hf29      1.0  0.80431  0.39060  0.12607  1.0000
  Hf  Hf30      1.0  0.80318  0.39418  0.62291  1.0000
  Hf  Hf31      1.0  0.79931  0.88720  0.12910  1.0000
  Hf  Hf32      1.0  0.80095  0.88718  0.62739  1.0000
  Hf  Hf33      1.0  0.05030  0.17554  0.42855  1.0000
  Hf  Hf34      1.0  0.05506  0.18357  0.91457  1.0000
  Hf  Hf35      1.0  0.05086  0.68871  0.41972  1.0000
  Hf  Hf36      1.0  0.05670  0.67926  0.91989  1.0000
  Hf  Hf37      1.0  0.30813  0.18465  0.41485  1.0000
  Hf  Hf38      1.0  0.30611  0.17599  0.91471  1.0000
  Hf  Hf39      1.0  0.30065  0.68137  0.42101  1.0000
  Hf  Hf40      1.0  0.30748  0.68080  0.92462  1.0000
  Hf  Hf41      1.0  0.55795  0.18576  0.41687  1.0000
  Hf  Hf42      1.0  0.55443  0.18086  0.92135  1.0000
  Hf  Hf43      1.0  0.55739  0.67898  0.41003  1.0000
  Hf  Hf44      1.0  0.55661  0.68338  0.91562  1.0000
  Hf  Hf45      1.0  0.80489  0.18183  0.41892  1.0000
  Hf  Hf46      1.0  0.80931  0.18622  0.90766  1.0000
  Hf  Hf47      1.0  0.80249  0.68326  0.41704  1.0000
  Hf  Hf48      1.0  0.80735  0.68195  0.90929  1.0000
  Hf  Hf49      1.0  0.15895  0.38844  0.33060  1.0000
  Hf  Hf50      1.0  0.15909  0.38730  0.84058  1.0000
  Hf  Hf51      1.0  0.15896  0.88077  0.33944  1.0000
  Hf  Hf52      1.0  0.15774  0.89148  0.82991  1.0000
  Hf  Hf53      1.0  0.41000  0.39266  0.32930  1.0000
  Hf  Hf54      1.0  0.40509  0.38920  0.83731  1.0000
  Hf  Hf55      1.0  0.40992  0.89258  0.33455  1.0000
  Hf  Hf56      1.0  0.40844  0.88019  0.84015  1.0000
  Hf  Hf57      1.0  0.65767  0.38530  0.33998  1.0000
  Hf  Hf58      1.0  0.65928  0.39249  0.83050  1.0000
  Hf  Hf59      1.0  0.65989  0.89515  0.32934  1.0000
  Hf  Hf60      1.0  0.65800  0.89059  0.83363  1.0000
  Hf  Hf61      1.0  0.90861  0.38986  0.33098  1.0000
  Hf  Hf62      1.0  0.91326  0.39020  0.83028  1.0000
  Hf  Hf63      1.0  0.91140  0.88405  0.32988  1.0000
  Hf  Hf64      1.0  0.90650  0.87984  0.83287  1.0000
  Hf  Hf65      1.0  0.19807  0.31174  0.08009  1.0000
  Hf  Hf66      1.0  0.19504  0.31949  0.58401  1.0000
  Hf  Hf67      1.0  0.19373  0.81562  0.08459  1.0000
  Hf  Hf68      1.0  0.19363  0.82057  0.58136  1.0000
  Hf  Hf69      1.0  0.44261  0.31480  0.08550  1.0000
  Hf  Hf70      1.0  0.44253  0.32417  0.58199  1.0000
  Hf  Hf71      1.0  0.44392  0.82310  0.08044  1.0000
  Hf  Hf72      1.0  0.43973  0.81216  0.59441  1.0000
  Hf  Hf73      1.0  0.69492  0.31000  0.08683  1.0000
  Hf  Hf74      1.0  0.69303  0.31463  0.58723  1.0000
  Hf  Hf75      1.0  0.69172  0.82280  0.08108  1.0000
  Hf  Hf76      1.0  0.69365  0.82019  0.58095  1.0000
  Hf  Hf77      1.0  0.94408  0.31722  0.08445  1.0000
  Hf  Hf78      1.0  0.94333  0.31522  0.58467  1.0000
  Hf  Hf79      1.0  0.94380  0.81872  0.07631  1.0000
  Hf  Hf80      1.0  0.94266  0.81807  0.58464  1.0000
  Hf  Hf81      1.0  0.09153  0.11208  0.17314  1.0000
  Hf  Hf82      1.0  0.09396  0.11731  0.65884  1.0000
  Hf  Hf83      1.0  0.09282  0.61645  0.17050  1.0000
  Hf  Hf84      1.0  0.09478  0.61039  0.65900  1.0000
  Hf  Hf85      1.0  0.34230  0.11195  0.16584  1.0000
  Hf  Hf86      1.0  0.33922  0.10897  0.67462  1.0000
  Hf  Hf87      1.0  0.34213  0.61526  0.16345  1.0000
  Hf  Hf88      1.0  0.34423  0.61257  0.66356  1.0000
  Hf  Hf89      1.0  0.58990  0.10709  0.17382  1.0000
  Hf  Hf90      1.0  0.59167  0.11200  0.66820  1.0000
  Hf  Hf91      1.0  0.59481  0.61159  0.16038  1.0000
  Hf  Hf92      1.0  0.58933  0.61088  0.66730  1.0000
  Hf  Hf93      1.0  0.84343  0.10552  0.16640  1.0000
  Hf  Hf94      1.0  0.83708  0.10554  0.67383  1.0000
  Hf  Hf95      1.0  0.84109  0.61307  0.16070  1.0000
  Hf  Hf96      1.0  0.84162  0.60721  0.67088  1.0000
  F   F1        1.0  0.07500  0.13579  0.30686  1.0000
  F   F2        1.0  0.08616  0.14326  0.79080  1.0000
  F   F3        1.0  0.06933  0.62079  0.31367  1.0000
  F   F4        1.0  0.08340  0.62383  0.80561  1.0000
  F   F5        1.0  0.32804  0.12570  0.30614  1.0000
  F   F6        1.0  0.33132  0.11777  0.80597  1.0000
  F   F7        1.0  0.31979  0.62016  0.31450  1.0000
  F   F8        1.0  0.33051  0.63328  0.79946  1.0000
  F   F9        1.0  0.57574  0.11430  0.31327  1.0000
  F   F10       1.0  0.58116  0.14366  0.79716  1.0000
  F   F11       1.0  0.57604  0.61852  0.30578  1.0000
  F   F12       1.0  0.57785  0.64785  0.78837  1.0000
  F   F13       1.0  0.82194  0.11856  0.30967  1.0000
  F   F14       1.0  0.82960  0.12458  0.79991  1.0000
  F   F15       1.0  0.82871  0.64200  0.29295  1.0000
  F   F16       1.0  0.82988  0.62452  0.80802  1.0000
  F   F17       1.0  0.18566  0.32908  0.45189  1.0000
  F   F18       1.0  0.19238  0.34352  0.94011  1.0000
  F   F19       1.0  0.18657  0.83760  0.44714  1.0000
  F   F20       1.0  0.18424  0.83441  0.94872  1.0000
  F   F21       1.0  0.43664  0.34467  0.44815  1.0000
  F   F22       1.0  0.43338  0.34622  0.95207  1.0000
  F   F23       1.0  0.43571  0.85720  0.44675  1.0000
  F   F24       1.0  0.43677  0.83302  0.94906  1.0000
  F   F25       1.0  0.69017  0.35796  0.44392  1.0000
  F   F26       1.0  0.68841  0.34665  0.93515  1.0000
  F   F27       1.0  0.68155  0.85315  0.45104  1.0000
  F   F28       1.0  0.68441  0.83975  0.94234  1.0000
  F   F29       1.0  0.93671  0.33533  0.44772  1.0000
  F   F30       1.0  0.94015  0.34629  0.94617  1.0000
  F   F31       1.0  0.94230  0.83962  0.43650  1.0000
  F   F32       1.0  0.94130  0.84088  0.93248  1.0000
  F   F33       1.0  0.16806  0.36097  0.20393  1.0000
  F   F34       1.0  0.17367  0.36667  0.71027  1.0000
  F   F35       1.0  0.17136  0.85847  0.19826  1.0000
  F   F36       1.0  0.17339  0.88204  0.69061  1.0000
  F   F37       1.0  0.43011  0.37784  0.18363  1.0000
  F   F38       1.0  0.42333  0.36756  0.69996  1.0000
  F   F39       1.0  0.42205  0.87756  0.19633  1.0000
  F   F40       1.0  0.41273  0.86395  0.70289  1.0000
  F   F41       1.0  0.67029  0.35402  0.20486  1.0000
  F   F42       1.0  0.66612  0.36803  0.69805  1.0000
  F   F43       1.0  0.67659  0.87650  0.18730  1.0000
  F   F44       1.0  0.66543  0.87914  0.69019  1.0000
  F   F45       1.0  0.92392  0.37689  0.19793  1.0000
  F   F46       1.0  0.93070  0.37074  0.69121  1.0000
  F   F47       1.0  0.92461  0.86966  0.19173  1.0000
  F   F48       1.0  0.92091  0.87238  0.69684  1.0000
  F   F49       1.0  0.07552  0.16017  0.05183  1.0000
  F   F50       1.0  0.05803  0.14906  0.56166  1.0000
  F   F51       1.0  0.06622  0.66892  0.05403  1.0000
  F   F52       1.0  0.07081  0.66834  0.54640  1.0000
  F   F53       1.0  0.31784  0.16595  0.04705  1.0000
  F   F54       1.0  0.31461  0.16005  0.54322  1.0000
  F   F55       1.0  0.31179  0.66333  0.05416  1.0000
  F   F56       1.0  0.31410  0.66871  0.54765  1.0000
  F   F57       1.0  0.55599  0.15532  0.07246  1.0000
  F   F58       1.0  0.56205  0.15079  0.56157  1.0000
  F   F59       1.0  0.57069  0.65694  0.04745  1.0000
  F   F60       1.0  0.56889  0.65450  0.54220  1.0000
  F   F61       1.0  0.82583  0.16210  0.04015  1.0000
  F   F62       1.0  0.81155  0.14499  0.56135  1.0000
  F   F63       1.0  0.81189  0.66770  0.04808  1.0000
  F   F64       1.0  0.81526  0.65424  0.55080  1.0000
  F   F65       1.0  0.21051  0.19902  0.20056  1.0000
  F   F66       1.0  0.19864  0.20777  0.71514  1.0000
  F   F67       1.0  0.20201  0.69667  0.21219  1.0000
  F   F68       1.0  0.19499  0.70285  0.71173  1.0000
  F   F69       1.0  0.45407  0.20450  0.21341  1.0000
  F   F70       1.0  0.45696  0.19778  0.71190  1.0000
  F   F71       1.0  0.45903  0.71729  0.21413  1.0000
  F   F72       1.0  0.44969  0.69942  0.72142  1.0000
  F   F73       1.0  0.71084  0.20735  0.21091  1.0000
  F   F74       1.0  0.70096  0.19345  0.71136  1.0000
  F   F75       1.0  0.70449  0.70312  0.20766  1.0000
  F   F76       1.0  0.69914  0.70561  0.71488  1.0000
  F   F77       1.0  0.95450  0.20394  0.20416  1.0000
  F   F78       1.0  0.95745  0.21110  0.70774  1.0000
  F   F79       1.0  0.95407  0.70167  0.21897  1.0000
  F   F80       1.0  0.94871  0.69746  0.71285  1.0000
  F   F81       1.0  0.15643  0.08212  0.04140  1.0000
  F   F82       1.0  0.14778  0.09781  0.52502  1.0000
  F   F83       1.0  0.15117  0.60796  0.04887  1.0000
  F   F84       1.0  0.14922  0.59168  0.52490  1.0000
  F   F85       1.0  0.39850  0.09362  0.04156  1.0000
  F   F86       1.0  0.39765  0.10419  0.54878  1.0000
  F   F87       1.0  0.40329  0.61047  0.03835  1.0000
  F   F88       1.0  0.40018  0.58825  0.55091  1.0000
  F   F89       1.0  0.64863  0.12155  0.03108  1.0000
  F   F90       1.0  0.65192  0.08983  0.54242  1.0000
  F   F91       1.0  0.65741  0.59367  0.02356  1.0000
  F   F92       1.0  0.64886  0.60836  0.53648  1.0000
  F   F93       1.0  0.90474  0.07812  0.03062  1.0000
  F   F94       1.0  0.89584  0.10944  0.52190  1.0000
  F   F95       1.0  0.89948  0.59672  0.03446  1.0000
  F   F96       1.0  0.89754  0.58160  0.54615  1.0000
  F   F97       1.0  0.15377  0.19015  0.12277  1.0000
  F   F98       1.0  0.15829  0.19072  0.61388  1.0000
  F   F99       1.0  0.14849  0.69709  0.14316  1.0000
  F   F100      1.0  0.15325  0.69286  0.60761  1.0000
  F   F101      1.0  0.39698  0.20580  0.13171  1.0000
  F   F102      1.0  0.40173  0.21058  0.63348  1.0000
  F   F103      1.0  0.40253  0.69355  0.13784  1.0000
  F   F104      1.0  0.40029  0.70669  0.62596  1.0000
  F   F105      1.0  0.65744  0.19101  0.13836  1.0000
  F   F106      1.0  0.65498  0.20716  0.60488  1.0000
  F   F107      1.0  0.65058  0.69792  0.13041  1.0000
  F   F108      1.0  0.65405  0.69409  0.63096  1.0000
  F   F109      1.0  0.90195  0.18864  0.12323  1.0000
  F   F110      1.0  0.90264  0.19760  0.62781  1.0000
  F   F111      1.0  0.89981  0.69674  0.12549  1.0000
  F   F112      1.0  0.90263  0.69337  0.62159  1.0000
  F   F113      1.0  0.09994  0.30806  0.39615  1.0000
  F   F114      1.0  0.09682  0.29625  0.88051  1.0000
  F   F115      1.0  0.09871  0.81130  0.36948  1.0000
  F   F116      1.0  0.09758  0.80114  0.87671  1.0000
  F   F117      1.0  0.35281  0.31332  0.37226  1.0000
  F   F118      1.0  0.34906  0.30413  0.88131  1.0000
  F   F119      1.0  0.34942  0.78365  0.34567  1.0000
  F   F120      1.0  0.35200  0.79814  0.88308  1.0000
  F   F121      1.0  0.59893  0.29637  0.38124  1.0000
  F   F122      1.0  0.59641  0.28906  0.88674  1.0000
  F   F123      1.0  0.59086  0.82191  0.38337  1.0000
  F   F124      1.0  0.60211  0.80534  0.88794  1.0000
  F   F125      1.0  0.84906  0.29060  0.39921  1.0000
  F   F126      1.0  0.85111  0.30754  0.85713  1.0000
  F   F127      1.0  0.85186  0.79582  0.35633  1.0000
  F   F128      1.0  0.84727  0.80374  0.87128  1.0000
  F   F129      1.0  0.05855  0.25143  0.15573  1.0000
  F   F130      1.0  0.06981  0.24971  0.63052  1.0000
  F   F131      1.0  0.07182  0.75552  0.13719  1.0000
  F   F132      1.0  0.06321  0.74867  0.65739  1.0000
  F   F133      1.0  0.31042  0.25763  0.13676  1.0000
  F   F134      1.0  0.31635  0.24885  0.64696  1.0000
  F   F135      1.0  0.31838  0.75159  0.14874  1.0000
  F   F136      1.0  0.31149  0.74986  0.65160  1.0000
  F   F137      1.0  0.57106  0.25029  0.13504  1.0000
  F   F138      1.0  0.56770  0.25468  0.64131  1.0000
  F   F139      1.0  0.56876  0.74927  0.14737  1.0000
  F   F140      1.0  0.56797  0.75555  0.62611  1.0000
  F   F141      1.0  0.81942  0.24451  0.13995  1.0000
  F   F142      1.0  0.81850  0.25365  0.64275  1.0000
  F   F143      1.0  0.82016  0.75598  0.12293  1.0000
  F   F144      1.0  0.80941  0.74478  0.65549  1.0000
  F   F145      1.0  0.12279  0.37271  0.10460  1.0000
  F   F146      1.0  0.12339  0.34945  0.62733  1.0000
  F   F147      1.0  0.12287  0.88391  0.10755  1.0000
  F   F148      1.0  0.12243  0.86827  0.61172  1.0000
  F   F149      1.0  0.37727  0.37321  0.10496  1.0000
  F   F150      1.0  0.37394  0.39110  0.59949  1.0000
  F   F151      1.0  0.37319  0.87236  0.10239  1.0000
  F   F152      1.0  0.37399  0.87671  0.59337  1.0000
  F   F153      1.0  0.62765  0.37420  0.10129  1.0000
  F   F154      1.0  0.62439  0.37694  0.60994  1.0000
  F   F155      1.0  0.62513  0.86604  0.11094  1.0000
  F   F156      1.0  0.62355  0.87751  0.59315  1.0000
  F   F157      1.0  0.87468  0.37068  0.12508  1.0000
  F   F158      1.0  0.87656  0.37351  0.61424  1.0000
  F   F159      1.0  0.87327  0.86054  0.12103  1.0000
  F   F160      1.0  0.87445  0.86092  0.60843  1.0000
  F   F161      1.0  0.19519  0.24952  0.34493  1.0000
  F   F162      1.0  0.18778  0.23884  0.86179  1.0000
  F   F163      1.0  0.18828  0.75051  0.34622  1.0000
  F   F164      1.0  0.18544  0.75088  0.85159  1.0000
  F   F165      1.0  0.42863  0.24720  0.36158  1.0000
  F   F166      1.0  0.43141  0.25215  0.86776  1.0000
  F   F167      1.0  0.42380  0.74966  0.38042  1.0000
  F   F168      1.0  0.43876  0.74193  0.85057  1.0000
  F   F169      1.0  0.68366  0.24695  0.37628  1.0000
  F   F170      1.0  0.68451  0.25902  0.84916  1.0000
  F   F171      1.0  0.68859  0.74976  0.36171  1.0000
  F   F172      1.0  0.68972  0.75122  0.84980  1.0000
  F   F173      1.0  0.93789  0.25216  0.35037  1.0000
  F   F174      1.0  0.93295  0.24390  0.86553  1.0000
  F   F175      1.0  0.92933  0.74656  0.36954  1.0000
  F   F176      1.0  0.93315  0.74450  0.85436  1.0000
  F   F177      1.0  0.12660  0.13438  0.38770  1.0000
  F   F178      1.0  0.12472  0.11191  0.90264  1.0000
  F   F179      1.0  0.12528  0.65624  0.36496  1.0000
  F   F180      1.0  0.12472  0.62681  0.91678  1.0000
  F   F181      1.0  0.37803  0.13262  0.39392  1.0000
  F   F182      1.0  0.37681  0.13489  0.87551  1.0000
  F   F183      1.0  0.37920  0.62020  0.38665  1.0000
  F   F184      1.0  0.37479  0.61981  0.91249  1.0000
  F   F185      1.0  0.62692  0.12650  0.39339  1.0000
  F   F186      1.0  0.62165  0.11206  0.91335  1.0000
  F   F187      1.0  0.62934  0.64072  0.37901  1.0000
  F   F188      1.0  0.62849  0.63785  0.87090  1.0000
  F   F189      1.0  0.87465  0.14561  0.37232  1.0000
  F   F190      1.0  0.87905  0.13465  0.87771  1.0000
  F   F191      1.0  0.87253  0.61950  0.39468  1.0000
  F   F192      1.0  0.87496  0.63073  0.88898  1.0000
  F   F193      1.0  0.00534  0.37833  0.05908  1.0000
  F   F194      1.0  0.01800  0.37593  0.56021  1.0000
  F   F195      1.0  0.01170  0.86606  0.07375  1.0000
  F   F196      1.0  0.00947  0.87187  0.56859  1.0000
  F   F197      1.0  0.25559  0.36715  0.06828  1.0000
  F   F198      1.0  0.25773  0.37221  0.57599  1.0000
  F   F199      1.0  0.25738  0.86601  0.08235  1.0000
  F   F200      1.0  0.25310  0.86261  0.58735  1.0000
  F   F201      1.0  0.51205  0.36583  0.05882  1.0000
  F   F202      1.0  0.51155  0.35363  0.57463  1.0000
  F   F203      1.0  0.50988  0.85781  0.06644  1.0000
  F   F204      1.0  0.50063  0.84714  0.59039  1.0000
  F   F205      1.0  0.75968  0.35865  0.07731  1.0000
  F   F206      1.0  0.75943  0.37529  0.55838  1.0000
  F   F207      1.0  0.75483  0.86375  0.06725  1.0000
  F   F208      1.0  0.75328  0.86382  0.58291  1.0000
  F   F209      1.0  0.06927  0.48796  0.16718  1.0000
  F   F210      1.0  0.07980  0.48408  0.67180  1.0000
  F   F211      1.0  0.06473  0.99822  0.17841  1.0000
  F   F212      1.0  0.06725  0.98452  0.66868  1.0000
  F   F213      1.0  0.32100  0.49160  0.16423  1.0000
  F   F214      1.0  0.31811  0.49188  0.68169  1.0000
  F   F215      1.0  0.31841  0.98483  0.18371  1.0000
  F   F216      1.0  0.32052  0.98462  0.68736  1.0000
  F   F217      1.0  0.57334  0.48676  0.16986  1.0000
  F   F218      1.0  0.56537  0.47641  0.69267  1.0000
  F   F219      1.0  0.56613  0.98966  0.17503  1.0000
  F   F220      1.0  0.57062  0.97933  0.68274  1.0000
  F   F221      1.0  0.81233  0.48616  0.17709  1.0000
  F   F222      1.0  0.81676  0.48138  0.67803  1.0000
  F   F223      1.0  0.82237  0.98407  0.16523  1.0000
  F   F224      1.0  0.81968  0.97873  0.67983  1.0000
  F   F225      1.0  0.24642  0.13820  0.42531  1.0000
  F   F226      1.0  0.24650  0.13841  0.91745  1.0000
  F   F227      1.0  0.23412  0.62511  0.44263  1.0000
  F   F228      1.0  0.24447  0.63401  0.92803  1.0000
  F   F229      1.0  0.49010  0.15057  0.41897  1.0000
  F   F230      1.0  0.49068  0.13164  0.92259  1.0000
  F   F231      1.0  0.49165  0.65028  0.41731  1.0000
  F   F232      1.0  0.49467  0.63653  0.93854  1.0000
  F   F233      1.0  0.74384  0.14249  0.42578  1.0000
  F   F234      1.0  0.74038  0.12830  0.92808  1.0000
  F   F235      1.0  0.73879  0.63952  0.42639  1.0000
  F   F236      1.0  0.74447  0.65050  0.91445  1.0000
  F   F237      1.0  0.98759  0.12795  0.43475  1.0000
  F   F238      1.0  0.99378  0.13489  0.91003  1.0000
  F   F239      1.0  0.98746  0.63995  0.43382  1.0000
  F   F240      1.0  0.99399  0.63213  0.92145  1.0000
  F   F241      1.0  0.18345  0.01131  0.34159  1.0000
  F   F242      1.0  0.18464  0.02087  0.80755  1.0000
  F   F243      1.0  0.18152  0.50826  0.32523  1.0000
  F   F244      1.0  0.17608  0.51472  0.83856  1.0000
  F   F245      1.0  0.42576  0.01039  0.34472  1.0000
  F   F246      1.0  0.43044  0.00886  0.82935  1.0000
  F   F247      1.0  0.43757  0.51537  0.31204  1.0000
  F   F248      1.0  0.43437  0.51049  0.82586  1.0000
  F   F249      1.0  0.68085  0.01889  0.31514  1.0000
  F   F250      1.0  0.68315  0.01562  0.81543  1.0000
  F   F251      1.0  0.67967  0.52007  0.32425  1.0000
  F   F252      1.0  0.68750  0.51788  0.80370  1.0000
  F   F253      1.0  0.92918  0.01457  0.33355  1.0000
  F   F254      1.0  0.92909  0.01436  0.82483  1.0000
  F   F255      1.0  0.92911  0.51580  0.31473  1.0000
  F   F256      1.0  0.93102  0.51725  0.82048  1.0000
  F   F257      1.0  0.99713  0.23410  0.99904  1.0000
  F   F258      1.0  0.99821  0.24689  0.50757  1.0000
  F   F259      1.0  0.99773  0.74012  0.00417  1.0000
  F   F260      1.0  0.00183  0.76049  0.49997  1.0000
  F   F261      1.0  0.24624  0.23081  0.00674  1.0000
  F   F262      1.0  0.25109  0.25613  0.49947  1.0000
  F   F263      1.0  0.25082  0.75378  0.00360  1.0000
  F   F264      1.0  0.25290  0.76285  0.48968  1.0000
  F   F265      1.0  0.49367  0.23866  0.00986  1.0000
  F   F266      1.0  0.50173  0.26183  0.49400  1.0000
  F   F267      1.0  0.49668  0.72842  0.01557  1.0000
  F   F268      1.0  0.50453  0.74502  0.49842  1.0000
  F   F269      1.0  0.75156  0.24224  0.00739  1.0000
  F   F270      1.0  0.75092  0.25405  0.50197  1.0000
  F   F271      1.0  0.75181  0.76104  0.98932  1.0000
  F   F272      1.0  0.75301  0.76447  0.48988  1.0000
  F   F273      1.0  0.12686  0.00752  0.25194  1.0000
  F   F274      1.0  0.11995  0.00220  0.75269  1.0000
  F   F275      1.0  0.12451  0.50177  0.25887  1.0000
  F   F276      1.0  0.13560  0.50111  0.73591  1.0000
  F   F277      1.0  0.37658  0.00892  0.25459  1.0000
  F   F278      1.0  0.38208  0.99612  0.74447  1.0000
  F   F279      1.0  0.38408  0.50487  0.22578  1.0000
  F   F280      1.0  0.37714  0.50203  0.74560  1.0000
  F   F281      1.0  0.62570  0.99523  0.23976  1.0000
  F   F282      1.0  0.62064  0.00254  0.76233  1.0000
  F   F283      1.0  0.62909  0.49069  0.24029  1.0000
  F   F284      1.0  0.61499  0.50252  0.76559  1.0000
  F   F285      1.0  0.87668  0.99622  0.25433  1.0000
  F   F286      1.0  0.87414  0.99845  0.75158  1.0000
  F   F287      1.0  0.86134  0.48828  0.26303  1.0000
  F   F288      1.0  0.87587  0.49836  0.75164  1.0000
  F   F289      1.0  0.04045  0.03383  0.01832  1.0000
  F   F290      1.0  0.03658  0.03310  0.52932  1.0000
  F   F291      1.0  0.04210  0.52778  0.01654  1.0000
  F   F292      1.0  0.05020  0.54934  0.51098  1.0000
  F   F293      1.0  0.29450  0.02921  0.02315  1.0000
  F   F294      1.0  0.29534  0.02070  0.50930  1.0000
  F   F295      1.0  0.28781  0.53377  0.02349  1.0000
  F   F296      1.0  0.29479  0.53001  0.53112  1.0000
  F   F297      1.0  0.54122  0.03127  0.02176  1.0000
  F   F298      1.0  0.53037  0.03591  0.53043  1.0000
  F   F299      1.0  0.55401  0.53127  0.00051  1.0000
  F   F300      1.0  0.54881  0.53043  0.51013  1.0000
  F   F301      1.0  0.79448  0.03638  0.01402  1.0000
  F   F302      1.0  0.79716  0.02905  0.51798  1.0000
  F   F303      1.0  0.79722  0.53517  0.00854  1.0000
  F   F304      1.0  0.78715  0.53382  0.51643  1.0000
  F   F305      1.0  0.23910  0.41203  0.21629  1.0000
  F   F306      1.0  0.23479  0.40614  0.74220  1.0000
  F   F307      1.0  0.22827  0.92704  0.22421  1.0000
  F   F308      1.0  0.23651  0.91647  0.72651  1.0000
  F   F309      1.0  0.49101  0.40450  0.22599  1.0000
  F   F310      1.0  0.48631  0.41667  0.72405  1.0000
  F   F311      1.0  0.48706  0.90304  0.23257  1.0000
  F   F312      1.0  0.48402  0.91258  0.72590  1.0000
  F   F313      1.0  0.72984  0.41077  0.21595  1.0000
  F   F314      1.0  0.73216  0.41971  0.72056  1.0000
  F   F315      1.0  0.73491  0.92579  0.21781  1.0000
  F   F316      1.0  0.74012  0.92969  0.70616  1.0000
  F   F317      1.0  0.98529  0.40512  0.22319  1.0000
  F   F318      1.0  0.99081  0.43015  0.71555  1.0000
  F   F319      1.0  0.98200  0.92505  0.22194  1.0000
  F   F320      1.0  0.97973  0.90009  0.73590  1.0000
  F   F321      1.0  0.20168  0.45571  0.48222  1.0000
  F   F322      1.0  0.20335  0.46827  0.99039  1.0000
  F   F323      1.0  0.21008  0.96723  0.48047  1.0000
  F   F324      1.0  0.21360  0.96088  0.97525  1.0000
  F   F325      1.0  0.45401  0.47040  0.48289  1.0000
  F   F326      1.0  0.45845  0.48134  0.98410  1.0000
  F   F327      1.0  0.45029  0.97369  0.49052  1.0000
  F   F328      1.0  0.45355  0.96849  0.97780  1.0000
  F   F329      1.0  0.69989  0.47353  0.48877  1.0000
  F   F330      1.0  0.71129  0.47062  0.98486  1.0000
  F   F331      1.0  0.71302  0.96530  0.47207  1.0000
  F   F332      1.0  0.70307  0.97920  0.97222  1.0000
  F   F333      1.0  0.95558  0.47220  0.46614  1.0000
  F   F334      1.0  0.95287  0.47848  0.97533  1.0000
  F   F335      1.0  0.95546  0.96898  0.48204  1.0000
  F   F336      1.0  0.95871  0.96352  0.98019  1.0000
  F   F337      1.0  0.01483  0.09089  0.26929  1.0000
  F   F338      1.0  0.02115  0.08404  0.76969  1.0000
  F   F339      1.0  0.01030  0.58485  0.27153  1.0000
  F   F340      1.0  0.01289  0.59278  0.76163  1.0000
  F   F341      1.0  0.27068  0.08825  0.26551  1.0000
  F   F342      1.0  0.26543  0.09517  0.76133  1.0000
  F   F343      1.0  0.25916  0.58169  0.27240  1.0000
  F   F344      1.0  0.26472  0.58644  0.76806  1.0000
  F   F345      1.0  0.51472  0.07051  0.28769  1.0000
  F   F346      1.0  0.51631  0.08421  0.76538  1.0000
  F   F347      1.0  0.51780  0.56917  0.27358  1.0000
  F   F348      1.0  0.51687  0.59659  0.76749  1.0000
  F   F349      1.0  0.76535  0.08916  0.27095  1.0000
  F   F350      1.0  0.76138  0.09762  0.76257  1.0000
  F   F351      1.0  0.76633  0.58628  0.27406  1.0000
  F   F352      1.0  0.76627  0.59125  0.77009  1.0000
  F   F353      1.0  0.10614  0.42196  0.46269  1.0000
  F   F354      1.0  0.10058  0.40797  0.96321  1.0000
  F   F355      1.0  0.09956  0.90102  0.46252  1.0000
  F   F356      1.0  0.10317  0.90470  0.95836  1.0000
  F   F357      1.0  0.35313  0.41040  0.46082  1.0000
  F   F358      1.0  0.34983  0.41959  0.95877  1.0000
  F   F359      1.0  0.34510  0.88586  0.45469  1.0000
  F   F360      1.0  0.34866  0.89689  0.96529  1.0000
  F   F361      1.0  0.60257  0.40841  0.45931  1.0000
  F   F362      1.0  0.60241  0.39441  0.95751  1.0000
  F   F363      1.0  0.59906  0.91917  0.46402  1.0000
  F   F364      1.0  0.59993  0.91039  0.96066  1.0000
  F   F365      1.0  0.85328  0.41172  0.46658  1.0000
  F   F366      1.0  0.85103  0.40417  0.96471  1.0000
  F   F367      1.0  0.85274  0.88199  0.46068  1.0000
  F   F368      1.0  0.85533  0.90236  0.96052  1.0000
  F   F369      1.0  0.04681  0.30342  0.30091  1.0000
  F   F370      1.0  0.04061  0.30846  0.79119  1.0000
  F   F371      1.0  0.04306  0.79886  0.28776  1.0000
  F   F372      1.0  0.04516  0.80528  0.79521  1.0000
  F   F373      1.0  0.30561  0.30683  0.28482  1.0000
  F   F374      1.0  0.30294  0.29891  0.77992  1.0000
  F   F375      1.0  0.28470  0.80235  0.29584  1.0000
  F   F376      1.0  0.29750  0.79704  0.79473  1.0000
  F   F377      1.0  0.55710  0.29947  0.27754  1.0000
  F   F378      1.0  0.54470  0.29635  0.79903  1.0000
  F   F379      1.0  0.55746  0.79520  0.28127  1.0000
  F   F380      1.0  0.54229  0.80343  0.79458  1.0000
  F   F381      1.0  0.79428  0.30135  0.29228  1.0000
  F   F382      1.0  0.78819  0.29300  0.80414  1.0000
  F   F383      1.0  0.79334  0.80310  0.27897  1.0000
  F   F384      1.0  0.79646  0.80028  0.78516  1.0000
