data_image0
_chemical_formula_structural       Hf96F384
_chemical_formula_sum              "Hf96 F384"
_cell_length_a       31.0536
_cell_length_b       15.5271
_cell_length_c       15.5202
_cell_angle_alpha    63.342
_cell_angle_beta     63.342
_cell_angle_gamma    80.1625

_space_group_name_H-M_alt    "P 1"
_space_group_IT_number       1

loop_
  _space_group_symop_operation_xyz
  'x, y, z'

loop_
  _atom_site_type_symbol
  _atom_site_label
  _atom_site_symmetry_multiplicity
  _atom_site_fract_x
  _atom_site_fract_y
  _atom_site_fract_z
  _atom_site_occupancy
  Hf  Hf1       1.0  0.19726  0.11066  0.37443  1.0000
  Hf  Hf2       1.0  0.19969  0.11513  0.86576  1.0000
  Hf  Hf3       1.0  0.19311  0.62088  0.37476  1.0000
  Hf  Hf4       1.0  0.19829  0.61331  0.86764  1.0000
  Hf  Hf5       1.0  0.44262  0.10436  0.38336  1.0000
  Hf  Hf6       1.0  0.44485  0.10766  0.87676  1.0000
  Hf  Hf7       1.0  0.44550  0.60201  0.37418  1.0000
  Hf  Hf8       1.0  0.44538  0.60551  0.87573  1.0000
  Hf  Hf9       1.0  0.70329  0.10214  0.36954  1.0000
  Hf  Hf10      1.0  0.69484  0.10702  0.87813  1.0000
  Hf  Hf11      1.0  0.69811  0.60254  0.37795  1.0000
  Hf  Hf12      1.0  0.69620  0.60236  0.87233  1.0000
  Hf  Hf13      1.0  0.95142  0.10173  0.36667  1.0000
  Hf  Hf14      1.0  0.94711  0.11056  0.87258  1.0000
  Hf  Hf15      1.0  0.94614  0.60290  0.37906  1.0000
  Hf  Hf16      1.0  0.94604  0.60985  0.87625  1.0000
  Hf  Hf17      1.0  0.05300  0.39493  0.12735  1.0000
  Hf  Hf18      1.0  0.05592  0.39125  0.62727  1.0000
  Hf  Hf19      1.0  0.05608  0.89911  0.11828  1.0000
  Hf  Hf20      1.0  0.05263  0.89640  0.61645  1.0000
  Hf  Hf21      1.0  0.30096  0.39720  0.12537  1.0000
  Hf  Hf22      1.0  0.30354  0.39323  0.62693  1.0000
  Hf  Hf23      1.0  0.30573  0.90737  0.10224  1.0000
  Hf  Hf24      1.0  0.30484  0.89183  0.62178  1.0000
  Hf  Hf25      1.0  0.55168  0.39774  0.12087  1.0000
  Hf  Hf26      1.0  0.55447  0.38823  0.62340  1.0000
  Hf  Hf27      1.0  0.55356  0.88763  0.12326  1.0000
  Hf  Hf28      1.0  0.55375  0.88611  0.62744  1.0000
  Hf  Hf29      1.0  0.80814  0.39241  0.11742  1.0000
  Hf  Hf30      1.0  0.80212  0.38397  0.63612  1.0000
  Hf  Hf31      1.0  0.79827  0.88438  0.13625  1.0000
  Hf  Hf32      1.0  0.80467  0.88917  0.62973  1.0000
  Hf  Hf33      1.0  0.05653  0.19227  0.41054  1.0000
  Hf  Hf34      1.0  0.05787  0.18241  0.91800  1.0000
  Hf  Hf35      1.0  0.05516  0.69008  0.41215  1.0000
  Hf  Hf36      1.0  0.05756  0.69019  0.91362  1.0000
  Hf  Hf37      1.0  0.30430  0.19133  0.41686  1.0000
  Hf  Hf38      1.0  0.30824  0.18958  0.90904  1.0000
  Hf  Hf39      1.0  0.30454  0.67633  0.42772  1.0000
  Hf  Hf40      1.0  0.30200  0.69039  0.91580  1.0000
  Hf  Hf41      1.0  0.55706  0.17420  0.41755  1.0000
  Hf  Hf42      1.0  0.55357  0.18548  0.90919  1.0000
  Hf  Hf43      1.0  0.55853  0.67625  0.41665  1.0000
  Hf  Hf44      1.0  0.54912  0.68253  0.91913  1.0000
  Hf  Hf45      1.0  0.80767  0.17628  0.42162  1.0000
  Hf  Hf46      1.0  0.81102  0.17903  0.91676  1.0000
  Hf  Hf47      1.0  0.80261  0.67698  0.42210  1.0000
  Hf  Hf48      1.0  0.80401  0.68094  0.91867  1.0000
  Hf  Hf49      1.0  0.15711  0.39845  0.33636  1.0000
  Hf  Hf50      1.0  0.15892  0.38786  0.83747  1.0000
  Hf  Hf51      1.0  0.15610  0.89448  0.32590  1.0000
  Hf  Hf52      1.0  0.16208  0.89868  0.82257  1.0000
  Hf  Hf53      1.0  0.40763  0.40105  0.32891  1.0000
  Hf  Hf54      1.0  0.41185  0.38631  0.82900  1.0000
  Hf  Hf55      1.0  0.41053  0.88709  0.33240  1.0000
  Hf  Hf56      1.0  0.40660  0.88966  0.82100  1.0000
  Hf  Hf57      1.0  0.66489  0.37979  0.33047  1.0000
  Hf  Hf58      1.0  0.65751  0.38376  0.83942  1.0000
  Hf  Hf59      1.0  0.65783  0.88901  0.33763  1.0000
  Hf  Hf60      1.0  0.65895  0.88449  0.83221  1.0000
  Hf  Hf61      1.0  0.90344  0.37913  0.34086  1.0000
  Hf  Hf62      1.0  0.91051  0.38926  0.82969  1.0000
  Hf  Hf63      1.0  0.90713  0.88410  0.33615  1.0000
  Hf  Hf64      1.0  0.90925  0.88935  0.83336  1.0000
  Hf  Hf65      1.0  0.19388  0.32474  0.07955  1.0000
  Hf  Hf66      1.0  0.19635  0.32200  0.58952  1.0000
  Hf  Hf67      1.0  0.19075  0.81184  0.08486  1.0000
  Hf  Hf68      1.0  0.18997  0.82862  0.57836  1.0000
  Hf  Hf69      1.0  0.44330  0.32002  0.08421  1.0000
  Hf  Hf70      1.0  0.44520  0.31269  0.58147  1.0000
  Hf  Hf71      1.0  0.44190  0.81974  0.07966  1.0000
  Hf  Hf72      1.0  0.44439  0.80881  0.58234  1.0000
  Hf  Hf73      1.0  0.69810  0.30826  0.07908  1.0000
  Hf  Hf74      1.0  0.69861  0.30951  0.58552  1.0000
  Hf  Hf75      1.0  0.69048  0.81960  0.09095  1.0000
  Hf  Hf76      1.0  0.69562  0.80836  0.58432  1.0000
  Hf  Hf77      1.0  0.94501  0.31652  0.08117  1.0000
  Hf  Hf78      1.0  0.94335  0.31895  0.58475  1.0000
  Hf  Hf79      1.0  0.94266  0.82240  0.08094  1.0000
  Hf  Hf80      1.0  0.94310  0.81683  0.58667  1.0000
  Hf  Hf81      1.0  0.09365  0.11596  0.16378  1.0000
  Hf  Hf82      1.0  0.08780  0.10913  0.66679  1.0000
  Hf  Hf83      1.0  0.08891  0.61115  0.17043  1.0000
  Hf  Hf84      1.0  0.08929  0.61464  0.67038  1.0000
  Hf  Hf85      1.0  0.34034  0.10652  0.18158  1.0000
  Hf  Hf86      1.0  0.34012  0.11957  0.66440  1.0000
  Hf  Hf87      1.0  0.33471  0.62670  0.16233  1.0000
  Hf  Hf88      1.0  0.34428  0.60736  0.67413  1.0000
  Hf  Hf89      1.0  0.59051  0.11136  0.16232  1.0000
  Hf  Hf90      1.0  0.59237  0.10959  0.66381  1.0000
  Hf  Hf91      1.0  0.59231  0.60088  0.16905  1.0000
  Hf  Hf92      1.0  0.59248  0.60358  0.66738  1.0000
  Hf  Hf93      1.0  0.84761  0.11638  0.15763  1.0000
  Hf  Hf94      1.0  0.84246  0.11353  0.67014  1.0000
  Hf  Hf95      1.0  0.84352  0.60745  0.17353  1.0000
  Hf  Hf96      1.0  0.83888  0.60556  0.66962  1.0000
  F   F1        1.0  0.08822  0.15739  0.28780  1.0000
  F   F2        1.0  0.08475  0.15013  0.79867  1.0000
  F   F3        1.0  0.07784  0.62679  0.30514  1.0000
  F   F4        1.0  0.08009  0.64452  0.79854  1.0000
  F   F5        1.0  0.33630  0.13202  0.30839  1.0000
  F   F6        1.0  0.32900  0.12637  0.80068  1.0000
  F   F7        1.0  0.32821  0.63407  0.30175  1.0000
  F   F8        1.0  0.32555  0.64070  0.80205  1.0000
  F   F9        1.0  0.57877  0.11519  0.30527  1.0000
  F   F10       1.0  0.57854  0.12311  0.80616  1.0000
  F   F11       1.0  0.58881  0.62366  0.29918  1.0000
  F   F12       1.0  0.57682  0.63374  0.80546  1.0000
  F   F13       1.0  0.83641  0.15225  0.28854  1.0000
  F   F14       1.0  0.82869  0.10688  0.82521  1.0000
  F   F15       1.0  0.82729  0.60796  0.32959  1.0000
  F   F16       1.0  0.82807  0.63145  0.79949  1.0000
  F   F17       1.0  0.18317  0.35486  0.44949  1.0000
  F   F18       1.0  0.18910  0.35432  0.93923  1.0000
  F   F19       1.0  0.18453  0.85180  0.43919  1.0000
  F   F20       1.0  0.18474  0.84217  0.94478  1.0000
  F   F21       1.0  0.43572  0.33673  0.43937  1.0000
  F   F22       1.0  0.44264  0.34480  0.93051  1.0000
  F   F23       1.0  0.42609  0.83253  0.45640  1.0000
  F   F24       1.0  0.43175  0.83523  0.94166  1.0000
  F   F25       1.0  0.69675  0.32982  0.44749  1.0000
  F   F26       1.0  0.67795  0.33546  0.95942  1.0000
  F   F27       1.0  0.68620  0.84063  0.44635  1.0000
  F   F28       1.0  0.68814  0.84537  0.94345  1.0000
  F   F29       1.0  0.93836  0.34424  0.44390  1.0000
  F   F30       1.0  0.93827  0.33870  0.94197  1.0000
  F   F31       1.0  0.93339  0.84458  0.45956  1.0000
  F   F32       1.0  0.93042  0.83522  0.95027  1.0000
  F   F33       1.0  0.17080  0.37377  0.20647  1.0000
  F   F34       1.0  0.17607  0.37663  0.69589  1.0000
  F   F35       1.0  0.16988  0.87147  0.19195  1.0000
  F   F36       1.0  0.16440  0.88528  0.69731  1.0000
  F   F37       1.0  0.42128  0.38332  0.19397  1.0000
  F   F38       1.0  0.42055  0.36860  0.70052  1.0000
  F   F39       1.0  0.41714  0.86435  0.19914  1.0000
  F   F40       1.0  0.42433  0.85397  0.69692  1.0000
  F   F41       1.0  0.67693  0.34540  0.20950  1.0000
  F   F42       1.0  0.67141  0.37236  0.69662  1.0000
  F   F43       1.0  0.67363  0.87161  0.19497  1.0000
  F   F44       1.0  0.66954  0.86094  0.70651  1.0000
  F   F45       1.0  0.91951  0.36275  0.20011  1.0000
  F   F46       1.0  0.91943  0.38073  0.69390  1.0000
  F   F47       1.0  0.92087  0.88099  0.19349  1.0000
  F   F48       1.0  0.91756  0.85051  0.71303  1.0000
  F   F49       1.0  0.06378  0.16612  0.05315  1.0000
  F   F50       1.0  0.06143  0.15662  0.55750  1.0000
  F   F51       1.0  0.06408  0.66548  0.05432  1.0000
  F   F52       1.0  0.06860  0.67493  0.53291  1.0000
  F   F53       1.0  0.32156  0.14671  0.06320  1.0000
  F   F54       1.0  0.30480  0.16412  0.56563  1.0000
  F   F55       1.0  0.31246  0.67775  0.03978  1.0000
  F   F56       1.0  0.31750  0.65777  0.56365  1.0000
  F   F57       1.0  0.56316  0.15728  0.05833  1.0000
  F   F58       1.0  0.55853  0.13784  0.57087  1.0000
  F   F59       1.0  0.56973  0.65922  0.04842  1.0000
  F   F60       1.0  0.56352  0.65278  0.55392  1.0000
  F   F61       1.0  0.81907  0.15147  0.04260  1.0000
  F   F62       1.0  0.81331  0.15635  0.55418  1.0000
  F   F63       1.0  0.82056  0.65765  0.04915  1.0000
  F   F64       1.0  0.80280  0.64812  0.56564  1.0000
  F   F65       1.0  0.20071  0.20864  0.22190  1.0000
  F   F66       1.0  0.21143  0.20777  0.70907  1.0000
  F   F67       1.0  0.20100  0.70227  0.20586  1.0000
  F   F68       1.0  0.19943  0.72470  0.69655  1.0000
  F   F69       1.0  0.45021  0.20779  0.19612  1.0000
  F   F70       1.0  0.45179  0.19365  0.71601  1.0000
  F   F71       1.0  0.44828  0.70994  0.22291  1.0000
  F   F72       1.0  0.45819  0.69678  0.71166  1.0000
  F   F73       1.0  0.71073  0.18036  0.19350  1.0000
  F   F74       1.0  0.69968  0.19983  0.71724  1.0000
  F   F75       1.0  0.70687  0.69216  0.21776  1.0000
  F   F76       1.0  0.70531  0.69662  0.71404  1.0000
  F   F77       1.0  0.95989  0.19222  0.20414  1.0000
  F   F78       1.0  0.94896  0.19830  0.71695  1.0000
  F   F79       1.0  0.94892  0.70851  0.21179  1.0000
  F   F80       1.0  0.95849  0.69635  0.70918  1.0000
  F   F81       1.0  0.14963  0.09896  0.04693  1.0000
  F   F82       1.0  0.14887  0.09562  0.54794  1.0000
  F   F83       1.0  0.14512  0.59226  0.03817  1.0000
  F   F84       1.0  0.14724  0.60507  0.53739  1.0000
  F   F85       1.0  0.40872  0.06455  0.03757  1.0000
  F   F86       1.0  0.40049  0.08600  0.53689  1.0000
  F   F87       1.0  0.38681  0.61101  0.04324  1.0000
  F   F88       1.0  0.40325  0.59371  0.53378  1.0000
  F   F89       1.0  0.64558  0.07965  0.04463  1.0000
  F   F90       1.0  0.64983  0.09443  0.53986  1.0000
  F   F91       1.0  0.65309  0.58136  0.03451  1.0000
  F   F92       1.0  0.64823  0.58802  0.54105  1.0000
  F   F93       1.0  0.90236  0.10037  0.03579  1.0000
  F   F94       1.0  0.89956  0.11169  0.54321  1.0000
  F   F95       1.0  0.89964  0.57650  0.04019  1.0000
  F   F96       1.0  0.89674  0.59799  0.55067  1.0000
  F   F97       1.0  0.15509  0.21519  0.10858  1.0000
  F   F98       1.0  0.15907  0.19638  0.63971  1.0000
  F   F99       1.0  0.14321  0.69538  0.12962  1.0000
  F   F100      1.0  0.14930  0.70554  0.62025  1.0000
  F   F101      1.0  0.40135  0.20197  0.10017  1.0000
  F   F102      1.0  0.40090  0.19346  0.61974  1.0000
  F   F103      1.0  0.39312  0.71335  0.12281  1.0000
  F   F104      1.0  0.40490  0.68635  0.63307  1.0000
  F   F105      1.0  0.65350  0.19290  0.12865  1.0000
  F   F106      1.0  0.65377  0.19667  0.62407  1.0000
  F   F107      1.0  0.64927  0.69575  0.13801  1.0000
  F   F108      1.0  0.65273  0.69475  0.61955  1.0000
  F   F109      1.0  0.90893  0.20335  0.11340  1.0000
  F   F110      1.0  0.90453  0.18620  0.63558  1.0000
  F   F111      1.0  0.90202  0.69480  0.12362  1.0000
  F   F112      1.0  0.90124  0.69700  0.62563  1.0000
  F   F113      1.0  0.08991  0.31556  0.38347  1.0000
  F   F114      1.0  0.10108  0.31339  0.86199  1.0000
  F   F115      1.0  0.10149  0.81769  0.36567  1.0000
  F   F116      1.0  0.09909  0.80247  0.87375  1.0000
  F   F117      1.0  0.35260  0.29075  0.39846  1.0000
  F   F118      1.0  0.35275  0.30271  0.86874  1.0000
  F   F119      1.0  0.35231  0.80132  0.38932  1.0000
  F   F120      1.0  0.35675  0.80552  0.84816  1.0000
  F   F121      1.0  0.60332  0.28257  0.38732  1.0000
  F   F122      1.0  0.59843  0.29862  0.86515  1.0000
  F   F123      1.0  0.59783  0.80109  0.37398  1.0000
  F   F124      1.0  0.58806  0.81076  0.89003  1.0000
  F   F125      1.0  0.85011  0.29851  0.36872  1.0000
  F   F126      1.0  0.85197  0.29424  0.86578  1.0000
  F   F127      1.0  0.84634  0.80190  0.36456  1.0000
  F   F128      1.0  0.84415  0.80735  0.88085  1.0000
  F   F129      1.0  0.06535  0.25459  0.14694  1.0000
  F   F130      1.0  0.06960  0.25106  0.64388  1.0000
  F   F131      1.0  0.06547  0.76377  0.13706  1.0000
  F   F132      1.0  0.05288  0.75229  0.64982  1.0000
  F   F133      1.0  0.31342  0.24687  0.16195  1.0000
  F   F134      1.0  0.30541  0.26104  0.64630  1.0000
  F   F135      1.0  0.30411  0.76400  0.15057  1.0000
  F   F136      1.0  0.31344  0.75814  0.64028  1.0000
  F   F137      1.0  0.56297  0.25570  0.14853  1.0000
  F   F138      1.0  0.57498  0.25436  0.62350  1.0000
  F   F139      1.0  0.57279  0.74511  0.14317  1.0000
  F   F140      1.0  0.57371  0.74802  0.62525  1.0000
  F   F141      1.0  0.82770  0.25291  0.10340  1.0000
  F   F142      1.0  0.82609  0.24906  0.62194  1.0000
  F   F143      1.0  0.81447  0.74809  0.13949  1.0000
  F   F144      1.0  0.81094  0.74592  0.64856  1.0000
  F   F145      1.0  0.12427  0.37444  0.11996  1.0000
  F   F146      1.0  0.12189  0.37400  0.62538  1.0000
  F   F147      1.0  0.12476  0.87743  0.09941  1.0000
  F   F148      1.0  0.12139  0.86483  0.61323  1.0000
  F   F149      1.0  0.37291  0.38174  0.10374  1.0000
  F   F150      1.0  0.37436  0.34360  0.62055  1.0000
  F   F151      1.0  0.37540  0.88770  0.08535  1.0000
  F   F152      1.0  0.37312  0.86119  0.62043  1.0000
  F   F153      1.0  0.62087  0.37046  0.11106  1.0000
  F   F154      1.0  0.62777  0.37055  0.60714  1.0000
  F   F155      1.0  0.62493  0.87850  0.09642  1.0000
  F   F156      1.0  0.62315  0.87169  0.61488  1.0000
  F   F157      1.0  0.87306  0.37058  0.10595  1.0000
  F   F158      1.0  0.87273  0.35507  0.62171  1.0000
  F   F159      1.0  0.87405  0.85405  0.12026  1.0000
  F   F160      1.0  0.87278  0.86984  0.61386  1.0000
  F   F161      1.0  0.17314  0.25290  0.37962  1.0000
  F   F162      1.0  0.18408  0.24976  0.87745  1.0000
  F   F163      1.0  0.18154  0.75891  0.35809  1.0000
  F   F164      1.0  0.18947  0.75939  0.84102  1.0000
  F   F165      1.0  0.44033  0.24495  0.34935  1.0000
  F   F166      1.0  0.43373  0.23628  0.87683  1.0000
  F   F167      1.0  0.44234  0.74507  0.34721  1.0000
  F   F168      1.0  0.43859  0.74565  0.84680  1.0000
  F   F169      1.0  0.69129  0.24105  0.36325  1.0000
  F   F170      1.0  0.68362  0.24544  0.85726  1.0000
  F   F171      1.0  0.68915  0.74965  0.35324  1.0000
  F   F172      1.0  0.68321  0.74835  0.85979  1.0000
  F   F173      1.0  0.93323  0.24153  0.36540  1.0000
  F   F174      1.0  0.92989  0.23850  0.86984  1.0000
  F   F175      1.0  0.93815  0.74946  0.35180  1.0000
  F   F176      1.0  0.93750  0.74325  0.85514  1.0000
  F   F177      1.0  0.12060  0.11182  0.41290  1.0000
  F   F178      1.0  0.12870  0.12347  0.90917  1.0000
  F   F179      1.0  0.12878  0.64905  0.37055  1.0000
  F   F180      1.0  0.12832  0.62349  0.88790  1.0000
  F   F181      1.0  0.37221  0.12319  0.40390  1.0000
  F   F182      1.0  0.37648  0.13585  0.87805  1.0000
  F   F183      1.0  0.37345  0.61484  0.40757  1.0000
  F   F184      1.0  0.37090  0.61749  0.89983  1.0000
  F   F185      1.0  0.62806  0.12405  0.38293  1.0000
  F   F186      1.0  0.62064  0.12291  0.89159  1.0000
  F   F187      1.0  0.62856  0.64419  0.38557  1.0000
  F   F188      1.0  0.62783  0.64173  0.88372  1.0000
  F   F189      1.0  0.88220  0.11783  0.39608  1.0000
  F   F190      1.0  0.87846  0.12001  0.89865  1.0000
  F   F191      1.0  0.87081  0.61121  0.42822  1.0000
  F   F192      1.0  0.87786  0.63808  0.87927  1.0000
  F   F193      1.0  0.00990  0.35294  0.08091  1.0000
  F   F194      1.0  0.00554  0.36796  0.58159  1.0000
  F   F195      1.0  0.00884  0.87787  0.07244  1.0000
  F   F196      1.0  0.00753  0.87005  0.56966  1.0000
  F   F197      1.0  0.26478  0.35374  0.07665  1.0000
  F   F198      1.0  0.26005  0.37486  0.55993  1.0000
  F   F199      1.0  0.25463  0.86898  0.05436  1.0000
  F   F200      1.0  0.25869  0.87265  0.55448  1.0000
  F   F201      1.0  0.50824  0.36248  0.06910  1.0000
  F   F202      1.0  0.50393  0.35788  0.58677  1.0000
  F   F203      1.0  0.50743  0.84780  0.08183  1.0000
  F   F204      1.0  0.51099  0.85206  0.58018  1.0000
  F   F205      1.0  0.75900  0.36827  0.06243  1.0000
  F   F206      1.0  0.75946  0.34027  0.59237  1.0000
  F   F207      1.0  0.75654  0.85520  0.07728  1.0000
  F   F208      1.0  0.75683  0.86456  0.58169  1.0000
  F   F209      1.0  0.07269  0.48481  0.17354  1.0000
  F   F210      1.0  0.06503  0.49454  0.68283  1.0000
  F   F211      1.0  0.06689  0.99483  0.17061  1.0000
  F   F212      1.0  0.06639  0.98083  0.68331  1.0000
  F   F213      1.0  0.31635  0.50193  0.17529  1.0000
  F   F214      1.0  0.33254  0.48077  0.66193  1.0000
  F   F215      1.0  0.32121  0.98064  0.17900  1.0000
  F   F216      1.0  0.32104  0.99860  0.65944  1.0000
  F   F217      1.0  0.56165  0.47915  0.18142  1.0000
  F   F218      1.0  0.56526  0.48363  0.67247  1.0000
  F   F219      1.0  0.56227  0.97928  0.18970  1.0000
  F   F220      1.0  0.56485  0.96992  0.68656  1.0000
  F   F221      1.0  0.82727  0.48244  0.17537  1.0000
  F   F222      1.0  0.82046  0.47220  0.68758  1.0000
  F   F223      1.0  0.82053  0.98158  0.18226  1.0000
  F   F224      1.0  0.82163  0.98936  0.68196  1.0000
  F   F225      1.0  0.24443  0.16042  0.40116  1.0000
  F   F226      1.0  0.24742  0.15274  0.90293  1.0000
  F   F227      1.0  0.24468  0.64040  0.41515  1.0000
  F   F228      1.0  0.23663  0.63583  0.93336  1.0000
  F   F229      1.0  0.48838  0.13522  0.43463  1.0000
  F   F230      1.0  0.49327  0.12768  0.94090  1.0000
  F   F231      1.0  0.49265  0.64082  0.41757  1.0000
  F   F232      1.0  0.48592  0.62602  0.94969  1.0000
  F   F233      1.0  0.74662  0.11272  0.44295  1.0000
  F   F234      1.0  0.74199  0.13310  0.94124  1.0000
  F   F235      1.0  0.73937  0.63897  0.44029  1.0000
  F   F236      1.0  0.74536  0.63813  0.92266  1.0000
  F   F237      1.0  0.99712  0.13905  0.41296  1.0000
  F   F238      1.0  0.99400  0.15458  0.90604  1.0000
  F   F239      1.0  0.98775  0.62564  0.43805  1.0000
  F   F240      1.0  0.99791  0.64220  0.92540  1.0000
  F   F241      1.0  0.18356  0.02132  0.31170  1.0000
  F   F242      1.0  0.18233  0.03188  0.81065  1.0000
  F   F243      1.0  0.17694  0.52179  0.33023  1.0000
  F   F244      1.0  0.18098  0.52136  0.81780  1.0000
  F   F245      1.0  0.43244  0.01523  0.32989  1.0000
  F   F246      1.0  0.42130  0.00792  0.85174  1.0000
  F   F247      1.0  0.43494  0.52590  0.30139  1.0000
  F   F248      1.0  0.43232  0.51179  0.82201  1.0000
  F   F249      1.0  0.68771  0.00938  0.32948  1.0000
  F   F250      1.0  0.68477  0.01737  0.82500  1.0000
  F   F251      1.0  0.68583  0.50713  0.32654  1.0000
  F   F252      1.0  0.67375  0.51975  0.82452  1.0000
  F   F253      1.0  0.92934  0.01331  0.31235  1.0000
  F   F254      1.0  0.93530  0.00764  0.82963  1.0000
  F   F255      1.0  0.92484  0.51489  0.33544  1.0000
  F   F256      1.0  0.93592  0.51538  0.83471  1.0000
  F   F257      1.0  0.01030  0.27812  0.95726  1.0000
  F   F258      1.0  0.99644  0.24130  0.51353  1.0000
  F   F259      1.0  0.99780  0.76419  0.98623  1.0000
  F   F260      1.0  0.00015  0.75055  0.50132  1.0000
  F   F261      1.0  0.24995  0.22502  0.01767  1.0000
  F   F262      1.0  0.24960  0.26654  0.49671  1.0000
  F   F263      1.0  0.24195  0.72595  0.01766  1.0000
  F   F264      1.0  0.24506  0.73260  0.51601  1.0000
  F   F265      1.0  0.50254  0.24932  0.00888  1.0000
  F   F266      1.0  0.50249  0.25291  0.50227  1.0000
  F   F267      1.0  0.49429  0.73696  0.01204  1.0000
  F   F268      1.0  0.49894  0.72940  0.51397  1.0000
  F   F269      1.0  0.75350  0.25345  0.98677  1.0000
  F   F270      1.0  0.74620  0.21803  0.51893  1.0000
  F   F271      1.0  0.74793  0.73627  0.01255  1.0000
  F   F272      1.0  0.75429  0.76328  0.49154  1.0000
  F   F273      1.0  0.11579  0.00428  0.26580  1.0000
  F   F274      1.0  0.11304  0.99970  0.76634  1.0000
  F   F275      1.0  0.12459  0.50623  0.24982  1.0000
  F   F276      1.0  0.12000  0.49768  0.75408  1.0000
  F   F277      1.0  0.37422  0.99485  0.26431  1.0000
  F   F278      1.0  0.37769  0.00085  0.73535  1.0000
  F   F279      1.0  0.37244  0.51936  0.24818  1.0000
  F   F280      1.0  0.36983  0.49934  0.75781  1.0000
  F   F281      1.0  0.63117  0.00688  0.23938  1.0000
  F   F282      1.0  0.62471  0.99189  0.75307  1.0000
  F   F283      1.0  0.63134  0.48843  0.23464  1.0000
  F   F284      1.0  0.62164  0.49457  0.75147  1.0000
  F   F285      1.0  0.86616  0.00070  0.26786  1.0000
  F   F286      1.0  0.88048  0.99851  0.74896  1.0000
  F   F287      1.0  0.87409  0.49495  0.26233  1.0000
  F   F288      1.0  0.87966  0.50761  0.74608  1.0000
  F   F289      1.0  0.04774  0.04007  0.01306  1.0000
  F   F290      1.0  0.03524  0.02594  0.52641  1.0000
  F   F291      1.0  0.04871  0.52176  0.01584  1.0000
  F   F292      1.0  0.04834  0.53302  0.53084  1.0000
  F   F293      1.0  0.29161  0.03430  0.01886  1.0000
  F   F294      1.0  0.28384  0.04860  0.52385  1.0000
  F   F295      1.0  0.29344  0.53250  0.02249  1.0000
  F   F296      1.0  0.28882  0.53266  0.53811  1.0000
  F   F297      1.0  0.54067  0.02592  0.03684  1.0000
  F   F298      1.0  0.53908  0.02347  0.52799  1.0000
  F   F299      1.0  0.53843  0.53658  0.02616  1.0000
  F   F300      1.0  0.54920  0.52742  0.50873  1.0000
  F   F301      1.0  0.78922  0.01955  0.04178  1.0000
  F   F302      1.0  0.80717  0.01922  0.51158  1.0000
  F   F303      1.0  0.79288  0.53289  0.02060  1.0000
  F   F304      1.0  0.78320  0.51011  0.54147  1.0000
  F   F305      1.0  0.23279  0.41463  0.23261  1.0000
  F   F306      1.0  0.23789  0.41376  0.72822  1.0000
  F   F307      1.0  0.23859  0.91361  0.21364  1.0000
  F   F308      1.0  0.23406  0.93149  0.71958  1.0000
  F   F309      1.0  0.48431  0.41575  0.22284  1.0000
  F   F310      1.0  0.48702  0.40778  0.72356  1.0000
  F   F311      1.0  0.47902  0.91672  0.22011  1.0000
  F   F312      1.0  0.47967  0.91687  0.72110  1.0000
  F   F313      1.0  0.74286  0.42083  0.21246  1.0000
  F   F314      1.0  0.73236  0.41772  0.73469  1.0000
  F   F315      1.0  0.72841  0.92529  0.22590  1.0000
  F   F316      1.0  0.73369  0.92916  0.71324  1.0000
  F   F317      1.0  0.98065  0.41931  0.23031  1.0000
  F   F318      1.0  0.98157  0.40462  0.73411  1.0000
  F   F319      1.0  0.98636  0.91910  0.23924  1.0000
  F   F320      1.0  0.98346  0.90755  0.72513  1.0000
  F   F321      1.0  0.20377  0.47755  0.47481  1.0000
  F   F322      1.0  0.21122  0.46743  0.98152  1.0000
  F   F323      1.0  0.20431  0.97968  0.47270  1.0000
  F   F324      1.0  0.20098  0.97335  0.97501  1.0000
  F   F325      1.0  0.45792  0.45736  0.47536  1.0000
  F   F326      1.0  0.44874  0.47465  0.98179  1.0000
  F   F327      1.0  0.45719  0.96114  0.48526  1.0000
  F   F328      1.0  0.46904  0.96332  0.95772  1.0000
  F   F329      1.0  0.70846  0.47591  0.48293  1.0000
  F   F330      1.0  0.70459  0.46419  0.96886  1.0000
  F   F331      1.0  0.69709  0.96555  0.49466  1.0000
  F   F332      1.0  0.71470  0.96468  0.97588  1.0000
  F   F333      1.0  0.95313  0.46957  0.48261  1.0000
  F   F334      1.0  0.96280  0.46835  0.98862  1.0000
  F   F335      1.0  0.94448  0.97797  0.49050  1.0000
  F   F336      1.0  0.95383  0.96859  0.98049  1.0000
  F   F337      1.0  0.02124  0.08262  0.27203  1.0000
  F   F338      1.0  0.01893  0.07342  0.78450  1.0000
  F   F339      1.0  0.01378  0.59357  0.26244  1.0000
  F   F340      1.0  0.01594  0.58257  0.78138  1.0000
  F   F341      1.0  0.26703  0.08844  0.26788  1.0000
  F   F342      1.0  0.26930  0.06968  0.78786  1.0000
  F   F343      1.0  0.25802  0.60800  0.26882  1.0000
  F   F344      1.0  0.26652  0.58715  0.77017  1.0000
  F   F345      1.0  0.50993  0.09131  0.27520  1.0000
  F   F346      1.0  0.51493  0.08899  0.76708  1.0000
  F   F347      1.0  0.51520  0.58951  0.26024  1.0000
  F   F348      1.0  0.51573  0.58659  0.78166  1.0000
  F   F349      1.0  0.77008  0.09667  0.27017  1.0000
  F   F350      1.0  0.76354  0.11189  0.76765  1.0000
  F   F351      1.0  0.76848  0.57711  0.28259  1.0000
  F   F352      1.0  0.76257  0.56597  0.77308  1.0000
  F   F353      1.0  0.09933  0.41581  0.46430  1.0000
  F   F354      1.0  0.09883  0.41192  0.96782  1.0000
  F   F355      1.0  0.09679  0.90493  0.46281  1.0000
  F   F356      1.0  0.09723  0.91077  0.95112  1.0000
  F   F357      1.0  0.35740  0.41195  0.46280  1.0000
  F   F358      1.0  0.35364  0.40909  0.95489  1.0000
  F   F359      1.0  0.35181  0.92651  0.46773  1.0000
  F   F360      1.0  0.34266  0.90024  0.95557  1.0000
  F   F361      1.0  0.60666  0.40040  0.45163  1.0000
  F   F362      1.0  0.60163  0.40407  0.95706  1.0000
  F   F363      1.0  0.60503  0.91191  0.45487  1.0000
  F   F364      1.0  0.60209  0.91698  0.95839  1.0000
  F   F365      1.0  0.85039  0.38904  0.48110  1.0000
  F   F366      1.0  0.84924  0.41771  0.95270  1.0000
  F   F367      1.0  0.85145  0.88771  0.46873  1.0000
  F   F368      1.0  0.85135  0.90021  0.96764  1.0000
  F   F369      1.0  0.03956  0.30712  0.30552  1.0000
  F   F370      1.0  0.04376  0.30275  0.77880  1.0000
  F   F371      1.0  0.04699  0.80364  0.28265  1.0000
  F   F372      1.0  0.04441  0.80936  0.78821  1.0000
  F   F373      1.0  0.30374  0.32560  0.28947  1.0000
  F   F374      1.0  0.29550  0.30755  0.78813  1.0000
  F   F375      1.0  0.30856  0.80215  0.29991  1.0000
  F   F376      1.0  0.28627  0.80391  0.79057  1.0000
  F   F377      1.0  0.54705  0.29080  0.29756  1.0000
  F   F378      1.0  0.54593  0.29421  0.78224  1.0000
  F   F379      1.0  0.54502  0.78968  0.29386  1.0000
  F   F380      1.0  0.53979  0.79141  0.79056  1.0000
  F   F381      1.0  0.79399  0.29770  0.28767  1.0000
  F   F382      1.0  0.79153  0.28887  0.78569  1.0000
  F   F383      1.0  0.79221  0.79776  0.29942  1.0000
  F   F384      1.0  0.79520  0.80884  0.78579  1.0000
