data_image0
_chemical_formula_structural       Hf96F384
_chemical_formula_sum              "Hf96 F384"
_cell_length_a       31.0266
_cell_length_b       15.5109
_cell_length_c       15.5074
_cell_angle_alpha    63.342
_cell_angle_beta     63.342
_cell_angle_gamma    80.1625

_space_group_name_H-M_alt    "P 1"
_space_group_IT_number       1

loop_
  _space_group_symop_operation_xyz
  'x, y, z'

loop_
  _atom_site_type_symbol
  _atom_site_label
  _atom_site_symmetry_multiplicity
  _atom_site_fract_x
  _atom_site_fract_y
  _atom_site_fract_z
  _atom_site_occupancy
  Hf  Hf1       1.0  0.19651  0.11051  0.37025  1.0000
  Hf  Hf2       1.0  0.19853  0.11164  0.87134  1.0000
  Hf  Hf3       1.0  0.19778  0.61786  0.37043  1.0000
  Hf  Hf4       1.0  0.19275  0.60579  0.87977  1.0000
  Hf  Hf5       1.0  0.44829  0.11215  0.37345  1.0000
  Hf  Hf6       1.0  0.44701  0.10332  0.87651  1.0000
  Hf  Hf7       1.0  0.44841  0.59311  0.38581  1.0000
  Hf  Hf8       1.0  0.44628  0.60738  0.86984  1.0000
  Hf  Hf9       1.0  0.69539  0.10276  0.38488  1.0000
  Hf  Hf10      1.0  0.69685  0.10258  0.87357  1.0000
  Hf  Hf11      1.0  0.69877  0.61138  0.36898  1.0000
  Hf  Hf12      1.0  0.69640  0.60521  0.87040  1.0000
  Hf  Hf13      1.0  0.94684  0.10747  0.37133  1.0000
  Hf  Hf14      1.0  0.94584  0.11190  0.88177  1.0000
  Hf  Hf15      1.0  0.93977  0.60333  0.38167  1.0000
  Hf  Hf16      1.0  0.94326  0.60876  0.88270  1.0000
  Hf  Hf17      1.0  0.05158  0.39004  0.13068  1.0000
  Hf  Hf18      1.0  0.05436  0.39462  0.62442  1.0000
  Hf  Hf19      1.0  0.05156  0.89045  0.12537  1.0000
  Hf  Hf20      1.0  0.04978  0.89525  0.62835  1.0000
  Hf  Hf21      1.0  0.30603  0.38513  0.11831  1.0000
  Hf  Hf22      1.0  0.30265  0.39601  0.62294  1.0000
  Hf  Hf23      1.0  0.30093  0.89517  0.13128  1.0000
  Hf  Hf24      1.0  0.30232  0.88941  0.62487  1.0000
  Hf  Hf25      1.0  0.55320  0.39046  0.12537  1.0000
  Hf  Hf26      1.0  0.55602  0.39003  0.62412  1.0000
  Hf  Hf27      1.0  0.55533  0.89106  0.12333  1.0000
  Hf  Hf28      1.0  0.54976  0.89191  0.63440  1.0000
  Hf  Hf29      1.0  0.80334  0.39477  0.12263  1.0000
  Hf  Hf30      1.0  0.80845  0.39528  0.62381  1.0000
  Hf  Hf31      1.0  0.80445  0.89180  0.13264  1.0000
  Hf  Hf32      1.0  0.80222  0.89438  0.61913  1.0000
  Hf  Hf33      1.0  0.06305  0.18585  0.40497  1.0000
  Hf  Hf34      1.0  0.06046  0.18685  0.91387  1.0000
  Hf  Hf35      1.0  0.05910  0.68021  0.41909  1.0000
  Hf  Hf36      1.0  0.05800  0.68383  0.91015  1.0000
  Hf  Hf37      1.0  0.30853  0.19145  0.41325  1.0000
  Hf  Hf38      1.0  0.30425  0.18801  0.92184  1.0000
  Hf  Hf39      1.0  0.30697  0.68064  0.41396  1.0000
  Hf  Hf40      1.0  0.30881  0.68271  0.91127  1.0000
  Hf  Hf41      1.0  0.55578  0.17292  0.42801  1.0000
  Hf  Hf42      1.0  0.55488  0.17603  0.92337  1.0000
  Hf  Hf43      1.0  0.55751  0.69265  0.41473  1.0000
  Hf  Hf44      1.0  0.55448  0.67595  0.91853  1.0000
  Hf  Hf45      1.0  0.80471  0.18183  0.41542  1.0000
  Hf  Hf46      1.0  0.80898  0.18373  0.91519  1.0000
  Hf  Hf47      1.0  0.80145  0.67536  0.42482  1.0000
  Hf  Hf48      1.0  0.80787  0.69512  0.90320  1.0000
  Hf  Hf49      1.0  0.16264  0.39572  0.33056  1.0000
  Hf  Hf50      1.0  0.15910  0.38685  0.83483  1.0000
  Hf  Hf51      1.0  0.15622  0.89349  0.33759  1.0000
  Hf  Hf52      1.0  0.15837  0.88902  0.83003  1.0000
  Hf  Hf53      1.0  0.41022  0.39726  0.32684  1.0000
  Hf  Hf54      1.0  0.40775  0.38941  0.83084  1.0000
  Hf  Hf55      1.0  0.40753  0.87578  0.33848  1.0000
  Hf  Hf56      1.0  0.40655  0.89468  0.83442  1.0000
  Hf  Hf57      1.0  0.65890  0.38662  0.33497  1.0000
  Hf  Hf58      1.0  0.65944  0.38058  0.84120  1.0000
  Hf  Hf59      1.0  0.65768  0.89322  0.33043  1.0000
  Hf  Hf60      1.0  0.65971  0.88234  0.82910  1.0000
  Hf  Hf61      1.0  0.90527  0.38595  0.33569  1.0000
  Hf  Hf62      1.0  0.90561  0.38973  0.83598  1.0000
  Hf  Hf63      1.0  0.90428  0.88057  0.34242  1.0000
  Hf  Hf64      1.0  0.90675  0.88762  0.83865  1.0000
  Hf  Hf65      1.0  0.19356  0.32460  0.08155  1.0000
  Hf  Hf66      1.0  0.19542  0.32423  0.57537  1.0000
  Hf  Hf67      1.0  0.19523  0.82311  0.07941  1.0000
  Hf  Hf68      1.0  0.19299  0.81851  0.58155  1.0000
  Hf  Hf69      1.0  0.44527  0.31294  0.07555  1.0000
  Hf  Hf70      1.0  0.44469  0.31300  0.58077  1.0000
  Hf  Hf71      1.0  0.44414  0.81108  0.08674  1.0000
  Hf  Hf72      1.0  0.44232  0.81730  0.58457  1.0000
  Hf  Hf73      1.0  0.69413  0.32529  0.08305  1.0000
  Hf  Hf74      1.0  0.69394  0.31964  0.59004  1.0000
  Hf  Hf75      1.0  0.69176  0.80857  0.09018  1.0000
  Hf  Hf76      1.0  0.69032  0.81126  0.58632  1.0000
  Hf  Hf77      1.0  0.94792  0.31759  0.08178  1.0000
  Hf  Hf78      1.0  0.94759  0.31370  0.58081  1.0000
  Hf  Hf79      1.0  0.94655  0.81788  0.08353  1.0000
  Hf  Hf80      1.0  0.94448  0.82399  0.57564  1.0000
  Hf  Hf81      1.0  0.09349  0.11307  0.16616  1.0000
  Hf  Hf82      1.0  0.09053  0.11081  0.66637  1.0000
  Hf  Hf83      1.0  0.09329  0.61226  0.16909  1.0000
  Hf  Hf84      1.0  0.08984  0.61434  0.66737  1.0000
  Hf  Hf85      1.0  0.34074  0.10476  0.16883  1.0000
  Hf  Hf86      1.0  0.34048  0.11152  0.66731  1.0000
  Hf  Hf87      1.0  0.33928  0.61977  0.16353  1.0000
  Hf  Hf88      1.0  0.34042  0.61282  0.66442  1.0000
  Hf  Hf89      1.0  0.59283  0.11555  0.16230  1.0000
  Hf  Hf90      1.0  0.59144  0.10522  0.67815  1.0000
  Hf  Hf91      1.0  0.59020  0.61446  0.16512  1.0000
  Hf  Hf92      1.0  0.59344  0.60893  0.66597  1.0000
  Hf  Hf93      1.0  0.84231  0.11188  0.16787  1.0000
  Hf  Hf94      1.0  0.84310  0.11368  0.66287  1.0000
  Hf  Hf95      1.0  0.84046  0.61046  0.16564  1.0000
  Hf  Hf96      1.0  0.83870  0.61385  0.66426  1.0000
  F   F1        1.0  0.07611  0.12343  0.30784  1.0000
  F   F2        1.0  0.08117  0.11738  0.80487  1.0000
  F   F3        1.0  0.08723  0.62328  0.30002  1.0000
  F   F4        1.0  0.07964  0.62487  0.80763  1.0000
  F   F5        1.0  0.32561  0.11658  0.31197  1.0000
  F   F6        1.0  0.33052  0.12830  0.80296  1.0000
  F   F7        1.0  0.32645  0.63877  0.29718  1.0000
  F   F8        1.0  0.33310  0.64003  0.79106  1.0000
  F   F9        1.0  0.58388  0.15506  0.29212  1.0000
  F   F10       1.0  0.57306  0.10203  0.82531  1.0000
  F   F11       1.0  0.57282  0.62369  0.31342  1.0000
  F   F12       1.0  0.57989  0.62410  0.80258  1.0000
  F   F13       1.0  0.82406  0.12267  0.30326  1.0000
  F   F14       1.0  0.83448  0.13585  0.79061  1.0000
  F   F15       1.0  0.83209  0.61930  0.30903  1.0000
  F   F16       1.0  0.83152  0.63473  0.79618  1.0000
  F   F17       1.0  0.19717  0.35927  0.42836  1.0000
  F   F18       1.0  0.18611  0.33372  0.94423  1.0000
  F   F19       1.0  0.18922  0.84128  0.44109  1.0000
  F   F20       1.0  0.19356  0.85939  0.94163  1.0000
  F   F21       1.0  0.43407  0.33459  0.44825  1.0000
  F   F22       1.0  0.44013  0.34289  0.93054  1.0000
  F   F23       1.0  0.43672  0.82962  0.44632  1.0000
  F   F24       1.0  0.43352  0.83326  0.95514  1.0000
  F   F25       1.0  0.68835  0.35472  0.44438  1.0000
  F   F26       1.0  0.68962  0.33991  0.94393  1.0000
  F   F27       1.0  0.68134  0.83900  0.44347  1.0000
  F   F28       1.0  0.68296  0.84634  0.94601  1.0000
  F   F29       1.0  0.93214  0.33505  0.45287  1.0000
  F   F30       1.0  0.93440  0.33059  0.94571  1.0000
  F   F31       1.0  0.93571  0.84069  0.43886  1.0000
  F   F32       1.0  0.93999  0.84900  0.94151  1.0000
  F   F33       1.0  0.17003  0.37158  0.19444  1.0000
  F   F34       1.0  0.17188  0.36060  0.69772  1.0000
  F   F35       1.0  0.16934  0.86703  0.20341  1.0000
  F   F36       1.0  0.17336  0.85265  0.70309  1.0000
  F   F37       1.0  0.41642  0.35947  0.19313  1.0000
  F   F38       1.0  0.41945  0.36600  0.69604  1.0000
  F   F39       1.0  0.42066  0.87030  0.19423  1.0000
  F   F40       1.0  0.41295  0.87090  0.70486  1.0000
  F   F41       1.0  0.67455  0.39550  0.17732  1.0000
  F   F42       1.0  0.67867  0.37493  0.70054  1.0000
  F   F43       1.0  0.67187  0.87771  0.19263  1.0000
  F   F44       1.0  0.67520  0.88280  0.68627  1.0000
  F   F45       1.0  0.92572  0.37545  0.18326  1.0000
  F   F46       1.0  0.92557  0.38161  0.68774  1.0000
  F   F47       1.0  0.91302  0.85804  0.21028  1.0000
  F   F48       1.0  0.92490  0.87398  0.68657  1.0000
  F   F49       1.0  0.07123  0.17870  0.03757  1.0000
  F   F50       1.0  0.07078  0.16739  0.54330  1.0000
  F   F51       1.0  0.06618  0.65955  0.05144  1.0000
  F   F52       1.0  0.05514  0.64902  0.56791  1.0000
  F   F53       1.0  0.32198  0.17012  0.03996  1.0000
  F   F54       1.0  0.31815  0.16432  0.54062  1.0000
  F   F55       1.0  0.31350  0.65728  0.05134  1.0000
  F   F56       1.0  0.32151  0.67474  0.53166  1.0000
  F   F57       1.0  0.56000  0.16472  0.05739  1.0000
  F   F58       1.0  0.56193  0.15348  0.56343  1.0000
  F   F59       1.0  0.56965  0.66019  0.04503  1.0000
  F   F60       1.0  0.56467  0.65381  0.55248  1.0000
  F   F61       1.0  0.81408  0.15371  0.05669  1.0000
  F   F62       1.0  0.81201  0.15805  0.55653  1.0000
  F   F63       1.0  0.81621  0.66862  0.04442  1.0000
  F   F64       1.0  0.80573  0.65578  0.56610  1.0000
  F   F65       1.0  0.20336  0.20425  0.21938  1.0000
  F   F66       1.0  0.19897  0.20319  0.70046  1.0000
  F   F67       1.0  0.20195  0.70987  0.21891  1.0000
  F   F68       1.0  0.21268  0.69482  0.71537  1.0000
  F   F69       1.0  0.45778  0.19092  0.20555  1.0000
  F   F70       1.0  0.45784  0.19669  0.70756  1.0000
  F   F71       1.0  0.44811  0.68891  0.21995  1.0000
  F   F72       1.0  0.43911  0.69805  0.71830  1.0000
  F   F73       1.0  0.69265  0.19582  0.22911  1.0000
  F   F74       1.0  0.70477  0.20325  0.71352  1.0000
  F   F75       1.0  0.70704  0.70535  0.20279  1.0000
  F   F76       1.0  0.70885  0.70099  0.70736  1.0000
  F   F77       1.0  0.95165  0.20353  0.21317  1.0000
  F   F78       1.0  0.95426  0.20862  0.71083  1.0000
  F   F79       1.0  0.94618  0.69400  0.21785  1.0000
  F   F80       1.0  0.95065  0.70438  0.72036  1.0000
  F   F81       1.0  0.15278  0.10639  0.03341  1.0000
  F   F82       1.0  0.15254  0.07481  0.53025  1.0000
  F   F83       1.0  0.15182  0.57990  0.03879  1.0000
  F   F84       1.0  0.14811  0.60346  0.54140  1.0000
  F   F85       1.0  0.39665  0.07915  0.04744  1.0000
  F   F86       1.0  0.40458  0.08588  0.53065  1.0000
  F   F87       1.0  0.39891  0.60537  0.03782  1.0000
  F   F88       1.0  0.40702  0.57719  0.53642  1.0000
  F   F89       1.0  0.64551  0.08632  0.03999  1.0000
  F   F90       1.0  0.64795  0.09263  0.55225  1.0000
  F   F91       1.0  0.64684  0.58928  0.04702  1.0000
  F   F92       1.0  0.65348  0.59100  0.54599  1.0000
  F   F93       1.0  0.89806  0.09105  0.04210  1.0000
  F   F94       1.0  0.89846  0.09772  0.53167  1.0000
  F   F95       1.0  0.89698  0.58270  0.05319  1.0000
  F   F96       1.0  0.89889  0.58727  0.54457  1.0000
  F   F97       1.0  0.15356  0.20137  0.12156  1.0000
  F   F98       1.0  0.14709  0.20136  0.60384  1.0000
  F   F99       1.0  0.15233  0.70788  0.10893  1.0000
  F   F100      1.0  0.14975  0.69886  0.64513  1.0000
  F   F101      1.0  0.39809  0.20115  0.11454  1.0000
  F   F102      1.0  0.40269  0.19484  0.62270  1.0000
  F   F103      1.0  0.39715  0.68698  0.14384  1.0000
  F   F104      1.0  0.39957  0.69206  0.61438  1.0000
  F   F105      1.0  0.65230  0.20452  0.11109  1.0000
  F   F106      1.0  0.64691  0.19790  0.64876  1.0000
  F   F107      1.0  0.65056  0.68575  0.14168  1.0000
  F   F108      1.0  0.65123  0.69527  0.62987  1.0000
  F   F109      1.0  0.90594  0.18904  0.13665  1.0000
  F   F110      1.0  0.90388  0.19374  0.61618  1.0000
  F   F111      1.0  0.89819  0.69864  0.12317  1.0000
  F   F112      1.0  0.89866  0.70189  0.61779  1.0000
  F   F113      1.0  0.09830  0.30167  0.36961  1.0000
  F   F114      1.0  0.10125  0.32118  0.85487  1.0000
  F   F115      1.0  0.09756  0.81489  0.38025  1.0000
  F   F116      1.0  0.09169  0.81280  0.86630  1.0000
  F   F117      1.0  0.34943  0.30548  0.37644  1.0000
  F   F118      1.0  0.34502  0.31285  0.87028  1.0000
  F   F119      1.0  0.34885  0.80238  0.36422  1.0000
  F   F120      1.0  0.34846  0.80868  0.87683  1.0000
  F   F121      1.0  0.60828  0.29028  0.35893  1.0000
  F   F122      1.0  0.59940  0.30952  0.87637  1.0000
  F   F123      1.0  0.59637  0.81632  0.38369  1.0000
  F   F124      1.0  0.59602  0.79848  0.86669  1.0000
  F   F125      1.0  0.84417  0.30073  0.38611  1.0000
  F   F126      1.0  0.84533  0.30840  0.88577  1.0000
  F   F127      1.0  0.84771  0.78860  0.39435  1.0000
  F   F128      1.0  0.85152  0.81670  0.84958  1.0000
  F   F129      1.0  0.06488  0.24125  0.14812  1.0000
  F   F130      1.0  0.05092  0.24810  0.66110  1.0000
  F   F131      1.0  0.06263  0.75236  0.14588  1.0000
  F   F132      1.0  0.06211  0.74978  0.64063  1.0000
  F   F133      1.0  0.31296  0.24672  0.14686  1.0000
  F   F134      1.0  0.31721  0.25650  0.62837  1.0000
  F   F135      1.0  0.31123  0.75770  0.13108  1.0000
  F   F136      1.0  0.30862  0.75304  0.63286  1.0000
  F   F137      1.0  0.56754  0.25255  0.13493  1.0000
  F   F138      1.0  0.56224  0.24065  0.66068  1.0000
  F   F139      1.0  0.56851  0.74804  0.14305  1.0000
  F   F140      1.0  0.56828  0.74575  0.63016  1.0000
  F   F141      1.0  0.81087  0.24872  0.13547  1.0000
  F   F142      1.0  0.81780  0.25866  0.63727  1.0000
  F   F143      1.0  0.81552  0.75387  0.14049  1.0000
  F   F144      1.0  0.81143  0.75478  0.63919  1.0000
  F   F145      1.0  0.12435  0.38479  0.09550  1.0000
  F   F146      1.0  0.12913  0.37516  0.59935  1.0000
  F   F147      1.0  0.12932  0.88057  0.09722  1.0000
  F   F148      1.0  0.12017  0.88697  0.60788  1.0000
  F   F149      1.0  0.37283  0.36964  0.10946  1.0000
  F   F150      1.0  0.37558  0.37842  0.59859  1.0000
  F   F151      1.0  0.37296  0.87695  0.11031  1.0000
  F   F152      1.0  0.37483  0.87146  0.60405  1.0000
  F   F153      1.0  0.62415  0.36117  0.11059  1.0000
  F   F154      1.0  0.62429  0.37119  0.61869  1.0000
  F   F155      1.0  0.62524  0.86909  0.10816  1.0000
  F   F156      1.0  0.61936  0.85197  0.63477  1.0000
  F   F157      1.0  0.87581  0.36745  0.10522  1.0000
  F   F158      1.0  0.88024  0.36240  0.60689  1.0000
  F   F159      1.0  0.87832  0.87397  0.09706  1.0000
  F   F160      1.0  0.87624  0.87637  0.59265  1.0000
  F   F161      1.0  0.17653  0.25465  0.37698  1.0000
  F   F162      1.0  0.19222  0.25038  0.85543  1.0000
  F   F163      1.0  0.18410  0.75247  0.35836  1.0000
  F   F164      1.0  0.17559  0.75163  0.88200  1.0000
  F   F165      1.0  0.43875  0.25563  0.34209  1.0000
  F   F166      1.0  0.43314  0.24574  0.85819  1.0000
  F   F167      1.0  0.44106  0.73848  0.36099  1.0000
  F   F168      1.0  0.43635  0.75168  0.84499  1.0000
  F   F169      1.0  0.68945  0.24457  0.35377  1.0000
  F   F170      1.0  0.68013  0.23361  0.87835  1.0000
  F   F171      1.0  0.68994  0.74792  0.35333  1.0000
  F   F172      1.0  0.67684  0.74418  0.86439  1.0000
  F   F173      1.0  0.93211  0.25244  0.35137  1.0000
  F   F174      1.0  0.93257  0.24648  0.86461  1.0000
  F   F175      1.0  0.93569  0.74551  0.36201  1.0000
  F   F176      1.0  0.92427  0.74413  0.88325  1.0000
  F   F177      1.0  0.12982  0.12234  0.37885  1.0000
  F   F178      1.0  0.12863  0.13386  0.89495  1.0000
  F   F179      1.0  0.12561  0.63347  0.38938  1.0000
  F   F180      1.0  0.12273  0.63036  0.89609  1.0000
  F   F181      1.0  0.37998  0.14409  0.37338  1.0000
  F   F182      1.0  0.38062  0.14071  0.88197  1.0000
  F   F183      1.0  0.37742  0.63517  0.38467  1.0000
  F   F184      1.0  0.37259  0.61449  0.90396  1.0000
  F   F185      1.0  0.62483  0.09849  0.41777  1.0000
  F   F186      1.0  0.62693  0.13264  0.88662  1.0000
  F   F187      1.0  0.62679  0.65822  0.37687  1.0000
  F   F188      1.0  0.62817  0.62864  0.88356  1.0000
  F   F189      1.0  0.87481  0.13007  0.37878  1.0000
  F   F190      1.0  0.87940  0.14134  0.88512  1.0000
  F   F191      1.0  0.87087  0.62352  0.41178  1.0000
  F   F192      1.0  0.87239  0.62414  0.90567  1.0000
  F   F193      1.0  0.00893  0.36183  0.07780  1.0000
  F   F194      1.0  0.01175  0.36393  0.56257  1.0000
  F   F195      1.0  0.00518  0.86416  0.07971  1.0000
  F   F196      1.0  0.01176  0.87643  0.56727  1.0000
  F   F197      1.0  0.26311  0.35609  0.06029  1.0000
  F   F198      1.0  0.25634  0.35836  0.57302  1.0000
  F   F199      1.0  0.25795  0.86359  0.05809  1.0000
  F   F200      1.0  0.25476  0.86514  0.57768  1.0000
  F   F201      1.0  0.50586  0.36076  0.08215  1.0000
  F   F202      1.0  0.51097  0.35295  0.57615  1.0000
  F   F203      1.0  0.50953  0.84999  0.06582  1.0000
  F   F204      1.0  0.50034  0.85212  0.60927  1.0000
  F   F205      1.0  0.75335  0.37284  0.07064  1.0000
  F   F206      1.0  0.75934  0.36844  0.57047  1.0000
  F   F207      1.0  0.75621  0.86194  0.09211  1.0000
  F   F208      1.0  0.76057  0.86508  0.56398  1.0000
  F   F209      1.0  0.06511  0.47866  0.18147  1.0000
  F   F210      1.0  0.07086  0.48220  0.67154  1.0000
  F   F211      1.0  0.06935  0.98149  0.17375  1.0000
  F   F212      1.0  0.05999  0.98328  0.69005  1.0000
  F   F213      1.0  0.32068  0.48377  0.16698  1.0000
  F   F214      1.0  0.31733  0.48735  0.66480  1.0000
  F   F215      1.0  0.31065  0.99194  0.17721  1.0000
  F   F216      1.0  0.32127  0.98002  0.67817  1.0000
  F   F217      1.0  0.56337  0.47815  0.17606  1.0000
  F   F218      1.0  0.57156  0.48398  0.67899  1.0000
  F   F219      1.0  0.56947  0.98242  0.17839  1.0000
  F   F220      1.0  0.56916  0.97827  0.68263  1.0000
  F   F221      1.0  0.81104  0.48802  0.17649  1.0000
  F   F222      1.0  0.82671  0.48471  0.67018  1.0000
  F   F223      1.0  0.81381  0.98675  0.18570  1.0000
  F   F224      1.0  0.82084  0.98993  0.65889  1.0000
  F   F225      1.0  0.24103  0.13167  0.42383  1.0000
  F   F226      1.0  0.24350  0.14000  0.92239  1.0000
  F   F227      1.0  0.24338  0.63582  0.43460  1.0000
  F   F228      1.0  0.24189  0.65244  0.91015  1.0000
  F   F229      1.0  0.49495  0.13140  0.42159  1.0000
  F   F230      1.0  0.48630  0.12994  0.94530  1.0000
  F   F231      1.0  0.49427  0.63287  0.43417  1.0000
  F   F232      1.0  0.48985  0.62770  0.92622  1.0000
  F   F233      1.0  0.74102  0.13574  0.43240  1.0000
  F   F234      1.0  0.74462  0.12585  0.92650  1.0000
  F   F235      1.0  0.74540  0.63757  0.41894  1.0000
  F   F236      1.0  0.74464  0.65421  0.90335  1.0000
  F   F237      1.0  0.99341  0.15398  0.41275  1.0000
  F   F238      1.0  0.99872  0.13843  0.93259  1.0000
  F   F239      1.0  0.99025  0.63678  0.44483  1.0000
  F   F240      1.0  0.98749  0.64228  0.92640  1.0000
  F   F241      1.0  0.18374  0.01163  0.31933  1.0000
  F   F242      1.0  0.18049  0.02244  0.82164  1.0000
  F   F243      1.0  0.18420  0.52928  0.30504  1.0000
  F   F244      1.0  0.17880  0.50610  0.83280  1.0000
  F   F245      1.0  0.42875  0.00708  0.32603  1.0000
  F   F246      1.0  0.42275  0.01293  0.83884  1.0000
  F   F247      1.0  0.43129  0.50701  0.34073  1.0000
  F   F248      1.0  0.42926  0.50713  0.83214  1.0000
  F   F249      1.0  0.68670  0.00572  0.31866  1.0000
  F   F250      1.0  0.67434  0.00946  0.83323  1.0000
  F   F251      1.0  0.67329  0.52688  0.33150  1.0000
  F   F252      1.0  0.68920  0.50619  0.81742  1.0000
  F   F253      1.0  0.93750  0.01736  0.31916  1.0000
  F   F254      1.0  0.92638  0.02645  0.82461  1.0000
  F   F255      1.0  0.92911  0.50940  0.32831  1.0000
  F   F256      1.0  0.92810  0.51479  0.83219  1.0000
  F   F257      1.0  0.00298  0.25092  0.99547  1.0000
  F   F258      1.0  0.00401  0.25502  0.49275  1.0000
  F   F259      1.0  0.99962  0.75234  0.99415  1.0000
  F   F260      1.0  0.00286  0.76751  0.49097  1.0000
  F   F261      1.0  0.24861  0.24873  0.01202  1.0000
  F   F262      1.0  0.25312  0.24873  0.49955  1.0000
  F   F263      1.0  0.24646  0.73421  0.01162  1.0000
  F   F264      1.0  0.24789  0.74299  0.50822  1.0000
  F   F265      1.0  0.50080  0.25752  0.98863  1.0000
  F   F266      1.0  0.50268  0.24496  0.49293  1.0000
  F   F267      1.0  0.49608  0.72756  0.01075  1.0000
  F   F268      1.0  0.49758  0.74969  0.51049  1.0000
  F   F269      1.0  0.75057  0.24307  0.00900  1.0000
  F   F270      1.0  0.75029  0.25624  0.49610  1.0000
  F   F271      1.0  0.74697  0.75195  0.99906  1.0000
  F   F272      1.0  0.74890  0.75271  0.49384  1.0000
  F   F273      1.0  0.12656  0.00795  0.24621  1.0000
  F   F274      1.0  0.13149  0.99945  0.73317  1.0000
  F   F275      1.0  0.11791  0.49270  0.25537  1.0000
  F   F276      1.0  0.12875  0.50007  0.74093  1.0000
  F   F277      1.0  0.37362  0.99454  0.24423  1.0000
  F   F278      1.0  0.38376  0.01252  0.74030  1.0000
  F   F279      1.0  0.37324  0.49999  0.25077  1.0000
  F   F280      1.0  0.37459  0.50034  0.75419  1.0000
  F   F281      1.0  0.62017  0.01225  0.26511  1.0000
  F   F282      1.0  0.63143  0.99827  0.74925  1.0000
  F   F283      1.0  0.61814  0.49310  0.26261  1.0000
  F   F284      1.0  0.62950  0.50525  0.75651  1.0000
  F   F285      1.0  0.87188  0.99739  0.24979  1.0000
  F   F286      1.0  0.87935  0.00493  0.74052  1.0000
  F   F287      1.0  0.86112  0.47638  0.26125  1.0000
  F   F288      1.0  0.87985  0.51055  0.74553  1.0000
  F   F289      1.0  0.04177  0.02868  0.03550  1.0000
  F   F290      1.0  0.04250  0.04175  0.52045  1.0000
  F   F291      1.0  0.04415  0.52988  0.01924  1.0000
  F   F292      1.0  0.05361  0.52678  0.51097  1.0000
  F   F293      1.0  0.29639  0.03618  0.01087  1.0000
  F   F294      1.0  0.29214  0.02821  0.52869  1.0000
  F   F295      1.0  0.28929  0.53456  0.01749  1.0000
  F   F296      1.0  0.28655  0.53093  0.53441  1.0000
  F   F297      1.0  0.54839  0.01780  0.02512  1.0000
  F   F298      1.0  0.53670  0.02490  0.53953  1.0000
  F   F299      1.0  0.54008  0.53057  0.02145  1.0000
  F   F300      1.0  0.55580  0.52234  0.51639  1.0000
  F   F301      1.0  0.79894  0.02244  0.02490  1.0000
  F   F302      1.0  0.79416  0.03430  0.50383  1.0000
  F   F303      1.0  0.78870  0.53133  0.03023  1.0000
  F   F304      1.0  0.77999  0.52857  0.54202  1.0000
  F   F305      1.0  0.23519  0.40616  0.22443  1.0000
  F   F306      1.0  0.23385  0.41773  0.72301  1.0000
  F   F307      1.0  0.23277  0.92001  0.22383  1.0000
  F   F308      1.0  0.23357  0.90598  0.73785  1.0000
  F   F309      1.0  0.47762  0.43572  0.20425  1.0000
  F   F310      1.0  0.48614  0.41880  0.72518  1.0000
  F   F311      1.0  0.48715  0.89287  0.22877  1.0000
  F   F312      1.0  0.47966  0.92738  0.73443  1.0000
  F   F313      1.0  0.73248  0.41219  0.23857  1.0000
  F   F314      1.0  0.73968  0.38993  0.74176  1.0000
  F   F315      1.0  0.73607  0.91342  0.23025  1.0000
  F   F316      1.0  0.73552  0.90226  0.72978  1.0000
  F   F317      1.0  0.97895  0.40818  0.23744  1.0000
  F   F318      1.0  0.98841  0.40802  0.71905  1.0000
  F   F319      1.0  0.98326  0.91193  0.22538  1.0000
  F   F320      1.0  0.97774  0.92592  0.72520  1.0000
  F   F321      1.0  0.20846  0.48068  0.47332  1.0000
  F   F322      1.0  0.21013  0.47252  0.96278  1.0000
  F   F323      1.0  0.21460  0.95936  0.46486  1.0000
  F   F324      1.0  0.20796  0.98151  0.97514  1.0000
  F   F325      1.0  0.46501  0.46002  0.48411  1.0000
  F   F326      1.0  0.45284  0.46258  0.98555  1.0000
  F   F327      1.0  0.45944  0.96013  0.49008  1.0000
  F   F328      1.0  0.45657  0.96668  0.97503  1.0000
  F   F329      1.0  0.70992  0.47751  0.46922  1.0000
  F   F330      1.0  0.70786  0.47482  0.97193  1.0000
  F   F331      1.0  0.70241  0.97118  0.47819  1.0000
  F   F332      1.0  0.71191  0.95966  0.97203  1.0000
  F   F333      1.0  0.95080  0.46704  0.47822  1.0000
  F   F334      1.0  0.96068  0.46951  0.97508  1.0000
  F   F335      1.0  0.95337  0.97456  0.48674  1.0000
  F   F336      1.0  0.95306  0.97272  0.98987  1.0000
  F   F337      1.0  0.01559  0.08571  0.27804  1.0000
  F   F338      1.0  0.00991  0.08311  0.78226  1.0000
  F   F339      1.0  0.01430  0.59430  0.27791  1.0000
  F   F340      1.0  0.01357  0.59038  0.77160  1.0000
  F   F341      1.0  0.26326  0.09367  0.26164  1.0000
  F   F342      1.0  0.26666  0.10669  0.74900  1.0000
  F   F343      1.0  0.26465  0.58506  0.27231  1.0000
  F   F344      1.0  0.27220  0.58181  0.76388  1.0000
  F   F345      1.0  0.51469  0.09443  0.26377  1.0000
  F   F346      1.0  0.51528  0.08653  0.77116  1.0000
  F   F347      1.0  0.51823  0.57154  0.27222  1.0000
  F   F348      1.0  0.51517  0.58781  0.77139  1.0000
  F   F349      1.0  0.75852  0.09262  0.28232  1.0000
  F   F350      1.0  0.76650  0.08224  0.76606  1.0000
  F   F351      1.0  0.76233  0.58111  0.26946  1.0000
  F   F352      1.0  0.76579  0.58217  0.77478  1.0000
  F   F353      1.0  0.11085  0.40523  0.46341  1.0000
  F   F354      1.0  0.09758  0.39955  0.96246  1.0000
  F   F355      1.0  0.09878  0.91492  0.45950  1.0000
  F   F356      1.0  0.10481  0.89214  0.96550  1.0000
  F   F357      1.0  0.34739  0.41720  0.46057  1.0000
  F   F358      1.0  0.35463  0.40043  0.96639  1.0000
  F   F359      1.0  0.34659  0.88630  0.46727  1.0000
  F   F360      1.0  0.34655  0.91121  0.97070  1.0000
  F   F361      1.0  0.60227  0.37200  0.47567  1.0000
  F   F362      1.0  0.60137  0.41768  0.95187  1.0000
  F   F363      1.0  0.60251  0.91717  0.46694  1.0000
  F   F364      1.0  0.59914  0.89441  0.96503  1.0000
  F   F365      1.0  0.84764  0.41682  0.46735  1.0000
  F   F366      1.0  0.84653  0.40946  0.96020  1.0000
  F   F367      1.0  0.85773  0.93035  0.44893  1.0000
  F   F368      1.0  0.85113  0.89746  0.95856  1.0000
  F   F369      1.0  0.05363  0.30152  0.26820  1.0000
  F   F370      1.0  0.05660  0.30096  0.78114  1.0000
  F   F371      1.0  0.04603  0.78732  0.28863  1.0000
  F   F372      1.0  0.03596  0.79987  0.79043  1.0000
  F   F373      1.0  0.30179  0.29585  0.28056  1.0000
  F   F374      1.0  0.29553  0.29848  0.79143  1.0000
  F   F375      1.0  0.29529  0.79750  0.28756  1.0000
  F   F376      1.0  0.29891  0.79613  0.78891  1.0000
  F   F377      1.0  0.53772  0.30229  0.28986  1.0000
  F   F378      1.0  0.54968  0.28166  0.79930  1.0000
  F   F379      1.0  0.55074  0.80406  0.28571  1.0000
  F   F380      1.0  0.53394  0.79499  0.78838  1.0000
  F   F381      1.0  0.79457  0.30342  0.28334  1.0000
  F   F382      1.0  0.80722  0.30134  0.78265  1.0000
  F   F383      1.0  0.80303  0.79986  0.29174  1.0000
  F   F384      1.0  0.79932  0.80450  0.77690  1.0000
