data_image0
_chemical_formula_structural       Hf96F384
_chemical_formula_sum              "Hf96 F384"
_cell_length_a       31.0524
_cell_length_b       15.5208
_cell_length_c       15.5155
_cell_angle_alpha    63.342
_cell_angle_beta     63.342
_cell_angle_gamma    80.1625

_space_group_name_H-M_alt    "P 1"
_space_group_IT_number       1

loop_
  _space_group_symop_operation_xyz
  'x, y, z'

loop_
  _atom_site_type_symbol
  _atom_site_label
  _atom_site_symmetry_multiplicity
  _atom_site_fract_x
  _atom_site_fract_y
  _atom_site_fract_z
  _atom_site_occupancy
  Hf  Hf1       1.0  0.19538  0.10796  0.37275  1.0000
  Hf  Hf2       1.0  0.19770  0.11029  0.87340  1.0000
  Hf  Hf3       1.0  0.19471  0.60799  0.37758  1.0000
  Hf  Hf4       1.0  0.19716  0.61247  0.86867  1.0000
  Hf  Hf5       1.0  0.44808  0.11040  0.37272  1.0000
  Hf  Hf6       1.0  0.44389  0.10409  0.87319  1.0000
  Hf  Hf7       1.0  0.44638  0.60561  0.37133  1.0000
  Hf  Hf8       1.0  0.44751  0.60766  0.87318  1.0000
  Hf  Hf9       1.0  0.69596  0.10660  0.37939  1.0000
  Hf  Hf10      1.0  0.69769  0.11570  0.85828  1.0000
  Hf  Hf11      1.0  0.69673  0.61035  0.37128  1.0000
  Hf  Hf12      1.0  0.69542  0.60203  0.87481  1.0000
  Hf  Hf13      1.0  0.95000  0.10317  0.37997  1.0000
  Hf  Hf14      1.0  0.94394  0.09834  0.89277  1.0000
  Hf  Hf15      1.0  0.94648  0.60395  0.37891  1.0000
  Hf  Hf16      1.0  0.94390  0.60140  0.88262  1.0000
  Hf  Hf17      1.0  0.05431  0.39342  0.11752  1.0000
  Hf  Hf18      1.0  0.05349  0.39337  0.62826  1.0000
  Hf  Hf19      1.0  0.05480  0.89443  0.12344  1.0000
  Hf  Hf20      1.0  0.05341  0.89486  0.62663  1.0000
  Hf  Hf21      1.0  0.30135  0.40275  0.12420  1.0000
  Hf  Hf22      1.0  0.30516  0.39383  0.62828  1.0000
  Hf  Hf23      1.0  0.29922  0.89303  0.13724  1.0000
  Hf  Hf24      1.0  0.30492  0.89176  0.62557  1.0000
  Hf  Hf25      1.0  0.55752  0.39366  0.12463  1.0000
  Hf  Hf26      1.0  0.55606  0.39931  0.61597  1.0000
  Hf  Hf27      1.0  0.55593  0.89774  0.11236  1.0000
  Hf  Hf28      1.0  0.55174  0.88864  0.63169  1.0000
  Hf  Hf29      1.0  0.80586  0.38548  0.12735  1.0000
  Hf  Hf30      1.0  0.80576  0.39497  0.62367  1.0000
  Hf  Hf31      1.0  0.80055  0.88937  0.12791  1.0000
  Hf  Hf32      1.0  0.80160  0.89731  0.61794  1.0000
  Hf  Hf33      1.0  0.05520  0.18775  0.41752  1.0000
  Hf  Hf34      1.0  0.05544  0.18934  0.90986  1.0000
  Hf  Hf35      1.0  0.05717  0.68812  0.41119  1.0000
  Hf  Hf36      1.0  0.05281  0.68096  0.92767  1.0000
  Hf  Hf37      1.0  0.30765  0.17956  0.41550  1.0000
  Hf  Hf38      1.0  0.30459  0.19116  0.91124  1.0000
  Hf  Hf39      1.0  0.30367  0.67804  0.42271  1.0000
  Hf  Hf40      1.0  0.30854  0.67791  0.91310  1.0000
  Hf  Hf41      1.0  0.55313  0.17931  0.42117  1.0000
  Hf  Hf42      1.0  0.55323  0.18578  0.91111  1.0000
  Hf  Hf43      1.0  0.55649  0.68828  0.41065  1.0000
  Hf  Hf44      1.0  0.55497  0.67661  0.91848  1.0000
  Hf  Hf45      1.0  0.80657  0.17892  0.42261  1.0000
  Hf  Hf46      1.0  0.80787  0.17200  0.91737  1.0000
  Hf  Hf47      1.0  0.80822  0.68836  0.41412  1.0000
  Hf  Hf48      1.0  0.80165  0.67357  0.92370  1.0000
  Hf  Hf49      1.0  0.15485  0.38941  0.34042  1.0000
  Hf  Hf50      1.0  0.15965  0.38852  0.83320  1.0000
  Hf  Hf51      1.0  0.15588  0.88771  0.34021  1.0000
  Hf  Hf52      1.0  0.15736  0.88733  0.83205  1.0000
  Hf  Hf53      1.0  0.41011  0.38997  0.32993  1.0000
  Hf  Hf54      1.0  0.40527  0.38619  0.83595  1.0000
  Hf  Hf55      1.0  0.40613  0.89379  0.33342  1.0000
  Hf  Hf56      1.0  0.40623  0.88857  0.83397  1.0000
  Hf  Hf57      1.0  0.65652  0.38139  0.34224  1.0000
  Hf  Hf58      1.0  0.65900  0.38680  0.83537  1.0000
  Hf  Hf59      1.0  0.66187  0.88329  0.34124  1.0000
  Hf  Hf60      1.0  0.65554  0.88491  0.83187  1.0000
  Hf  Hf61      1.0  0.90946  0.38697  0.33517  1.0000
  Hf  Hf62      1.0  0.91064  0.39138  0.83499  1.0000
  Hf  Hf63      1.0  0.91097  0.87962  0.33330  1.0000
  Hf  Hf64      1.0  0.90577  0.88061  0.83567  1.0000
  Hf  Hf65      1.0  0.19135  0.31630  0.09128  1.0000
  Hf  Hf66      1.0  0.19736  0.32005  0.57568  1.0000
  Hf  Hf67      1.0  0.19581  0.82224  0.08165  1.0000
  Hf  Hf68      1.0  0.19877  0.82331  0.57311  1.0000
  Hf  Hf69      1.0  0.44572  0.32233  0.07953  1.0000
  Hf  Hf70      1.0  0.44450  0.31537  0.57797  1.0000
  Hf  Hf71      1.0  0.44717  0.82199  0.08153  1.0000
  Hf  Hf72      1.0  0.44813  0.81956  0.57781  1.0000
  Hf  Hf73      1.0  0.69520  0.30439  0.09269  1.0000
  Hf  Hf74      1.0  0.69284  0.32278  0.58255  1.0000
  Hf  Hf75      1.0  0.69507  0.81949  0.08036  1.0000
  Hf  Hf76      1.0  0.69216  0.81235  0.59000  1.0000
  Hf  Hf77      1.0  0.94207  0.31114  0.08410  1.0000
  Hf  Hf78      1.0  0.94341  0.31867  0.58713  1.0000
  Hf  Hf79      1.0  0.94459  0.81460  0.08363  1.0000
  Hf  Hf80      1.0  0.94661  0.81967  0.58347  1.0000
  Hf  Hf81      1.0  0.09117  0.11443  0.16395  1.0000
  Hf  Hf82      1.0  0.09057  0.11141  0.66677  1.0000
  Hf  Hf83      1.0  0.09110  0.61856  0.16560  1.0000
  Hf  Hf84      1.0  0.08843  0.61337  0.66807  1.0000
  Hf  Hf85      1.0  0.34147  0.11870  0.16119  1.0000
  Hf  Hf86      1.0  0.34058  0.11800  0.66253  1.0000
  Hf  Hf87      1.0  0.33984  0.62055  0.16377  1.0000
  Hf  Hf88      1.0  0.34236  0.60722  0.67204  1.0000
  Hf  Hf89      1.0  0.59391  0.11545  0.15939  1.0000
  Hf  Hf90      1.0  0.59146  0.11553  0.67195  1.0000
  Hf  Hf91      1.0  0.59163  0.61007  0.16740  1.0000
  Hf  Hf92      1.0  0.59064  0.60843  0.66663  1.0000
  Hf  Hf93      1.0  0.84325  0.11289  0.16685  1.0000
  Hf  Hf94      1.0  0.84373  0.10944  0.66302  1.0000
  Hf  Hf95      1.0  0.84002  0.60873  0.16904  1.0000
  Hf  Hf96      1.0  0.84236  0.60896  0.66076  1.0000
  F   F1        1.0  0.08062  0.13897  0.29805  1.0000
  F   F2        1.0  0.07788  0.12925  0.80639  1.0000
  F   F3        1.0  0.08478  0.65207  0.29131  1.0000
  F   F4        1.0  0.07116  0.63152  0.80528  1.0000
  F   F5        1.0  0.31966  0.12020  0.31413  1.0000
  F   F6        1.0  0.33323  0.14456  0.79548  1.0000
  F   F7        1.0  0.32586  0.62883  0.30323  1.0000
  F   F8        1.0  0.33385  0.60834  0.81514  1.0000
  F   F9        1.0  0.58517  0.15862  0.28238  1.0000
  F   F10       1.0  0.56749  0.10852  0.82478  1.0000
  F   F11       1.0  0.57341  0.63027  0.30794  1.0000
  F   F12       1.0  0.58416  0.62608  0.80316  1.0000
  F   F13       1.0  0.82899  0.11912  0.31280  1.0000
  F   F14       1.0  0.83489  0.13680  0.79599  1.0000
  F   F15       1.0  0.82307  0.63603  0.30563  1.0000
  F   F16       1.0  0.82608  0.62624  0.80734  1.0000
  F   F17       1.0  0.17977  0.33029  0.45886  1.0000
  F   F18       1.0  0.17873  0.33410  0.95727  1.0000
  F   F19       1.0  0.18976  0.84658  0.44309  1.0000
  F   F20       1.0  0.17958  0.84159  0.94637  1.0000
  F   F21       1.0  0.43750  0.33659  0.43842  1.0000
  F   F22       1.0  0.42950  0.34128  0.95473  1.0000
  F   F23       1.0  0.43606  0.84049  0.44163  1.0000
  F   F24       1.0  0.43993  0.84448  0.94284  1.0000
  F   F25       1.0  0.68813  0.34160  0.43935  1.0000
  F   F26       1.0  0.68744  0.33862  0.94901  1.0000
  F   F27       1.0  0.69150  0.84863  0.44521  1.0000
  F   F28       1.0  0.67973  0.83500  0.93918  1.0000
  F   F29       1.0  0.93729  0.33807  0.44716  1.0000
  F   F30       1.0  0.92780  0.32335  0.96334  1.0000
  F   F31       1.0  0.94468  0.82540  0.45381  1.0000
  F   F32       1.0  0.93359  0.82810  0.94832  1.0000
  F   F33       1.0  0.17010  0.37480  0.20315  1.0000
  F   F34       1.0  0.17631  0.38310  0.69527  1.0000
  F   F35       1.0  0.16579  0.86821  0.19680  1.0000
  F   F36       1.0  0.17999  0.86947  0.68389  1.0000
  F   F37       1.0  0.42304  0.37826  0.18523  1.0000
  F   F38       1.0  0.42058  0.37414  0.69100  1.0000
  F   F39       1.0  0.41646  0.87310  0.19433  1.0000
  F   F40       1.0  0.42711  0.88228  0.68463  1.0000
  F   F41       1.0  0.67773  0.37059  0.19159  1.0000
  F   F42       1.0  0.66964  0.37899  0.69111  1.0000
  F   F43       1.0  0.67321  0.85553  0.21094  1.0000
  F   F44       1.0  0.66837  0.86911  0.69288  1.0000
  F   F45       1.0  0.92091  0.36863  0.19398  1.0000
  F   F46       1.0  0.91411  0.36657  0.70724  1.0000
  F   F47       1.0  0.92281  0.86318  0.20126  1.0000
  F   F48       1.0  0.91291  0.88736  0.69127  1.0000
  F   F49       1.0  0.05703  0.16039  0.06309  1.0000
  F   F50       1.0  0.06169  0.16625  0.55180  1.0000
  F   F51       1.0  0.06688  0.66205  0.05274  1.0000
  F   F52       1.0  0.06808  0.65785  0.55378  1.0000
  F   F53       1.0  0.31848  0.16013  0.04501  1.0000
  F   F54       1.0  0.31677  0.17607  0.54275  1.0000
  F   F55       1.0  0.31019  0.65735  0.05509  1.0000
  F   F56       1.0  0.31786  0.64909  0.56223  1.0000
  F   F57       1.0  0.56158  0.15560  0.05504  1.0000
  F   F58       1.0  0.56341  0.14152  0.56540  1.0000
  F   F59       1.0  0.56852  0.64981  0.05335  1.0000
  F   F60       1.0  0.55612  0.65651  0.56661  1.0000
  F   F61       1.0  0.81712  0.14861  0.05499  1.0000
  F   F62       1.0  0.80839  0.15202  0.56555  1.0000
  F   F63       1.0  0.80782  0.66340  0.05508  1.0000
  F   F64       1.0  0.82460  0.66706  0.54178  1.0000
  F   F65       1.0  0.20047  0.20202  0.21524  1.0000
  F   F66       1.0  0.20388  0.20759  0.71629  1.0000
  F   F67       1.0  0.20427  0.70356  0.20970  1.0000
  F   F68       1.0  0.20504  0.69735  0.70856  1.0000
  F   F69       1.0  0.45267  0.20018  0.19553  1.0000
  F   F70       1.0  0.45019  0.21078  0.71128  1.0000
  F   F71       1.0  0.44713  0.70122  0.22458  1.0000
  F   F72       1.0  0.45863  0.69903  0.71741  1.0000
  F   F73       1.0  0.70745  0.18911  0.21525  1.0000
  F   F74       1.0  0.71386  0.21418  0.70616  1.0000
  F   F75       1.0  0.70690  0.69746  0.22092  1.0000
  F   F76       1.0  0.70036  0.68870  0.70969  1.0000
  F   F77       1.0  0.95960  0.19865  0.21179  1.0000
  F   F78       1.0  0.94372  0.19848  0.70193  1.0000
  F   F79       1.0  0.96478  0.69716  0.22128  1.0000
  F   F80       1.0  0.94038  0.69790  0.71803  1.0000
  F   F81       1.0  0.14697  0.07801  0.03550  1.0000
  F   F82       1.0  0.14729  0.08048  0.53798  1.0000
  F   F83       1.0  0.15299  0.59452  0.02826  1.0000
  F   F84       1.0  0.14399  0.57517  0.54676  1.0000
  F   F85       1.0  0.40142  0.08411  0.03714  1.0000
  F   F86       1.0  0.40514  0.08848  0.52841  1.0000
  F   F87       1.0  0.40054  0.61977  0.02786  1.0000
  F   F88       1.0  0.40319  0.59316  0.53326  1.0000
  F   F89       1.0  0.64516  0.09469  0.02920  1.0000
  F   F90       1.0  0.65513  0.10888  0.53526  1.0000
  F   F91       1.0  0.65432  0.58671  0.02656  1.0000
  F   F92       1.0  0.64610  0.57908  0.53763  1.0000
  F   F93       1.0  0.90317  0.09716  0.04794  1.0000
  F   F94       1.0  0.90192  0.08773  0.53286  1.0000
  F   F95       1.0  0.90120  0.60704  0.03546  1.0000
  F   F96       1.0  0.90998  0.56998  0.54993  1.0000
  F   F97       1.0  0.15006  0.20269  0.12265  1.0000
  F   F98       1.0  0.15235  0.18402  0.61849  1.0000
  F   F99       1.0  0.15034  0.70152  0.11956  1.0000
  F   F100      1.0  0.14563  0.69380  0.62575  1.0000
  F   F101      1.0  0.40038  0.20012  0.12616  1.0000
  F   F102      1.0  0.40573  0.18376  0.61769  1.0000
  F   F103      1.0  0.39709  0.70719  0.12427  1.0000
  F   F104      1.0  0.39904  0.69415  0.64195  1.0000
  F   F105      1.0  0.65765  0.18007  0.11352  1.0000
  F   F106      1.0  0.64749  0.20778  0.63405  1.0000
  F   F107      1.0  0.64952  0.68729  0.13148  1.0000
  F   F108      1.0  0.65064  0.68678  0.61288  1.0000
  F   F109      1.0  0.89895  0.18572  0.14251  1.0000
  F   F110      1.0  0.90147  0.19001  0.60539  1.0000
  F   F111      1.0  0.89919  0.70118  0.14029  1.0000
  F   F112      1.0  0.89907  0.70008  0.60040  1.0000
  F   F113      1.0  0.09864  0.31381  0.37870  1.0000
  F   F114      1.0  0.09454  0.31604  0.88072  1.0000
  F   F115      1.0  0.10127  0.81747  0.37085  1.0000
  F   F116      1.0  0.09681  0.80330  0.86703  1.0000
  F   F117      1.0  0.35053  0.31022  0.36717  1.0000
  F   F118      1.0  0.34497  0.30405  0.88164  1.0000
  F   F119      1.0  0.34140  0.79388  0.38263  1.0000
  F   F120      1.0  0.35425  0.79444  0.84788  1.0000
  F   F121      1.0  0.59969  0.29069  0.38098  1.0000
  F   F122      1.0  0.59777  0.30891  0.88514  1.0000
  F   F123      1.0  0.59301  0.80322  0.38617  1.0000
  F   F124      1.0  0.59721  0.81498  0.87493  1.0000
  F   F125      1.0  0.84924  0.29703  0.39346  1.0000
  F   F126      1.0  0.84836  0.31640  0.88965  1.0000
  F   F127      1.0  0.84857  0.80169  0.36292  1.0000
  F   F128      1.0  0.84535  0.80161  0.89195  1.0000
  F   F129      1.0  0.07084  0.25648  0.13424  1.0000
  F   F130      1.0  0.07109  0.25795  0.64349  1.0000
  F   F131      1.0  0.06536  0.75567  0.14599  1.0000
  F   F132      1.0  0.06651  0.76318  0.62931  1.0000
  F   F133      1.0  0.31605  0.24960  0.13328  1.0000
  F   F134      1.0  0.31017  0.24668  0.66146  1.0000
  F   F135      1.0  0.30681  0.74805  0.15050  1.0000
  F   F136      1.0  0.31843  0.74780  0.64207  1.0000
  F   F137      1.0  0.56169  0.25866  0.14255  1.0000
  F   F138      1.0  0.56448  0.25265  0.64298  1.0000
  F   F139      1.0  0.57072  0.75746  0.13168  1.0000
  F   F140      1.0  0.55896  0.74528  0.65349  1.0000
  F   F141      1.0  0.80568  0.23855  0.16719  1.0000
  F   F142      1.0  0.81316  0.25352  0.64673  1.0000
  F   F143      1.0  0.81097  0.75010  0.14660  1.0000
  F   F144      1.0  0.80980  0.74688  0.65605  1.0000
  F   F145      1.0  0.12458  0.37074  0.11897  1.0000
  F   F146      1.0  0.12808  0.34515  0.63521  1.0000
  F   F147      1.0  0.12563  0.89173  0.08384  1.0000
  F   F148      1.0  0.12702  0.87765  0.60563  1.0000
  F   F149      1.0  0.37009  0.37910  0.10759  1.0000
  F   F150      1.0  0.37677  0.35853  0.60419  1.0000
  F   F151      1.0  0.37069  0.87593  0.10884  1.0000
  F   F152      1.0  0.37813  0.86938  0.60853  1.0000
  F   F153      1.0  0.62288  0.33006  0.14016  1.0000
  F   F154      1.0  0.62437  0.37197  0.59460  1.0000
  F   F155      1.0  0.62926  0.86353  0.11568  1.0000
  F   F156      1.0  0.62275  0.84134  0.61728  1.0000
  F   F157      1.0  0.87181  0.34179  0.13164  1.0000
  F   F158      1.0  0.87424  0.37240  0.61078  1.0000
  F   F159      1.0  0.87690  0.87054  0.09924  1.0000
  F   F160      1.0  0.87617  0.85286  0.61094  1.0000
  F   F161      1.0  0.19102  0.24936  0.35451  1.0000
  F   F162      1.0  0.18675  0.25064  0.85632  1.0000
  F   F163      1.0  0.18541  0.75695  0.36190  1.0000
  F   F164      1.0  0.18442  0.75014  0.85709  1.0000
  F   F165      1.0  0.43905  0.25030  0.34681  1.0000
  F   F166      1.0  0.42562  0.24982  0.86446  1.0000
  F   F167      1.0  0.41990  0.75436  0.37556  1.0000
  F   F168      1.0  0.43579  0.75928  0.85433  1.0000
  F   F169      1.0  0.68112  0.25385  0.35332  1.0000
  F   F170      1.0  0.68704  0.25426  0.85176  1.0000
  F   F171      1.0  0.68731  0.73886  0.37085  1.0000
  F   F172      1.0  0.68330  0.74656  0.84972  1.0000
  F   F173      1.0  0.93287  0.24295  0.36895  1.0000
  F   F174      1.0  0.94277  0.24412  0.83963  1.0000
  F   F175      1.0  0.92715  0.74419  0.37202  1.0000
  F   F176      1.0  0.93487  0.75063  0.83704  1.0000
  F   F177      1.0  0.12753  0.14458  0.39219  1.0000
  F   F178      1.0  0.12286  0.14450  0.88764  1.0000
  F   F179      1.0  0.12326  0.64009  0.40186  1.0000
  F   F180      1.0  0.12351  0.63455  0.88406  1.0000
  F   F181      1.0  0.37848  0.13676  0.37881  1.0000
  F   F182      1.0  0.37646  0.13570  0.88428  1.0000
  F   F183      1.0  0.37404  0.63126  0.39144  1.0000
  F   F184      1.0  0.37668  0.62186  0.89761  1.0000
  F   F185      1.0  0.62810  0.11951  0.40197  1.0000
  F   F186      1.0  0.62421  0.15567  0.86523  1.0000
  F   F187      1.0  0.62624  0.63198  0.38038  1.0000
  F   F188      1.0  0.62523  0.64599  0.87912  1.0000
  F   F189      1.0  0.87945  0.13337  0.38646  1.0000
  F   F190      1.0  0.87651  0.12710  0.89950  1.0000
  F   F191      1.0  0.87711  0.63209  0.38168  1.0000
  F   F192      1.0  0.87107  0.60323  0.91018  1.0000
  F   F193      1.0  0.00648  0.36696  0.06937  1.0000
  F   F194      1.0  0.00616  0.35812  0.58780  1.0000
  F   F195      1.0  0.00654  0.86538  0.05886  1.0000
  F   F196      1.0  0.00721  0.86330  0.58013  1.0000
  F   F197      1.0  0.25114  0.36395  0.08757  1.0000
  F   F198      1.0  0.26108  0.36157  0.57966  1.0000
  F   F199      1.0  0.25691  0.86086  0.08872  1.0000
  F   F200      1.0  0.26230  0.85713  0.56310  1.0000
  F   F201      1.0  0.50929  0.36815  0.05717  1.0000
  F   F202      1.0  0.51037  0.35260  0.56333  1.0000
  F   F203      1.0  0.51112  0.86911  0.06515  1.0000
  F   F204      1.0  0.50623  0.86449  0.56592  1.0000
  F   F205      1.0  0.76395  0.35553  0.06972  1.0000
  F   F206      1.0  0.75907  0.37378  0.57735  1.0000
  F   F207      1.0  0.76120  0.85704  0.06857  1.0000
  F   F208      1.0  0.75270  0.85964  0.56986  1.0000
  F   F209      1.0  0.07253  0.49454  0.15500  1.0000
  F   F210      1.0  0.06630  0.48526  0.67355  1.0000
  F   F211      1.0  0.07031  0.99166  0.16859  1.0000
  F   F212      1.0  0.06789  0.99404  0.67469  1.0000
  F   F213      1.0  0.31922  0.49284  0.17200  1.0000
  F   F214      1.0  0.32164  0.48626  0.67835  1.0000
  F   F215      1.0  0.31775  0.99244  0.16776  1.0000
  F   F216      1.0  0.31917  0.00038  0.67186  1.0000
  F   F217      1.0  0.57263  0.48148  0.17241  1.0000
  F   F218      1.0  0.57066  0.47637  0.68130  1.0000
  F   F219      1.0  0.56659  0.98532  0.17187  1.0000
  F   F220      1.0  0.57903  0.98233  0.65621  1.0000
  F   F221      1.0  0.82880  0.48865  0.15355  1.0000
  F   F222      1.0  0.81891  0.48441  0.67506  1.0000
  F   F223      1.0  0.82315  0.98728  0.16236  1.0000
  F   F224      1.0  0.81807  0.98306  0.66739  1.0000
  F   F225      1.0  0.24077  0.12115  0.43744  1.0000
  F   F226      1.0  0.24142  0.13337  0.93333  1.0000
  F   F227      1.0  0.23930  0.63505  0.43154  1.0000
  F   F228      1.0  0.24495  0.63163  0.92233  1.0000
  F   F229      1.0  0.49618  0.13932  0.41511  1.0000
  F   F230      1.0  0.48874  0.15295  0.90445  1.0000
  F   F231      1.0  0.49039  0.63466  0.42602  1.0000
  F   F232      1.0  0.49086  0.64704  0.91513  1.0000
  F   F233      1.0  0.74510  0.15475  0.41131  1.0000
  F   F234      1.0  0.74187  0.13668  0.91681  1.0000
  F   F235      1.0  0.74258  0.63588  0.42245  1.0000
  F   F236      1.0  0.74142  0.63850  0.91377  1.0000
  F   F237      1.0  0.99876  0.13152  0.41998  1.0000
  F   F238      1.0  0.99126  0.11966  0.94204  1.0000
  F   F239      1.0  0.99212  0.65937  0.41417  1.0000
  F   F240      1.0  0.98785  0.63333  0.92527  1.0000
  F   F241      1.0  0.18035  0.02184  0.32110  1.0000
  F   F242      1.0  0.17806  0.02276  0.82551  1.0000
  F   F243      1.0  0.17668  0.53263  0.31134  1.0000
  F   F244      1.0  0.18088  0.51752  0.82966  1.0000
  F   F245      1.0  0.43250  0.02406  0.32016  1.0000
  F   F246      1.0  0.43389  0.01746  0.81326  1.0000
  F   F247      1.0  0.43201  0.51119  0.32644  1.0000
  F   F248      1.0  0.42979  0.50200  0.83723  1.0000
  F   F249      1.0  0.68674  0.01842  0.32381  1.0000
  F   F250      1.0  0.67928  0.01853  0.82460  1.0000
  F   F251      1.0  0.68401  0.51447  0.31996  1.0000
  F   F252      1.0  0.67940  0.51234  0.82632  1.0000
  F   F253      1.0  0.93372  0.01062  0.32616  1.0000
  F   F254      1.0  0.92913  0.01175  0.83313  1.0000
  F   F255      1.0  0.93553  0.51588  0.32201  1.0000
  F   F256      1.0  0.93806  0.51109  0.82161  1.0000
  F   F257      1.0  0.00152  0.26319  0.98362  1.0000
  F   F258      1.0  0.00457  0.25031  0.49948  1.0000
  F   F259      1.0  0.99214  0.72244  0.01928  1.0000
  F   F260      1.0  0.00932  0.75418  0.50617  1.0000
  F   F261      1.0  0.24772  0.24847  0.00672  1.0000
  F   F262      1.0  0.25257  0.23754  0.49868  1.0000
  F   F263      1.0  0.24946  0.76021  0.99534  1.0000
  F   F264      1.0  0.25055  0.73483  0.50935  1.0000
  F   F265      1.0  0.50047  0.25490  0.99104  1.0000
  F   F266      1.0  0.49987  0.23012  0.51075  1.0000
  F   F267      1.0  0.50147  0.75704  0.99809  1.0000
  F   F268      1.0  0.49468  0.73706  0.50417  1.0000
  F   F269      1.0  0.75096  0.23694  0.01041  1.0000
  F   F270      1.0  0.74399  0.23706  0.52441  1.0000
  F   F271      1.0  0.74613  0.75719  0.98563  1.0000
  F   F272      1.0  0.75059  0.73973  0.51030  1.0000
  F   F273      1.0  0.11800  0.99947  0.26119  1.0000
  F   F274      1.0  0.12554  0.99346  0.74677  1.0000
  F   F275      1.0  0.11910  0.50369  0.26088  1.0000
  F   F276      1.0  0.11934  0.50589  0.76889  1.0000
  F   F277      1.0  0.36144  0.99135  0.26636  1.0000
  F   F278      1.0  0.37711  0.00942  0.74926  1.0000
  F   F279      1.0  0.37653  0.51434  0.23982  1.0000
  F   F280      1.0  0.38192  0.50337  0.73866  1.0000
  F   F281      1.0  0.62699  0.99404  0.24826  1.0000
  F   F282      1.0  0.63085  0.01055  0.73729  1.0000
  F   F283      1.0  0.63025  0.50214  0.23662  1.0000
  F   F284      1.0  0.62551  0.50198  0.74974  1.0000
  F   F285      1.0  0.87935  0.99785  0.25601  1.0000
  F   F286      1.0  0.87785  0.00596  0.74505  1.0000
  F   F287      1.0  0.87566  0.49812  0.24619  1.0000
  F   F288      1.0  0.88377  0.50619  0.74606  1.0000
  F   F289      1.0  0.04398  0.02378  0.02486  1.0000
  F   F290      1.0  0.04510  0.02985  0.52656  1.0000
  F   F291      1.0  0.03505  0.53242  0.01712  1.0000
  F   F292      1.0  0.03982  0.53797  0.52106  1.0000
  F   F293      1.0  0.29613  0.02854  0.01996  1.0000
  F   F294      1.0  0.29037  0.03240  0.54363  1.0000
  F   F295      1.0  0.28512  0.53066  0.03357  1.0000
  F   F296      1.0  0.29555  0.53770  0.52723  1.0000
  F   F297      1.0  0.53728  0.03637  0.02661  1.0000
  F   F298      1.0  0.55067  0.02636  0.51035  1.0000
  F   F299      1.0  0.54754  0.53218  0.01489  1.0000
  F   F300      1.0  0.54774  0.53255  0.51933  1.0000
  F   F301      1.0  0.79015  0.02217  0.01796  1.0000
  F   F302      1.0  0.78288  0.03264  0.52274  1.0000
  F   F303      1.0  0.77794  0.52921  0.04337  1.0000
  F   F304      1.0  0.79764  0.53784  0.52131  1.0000
  F   F305      1.0  0.23340  0.42743  0.23139  1.0000
  F   F306      1.0  0.23660  0.41164  0.73170  1.0000
  F   F307      1.0  0.22956  0.92788  0.22090  1.0000
  F   F308      1.0  0.23490  0.93322  0.72211  1.0000
  F   F309      1.0  0.48843  0.42668  0.20530  1.0000
  F   F310      1.0  0.48413  0.39932  0.72527  1.0000
  F   F311      1.0  0.48180  0.91725  0.22668  1.0000
  F   F312      1.0  0.48636  0.92695  0.72259  1.0000
  F   F313      1.0  0.74037  0.39475  0.23402  1.0000
  F   F314      1.0  0.73424  0.40802  0.73482  1.0000
  F   F315      1.0  0.73523  0.90231  0.23798  1.0000
  F   F316      1.0  0.73029  0.90522  0.73078  1.0000
  F   F317      1.0  0.98526  0.40309  0.23096  1.0000
  F   F318      1.0  0.98526  0.41099  0.72922  1.0000
  F   F319      1.0  0.98629  0.90432  0.22422  1.0000
  F   F320      1.0  0.98284  0.90631  0.72952  1.0000
  F   F321      1.0  0.20476  0.46201  0.47514  1.0000
  F   F322      1.0  0.20083  0.47107  0.98687  1.0000
  F   F323      1.0  0.21756  0.97484  0.45176  1.0000
  F   F324      1.0  0.21629  0.96752  0.96533  1.0000
  F   F325      1.0  0.45035  0.46381  0.48305  1.0000
  F   F326      1.0  0.44713  0.47670  0.00202  1.0000
  F   F327      1.0  0.46359  0.96790  0.46022  1.0000
  F   F328      1.0  0.45708  0.96964  0.97435  1.0000
  F   F329      1.0  0.71185  0.46868  0.45886  1.0000
  F   F330      1.0  0.70598  0.46960  0.97298  1.0000
  F   F331      1.0  0.69659  0.97213  0.48866  1.0000
  F   F332      1.0  0.71621  0.95963  0.97149  1.0000
  F   F333      1.0  0.96949  0.46351  0.46565  1.0000
  F   F334      1.0  0.94797  0.45764  0.98252  1.0000
  F   F335      1.0  0.95482  0.96286  0.48941  1.0000
  F   F336      1.0  0.95174  0.95944  0.98819  1.0000
  F   F337      1.0  0.02173  0.07327  0.28072  1.0000
  F   F338      1.0  0.01221  0.10573  0.78027  1.0000
  F   F339      1.0  0.02292  0.58753  0.27490  1.0000
  F   F340      1.0  0.00911  0.58877  0.77380  1.0000
  F   F341      1.0  0.26517  0.10716  0.24669  1.0000
  F   F342      1.0  0.26658  0.08862  0.76817  1.0000
  F   F343      1.0  0.26021  0.58916  0.28087  1.0000
  F   F344      1.0  0.26724  0.57527  0.78445  1.0000
  F   F345      1.0  0.52076  0.08756  0.26955  1.0000
  F   F346      1.0  0.51309  0.07817  0.76969  1.0000
  F   F347      1.0  0.51482  0.58869  0.26879  1.0000
  F   F348      1.0  0.51700  0.57103  0.78487  1.0000
  F   F349      1.0  0.77103  0.07220  0.28637  1.0000
  F   F350      1.0  0.76813  0.08597  0.76277  1.0000
  F   F351      1.0  0.76844  0.57897  0.26338  1.0000
  F   F352      1.0  0.76997  0.58638  0.76070  1.0000
  F   F353      1.0  0.10701  0.40638  0.46885  1.0000
  F   F354      1.0  0.09795  0.41473  0.96383  1.0000
  F   F355      1.0  0.10503  0.92092  0.46388  1.0000
  F   F356      1.0  0.09866  0.89996  0.95084  1.0000
  F   F357      1.0  0.34815  0.40915  0.46019  1.0000
  F   F358      1.0  0.34939  0.42766  0.95055  1.0000
  F   F359      1.0  0.35145  0.91339  0.46248  1.0000
  F   F360      1.0  0.34876  0.88626  0.96255  1.0000
  F   F361      1.0  0.59943  0.40472  0.45551  1.0000
  F   F362      1.0  0.60257  0.40655  0.97566  1.0000
  F   F363      1.0  0.60067  0.89856  0.46792  1.0000
  F   F364      1.0  0.59752  0.90826  0.96570  1.0000
  F   F365      1.0  0.85903  0.42149  0.45553  1.0000
  F   F366      1.0  0.85562  0.42092  0.96829  1.0000
  F   F367      1.0  0.85178  0.90758  0.45608  1.0000
  F   F368      1.0  0.84905  0.91340  0.95752  1.0000
  F   F369      1.0  0.04456  0.30232  0.30064  1.0000
  F   F370      1.0  0.03894  0.29709  0.79181  1.0000
  F   F371      1.0  0.04838  0.80850  0.29853  1.0000
  F   F372      1.0  0.04313  0.80088  0.79378  1.0000
  F   F373      1.0  0.29881  0.28422  0.28164  1.0000
  F   F374      1.0  0.30110  0.31180  0.78175  1.0000
  F   F375      1.0  0.28885  0.80589  0.28552  1.0000
  F   F376      1.0  0.29330  0.79825  0.78552  1.0000
  F   F377      1.0  0.54168  0.30326  0.30158  1.0000
  F   F378      1.0  0.56125  0.29498  0.77821  1.0000
  F   F379      1.0  0.54202  0.78727  0.28717  1.0000
  F   F380      1.0  0.55166  0.79251  0.79720  1.0000
  F   F381      1.0  0.80407  0.30198  0.29879  1.0000
  F   F382      1.0  0.79989  0.29966  0.79083  1.0000
  F   F383      1.0  0.79065  0.79911  0.29515  1.0000
  F   F384      1.0  0.79909  0.79373  0.80290  1.0000
