data_image0
_chemical_formula_structural       Hf96F384
_chemical_formula_sum              "Hf96 F384"
_cell_length_a       31.0099
_cell_length_b       15.5063
_cell_length_c       15.5007
_cell_angle_alpha    63.342
_cell_angle_beta     63.342
_cell_angle_gamma    80.1625

_space_group_name_H-M_alt    "P 1"
_space_group_IT_number       1

loop_
  _space_group_symop_operation_xyz
  'x, y, z'

loop_
  _atom_site_type_symbol
  _atom_site_label
  _atom_site_symmetry_multiplicity
  _atom_site_fract_x
  _atom_site_fract_y
  _atom_site_fract_z
  _atom_site_occupancy
  Hf  Hf1       1.0  0.19996  0.10494  0.37183  1.0000
  Hf  Hf2       1.0  0.19378  0.10666  0.87112  1.0000
  Hf  Hf3       1.0  0.19869  0.60571  0.37439  1.0000
  Hf  Hf4       1.0  0.19400  0.60047  0.88684  1.0000
  Hf  Hf5       1.0  0.44587  0.10418  0.37425  1.0000
  Hf  Hf6       1.0  0.44227  0.10521  0.87935  1.0000
  Hf  Hf7       1.0  0.44901  0.61219  0.36909  1.0000
  Hf  Hf8       1.0  0.44589  0.61000  0.87287  1.0000
  Hf  Hf9       1.0  0.69663  0.11177  0.38000  1.0000
  Hf  Hf10      1.0  0.69634  0.11128  0.87410  1.0000
  Hf  Hf11      1.0  0.69388  0.60457  0.38534  1.0000
  Hf  Hf12      1.0  0.69883  0.60180  0.87137  1.0000
  Hf  Hf13      1.0  0.94914  0.10816  0.37689  1.0000
  Hf  Hf14      1.0  0.95087  0.10757  0.86170  1.0000
  Hf  Hf15      1.0  0.94363  0.60803  0.37336  1.0000
  Hf  Hf16      1.0  0.94920  0.60852  0.87049  1.0000
  Hf  Hf17      1.0  0.04786  0.39276  0.13580  1.0000
  Hf  Hf18      1.0  0.05427  0.39327  0.61821  1.0000
  Hf  Hf19      1.0  0.05149  0.89614  0.13031  1.0000
  Hf  Hf20      1.0  0.05319  0.88820  0.63005  1.0000
  Hf  Hf21      1.0  0.30437  0.39230  0.12698  1.0000
  Hf  Hf22      1.0  0.30209  0.38676  0.62973  1.0000
  Hf  Hf23      1.0  0.30532  0.88979  0.11862  1.0000
  Hf  Hf24      1.0  0.30268  0.88723  0.62786  1.0000
  Hf  Hf25      1.0  0.55213  0.39102  0.13436  1.0000
  Hf  Hf26      1.0  0.55213  0.39314  0.62438  1.0000
  Hf  Hf27      1.0  0.55267  0.89045  0.12666  1.0000
  Hf  Hf28      1.0  0.55775  0.89833  0.61028  1.0000
  Hf  Hf29      1.0  0.80138  0.39152  0.12779  1.0000
  Hf  Hf30      1.0  0.80338  0.39659  0.62629  1.0000
  Hf  Hf31      1.0  0.80517  0.89270  0.12207  1.0000
  Hf  Hf32      1.0  0.80263  0.88983  0.62730  1.0000
  Hf  Hf33      1.0  0.05637  0.18156  0.42036  1.0000
  Hf  Hf34      1.0  0.05325  0.18851  0.91433  1.0000
  Hf  Hf35      1.0  0.05725  0.68399  0.41986  1.0000
  Hf  Hf36      1.0  0.05674  0.67539  0.92032  1.0000
  Hf  Hf37      1.0  0.30546  0.18599  0.41142  1.0000
  Hf  Hf38      1.0  0.30191  0.17763  0.92118  1.0000
  Hf  Hf39      1.0  0.31018  0.68582  0.41089  1.0000
  Hf  Hf40      1.0  0.30449  0.67808  0.91701  1.0000
  Hf  Hf41      1.0  0.55564  0.18512  0.41450  1.0000
  Hf  Hf42      1.0  0.55379  0.18056  0.92167  1.0000
  Hf  Hf43      1.0  0.55573  0.68440  0.41817  1.0000
  Hf  Hf44      1.0  0.55998  0.68555  0.91440  1.0000
  Hf  Hf45      1.0  0.80597  0.18313  0.42056  1.0000
  Hf  Hf46      1.0  0.80517  0.18634  0.91937  1.0000
  Hf  Hf47      1.0  0.80684  0.69378  0.41131  1.0000
  Hf  Hf48      1.0  0.80537  0.68934  0.90875  1.0000
  Hf  Hf49      1.0  0.15778  0.38262  0.33663  1.0000
  Hf  Hf50      1.0  0.15640  0.38256  0.83869  1.0000
  Hf  Hf51      1.0  0.16323  0.88427  0.33269  1.0000
  Hf  Hf52      1.0  0.16029  0.88786  0.83146  1.0000
  Hf  Hf53      1.0  0.40944  0.38687  0.33630  1.0000
  Hf  Hf54      1.0  0.40308  0.38666  0.83957  1.0000
  Hf  Hf55      1.0  0.40524  0.89122  0.33695  1.0000
  Hf  Hf56      1.0  0.41060  0.88969  0.82971  1.0000
  Hf  Hf57      1.0  0.65714  0.39685  0.32887  1.0000
  Hf  Hf58      1.0  0.65780  0.38871  0.84084  1.0000
  Hf  Hf59      1.0  0.66186  0.89051  0.33135  1.0000
  Hf  Hf60      1.0  0.66161  0.88876  0.83001  1.0000
  Hf  Hf61      1.0  0.90723  0.39057  0.33436  1.0000
  Hf  Hf62      1.0  0.91313  0.39551  0.82464  1.0000
  Hf  Hf63      1.0  0.91076  0.88812  0.33423  1.0000
  Hf  Hf64      1.0  0.91012  0.88722  0.82733  1.0000
  Hf  Hf65      1.0  0.19441  0.31740  0.08147  1.0000
  Hf  Hf66      1.0  0.19238  0.31745  0.58385  1.0000
  Hf  Hf67      1.0  0.19270  0.82291  0.08225  1.0000
  Hf  Hf68      1.0  0.19443  0.80515  0.59060  1.0000
  Hf  Hf69      1.0  0.44578  0.31527  0.08334  1.0000
  Hf  Hf70      1.0  0.44218  0.32172  0.58521  1.0000
  Hf  Hf71      1.0  0.44589  0.81610  0.08262  1.0000
  Hf  Hf72      1.0  0.44406  0.81880  0.58235  1.0000
  Hf  Hf73      1.0  0.69444  0.31099  0.08954  1.0000
  Hf  Hf74      1.0  0.69093  0.31579  0.58856  1.0000
  Hf  Hf75      1.0  0.69682  0.81337  0.07798  1.0000
  Hf  Hf76      1.0  0.69901  0.82611  0.57678  1.0000
  Hf  Hf77      1.0  0.94297  0.31898  0.08146  1.0000
  Hf  Hf78      1.0  0.94274  0.31597  0.58528  1.0000
  Hf  Hf79      1.0  0.94260  0.81767  0.08348  1.0000
  Hf  Hf80      1.0  0.94386  0.81677  0.58332  1.0000
  Hf  Hf81      1.0  0.09251  0.10596  0.16862  1.0000
  Hf  Hf82      1.0  0.09611  0.10921  0.66431  1.0000
  Hf  Hf83      1.0  0.08882  0.61169  0.17179  1.0000
  Hf  Hf84      1.0  0.09273  0.60093  0.66581  1.0000
  Hf  Hf85      1.0  0.33843  0.11301  0.16468  1.0000
  Hf  Hf86      1.0  0.34185  0.11836  0.66068  1.0000
  Hf  Hf87      1.0  0.34550  0.61207  0.15320  1.0000
  Hf  Hf88      1.0  0.33869  0.60722  0.66885  1.0000
  Hf  Hf89      1.0  0.59143  0.10812  0.16458  1.0000
  Hf  Hf90      1.0  0.58641  0.11184  0.67644  1.0000
  Hf  Hf91      1.0  0.59397  0.61757  0.15909  1.0000
  Hf  Hf92      1.0  0.58786  0.61301  0.67623  1.0000
  Hf  Hf93      1.0  0.84041  0.10909  0.17125  1.0000
  Hf  Hf94      1.0  0.84075  0.11014  0.66794  1.0000
  Hf  Hf95      1.0  0.83994  0.60829  0.16791  1.0000
  Hf  Hf96      1.0  0.84208  0.61264  0.66227  1.0000
  F   F1        1.0  0.08109  0.12982  0.31015  1.0000
  F   F2        1.0  0.07617  0.13278  0.80999  1.0000
  F   F3        1.0  0.07721  0.61903  0.31659  1.0000
  F   F4        1.0  0.08224  0.63035  0.79713  1.0000
  F   F5        1.0  0.33051  0.14149  0.29432  1.0000
  F   F6        1.0  0.32854  0.13044  0.80774  1.0000
  F   F7        1.0  0.33299  0.62984  0.30236  1.0000
  F   F8        1.0  0.33605  0.63142  0.79548  1.0000
  F   F9        1.0  0.58339  0.14116  0.29731  1.0000
  F   F10       1.0  0.56616  0.10693  0.83295  1.0000
  F   F11       1.0  0.58238  0.62702  0.29997  1.0000
  F   F12       1.0  0.57521  0.62623  0.81242  1.0000
  F   F13       1.0  0.83054  0.12400  0.30989  1.0000
  F   F14       1.0  0.82383  0.14000  0.80500  1.0000
  F   F15       1.0  0.82804  0.62849  0.31087  1.0000
  F   F16       1.0  0.82589  0.64130  0.79394  1.0000
  F   F17       1.0  0.18735  0.34787  0.44219  1.0000
  F   F18       1.0  0.18955  0.33747  0.94969  1.0000
  F   F19       1.0  0.18868  0.83718  0.44629  1.0000
  F   F20       1.0  0.18292  0.82936  0.95794  1.0000
  F   F21       1.0  0.43987  0.35429  0.44614  1.0000
  F   F22       1.0  0.43711  0.33143  0.94966  1.0000
  F   F23       1.0  0.43786  0.85385  0.44136  1.0000
  F   F24       1.0  0.43856  0.84300  0.94524  1.0000
  F   F25       1.0  0.68091  0.34884  0.44638  1.0000
  F   F26       1.0  0.67785  0.33788  0.95579  1.0000
  F   F27       1.0  0.68903  0.85078  0.43985  1.0000
  F   F28       1.0  0.69287  0.85315  0.92864  1.0000
  F   F29       1.0  0.93642  0.34328  0.44799  1.0000
  F   F30       1.0  0.93853  0.34165  0.93858  1.0000
  F   F31       1.0  0.93439  0.84140  0.44409  1.0000
  F   F32       1.0  0.94129  0.84541  0.93925  1.0000
  F   F33       1.0  0.17122  0.36328  0.19952  1.0000
  F   F34       1.0  0.16768  0.35301  0.70586  1.0000
  F   F35       1.0  0.17213  0.87465  0.20063  1.0000
  F   F36       1.0  0.17130  0.86189  0.70388  1.0000
  F   F37       1.0  0.41904  0.36887  0.19365  1.0000
  F   F38       1.0  0.42428  0.38301  0.68940  1.0000
  F   F39       1.0  0.41981  0.87963  0.18666  1.0000
  F   F40       1.0  0.42157  0.87106  0.69732  1.0000
  F   F41       1.0  0.66929  0.37798  0.19289  1.0000
  F   F42       1.0  0.66504  0.36218  0.70699  1.0000
  F   F43       1.0  0.67214  0.87006  0.18726  1.0000
  F   F44       1.0  0.66935  0.86437  0.69761  1.0000
  F   F45       1.0  0.92234  0.37333  0.19537  1.0000
  F   F46       1.0  0.91920  0.37131  0.69598  1.0000
  F   F47       1.0  0.91953  0.86707  0.20471  1.0000
  F   F48       1.0  0.92644  0.88248  0.68476  1.0000
  F   F49       1.0  0.06342  0.15760  0.05332  1.0000
  F   F50       1.0  0.07047  0.15174  0.54915  1.0000
  F   F51       1.0  0.06024  0.66628  0.05647  1.0000
  F   F52       1.0  0.06115  0.66062  0.55631  1.0000
  F   F53       1.0  0.30543  0.14812  0.06786  1.0000
  F   F54       1.0  0.30676  0.15812  0.55540  1.0000
  F   F55       1.0  0.32220  0.64178  0.04494  1.0000
  F   F56       1.0  0.31554  0.65706  0.55148  1.0000
  F   F57       1.0  0.56777  0.15621  0.05054  1.0000
  F   F58       1.0  0.56313  0.16298  0.55509  1.0000
  F   F59       1.0  0.56878  0.66861  0.05007  1.0000
  F   F60       1.0  0.56147  0.66102  0.55913  1.0000
  F   F61       1.0  0.80877  0.15599  0.05605  1.0000
  F   F62       1.0  0.81678  0.17134  0.54547  1.0000
  F   F63       1.0  0.82158  0.66832  0.04274  1.0000
  F   F64       1.0  0.80704  0.64514  0.56287  1.0000
  F   F65       1.0  0.20713  0.19996  0.21462  1.0000
  F   F66       1.0  0.20341  0.19458  0.72043  1.0000
  F   F67       1.0  0.20692  0.71508  0.20984  1.0000
  F   F68       1.0  0.20095  0.69487  0.71646  1.0000
  F   F69       1.0  0.45808  0.20464  0.22084  1.0000
  F   F70       1.0  0.44882  0.19951  0.71107  1.0000
  F   F71       1.0  0.44953  0.70813  0.21744  1.0000
  F   F72       1.0  0.46051  0.70209  0.71197  1.0000
  F   F73       1.0  0.70163  0.19514  0.22395  1.0000
  F   F74       1.0  0.70618  0.19909  0.71178  1.0000
  F   F75       1.0  0.69715  0.70117  0.21195  1.0000
  F   F76       1.0  0.70321  0.70250  0.70095  1.0000
  F   F77       1.0  0.96031  0.20442  0.20065  1.0000
  F   F78       1.0  0.95476  0.19814  0.70687  1.0000
  F   F79       1.0  0.94904  0.69840  0.20664  1.0000
  F   F80       1.0  0.96181  0.70578  0.71206  1.0000
  F   F81       1.0  0.15109  0.09176  0.02281  1.0000
  F   F82       1.0  0.14919  0.09021  0.54276  1.0000
  F   F83       1.0  0.15181  0.60305  0.04458  1.0000
  F   F84       1.0  0.14824  0.57423  0.54300  1.0000
  F   F85       1.0  0.39559  0.08805  0.04715  1.0000
  F   F86       1.0  0.39434  0.08679  0.53864  1.0000
  F   F87       1.0  0.40198  0.58404  0.03694  1.0000
  F   F88       1.0  0.39565  0.59151  0.55035  1.0000
  F   F89       1.0  0.64807  0.08371  0.03873  1.0000
  F   F90       1.0  0.65201  0.09766  0.54784  1.0000
  F   F91       1.0  0.64570  0.58183  0.02842  1.0000
  F   F92       1.0  0.64876  0.57565  0.54919  1.0000
  F   F93       1.0  0.89224  0.12134  0.03240  1.0000
  F   F94       1.0  0.90189  0.09449  0.53631  1.0000
  F   F95       1.0  0.89957  0.58106  0.03990  1.0000
  F   F96       1.0  0.89897  0.59150  0.54069  1.0000
  F   F97       1.0  0.15222  0.19649  0.11464  1.0000
  F   F98       1.0  0.15036  0.19300  0.64305  1.0000
  F   F99       1.0  0.14827  0.69189  0.14375  1.0000
  F   F100      1.0  0.15147  0.68916  0.61496  1.0000
  F   F101      1.0  0.40539  0.19863  0.13125  1.0000
  F   F102      1.0  0.39873  0.20137  0.61564  1.0000
  F   F103      1.0  0.40092  0.68697  0.13225  1.0000
  F   F104      1.0  0.40631  0.69323  0.61892  1.0000
  F   F105      1.0  0.64997  0.19423  0.12098  1.0000
  F   F106      1.0  0.65263  0.20084  0.63526  1.0000
  F   F107      1.0  0.64903  0.70966  0.10494  1.0000
  F   F108      1.0  0.65072  0.70876  0.61361  1.0000
  F   F109      1.0  0.89426  0.21196  0.13376  1.0000
  F   F110      1.0  0.90267  0.19145  0.62646  1.0000
  F   F111      1.0  0.89944  0.69314  0.11729  1.0000
  F   F112      1.0  0.90350  0.69735  0.63008  1.0000
  F   F113      1.0  0.09552  0.30591  0.37343  1.0000
  F   F114      1.0  0.09211  0.29960  0.86537  1.0000
  F   F115      1.0  0.10276  0.81293  0.37154  1.0000
  F   F116      1.0  0.09028  0.80124  0.88687  1.0000
  F   F117      1.0  0.34336  0.30848  0.37671  1.0000
  F   F118      1.0  0.34949  0.29471  0.86306  1.0000
  F   F119      1.0  0.35023  0.80418  0.37383  1.0000
  F   F120      1.0  0.35156  0.80845  0.87761  1.0000
  F   F121      1.0  0.60245  0.29590  0.36577  1.0000
  F   F122      1.0  0.59562  0.30681  0.89271  1.0000
  F   F123      1.0  0.60556  0.79597  0.37256  1.0000
  F   F124      1.0  0.60327  0.80354  0.87509  1.0000
  F   F125      1.0  0.84979  0.30115  0.37528  1.0000
  F   F126      1.0  0.85033  0.30160  0.86569  1.0000
  F   F127      1.0  0.84819  0.80856  0.38596  1.0000
  F   F128      1.0  0.84539  0.81899  0.85899  1.0000
  F   F129      1.0  0.06615  0.25856  0.14255  1.0000
  F   F130      1.0  0.06854  0.25373  0.63475  1.0000
  F   F131      1.0  0.06724  0.75540  0.13984  1.0000
  F   F132      1.0  0.06167  0.74979  0.64417  1.0000
  F   F133      1.0  0.32257  0.25016  0.13050  1.0000
  F   F134      1.0  0.30854  0.24397  0.64547  1.0000
  F   F135      1.0  0.31385  0.74409  0.13010  1.0000
  F   F136      1.0  0.30612  0.74923  0.64680  1.0000
  F   F137      1.0  0.55712  0.25127  0.14458  1.0000
  F   F138      1.0  0.56250  0.25345  0.65005  1.0000
  F   F139      1.0  0.55775  0.74658  0.15620  1.0000
  F   F140      1.0  0.56357  0.75752  0.63439  1.0000
  F   F141      1.0  0.81778  0.25461  0.13674  1.0000
  F   F142      1.0  0.81807  0.25127  0.64117  1.0000
  F   F143      1.0  0.81466  0.75401  0.13191  1.0000
  F   F144      1.0  0.81783  0.74901  0.62991  1.0000
  F   F145      1.0  0.12596  0.36953  0.10184  1.0000
  F   F146      1.0  0.13074  0.37941  0.58800  1.0000
  F   F147      1.0  0.12567  0.88199  0.10097  1.0000
  F   F148      1.0  0.12566  0.85464  0.62466  1.0000
  F   F149      1.0  0.37915  0.38762  0.09333  1.0000
  F   F150      1.0  0.37211  0.36249  0.61827  1.0000
  F   F151      1.0  0.37484  0.86100  0.10445  1.0000
  F   F152      1.0  0.37421  0.85328  0.61636  1.0000
  F   F153      1.0  0.62083  0.35187  0.12249  1.0000
  F   F154      1.0  0.62317  0.38594  0.59264  1.0000
  F   F155      1.0  0.61984  0.86143  0.11483  1.0000
  F   F156      1.0  0.62946  0.88930  0.58284  1.0000
  F   F157      1.0  0.87366  0.38939  0.09151  1.0000
  F   F158      1.0  0.87380  0.38011  0.60666  1.0000
  F   F159      1.0  0.87640  0.87046  0.10660  1.0000
  F   F160      1.0  0.87138  0.86419  0.62211  1.0000
  F   F161      1.0  0.18286  0.24823  0.36252  1.0000
  F   F162      1.0  0.17593  0.24568  0.87300  1.0000
  F   F163      1.0  0.18591  0.73672  0.37044  1.0000
  F   F164      1.0  0.18673  0.74082  0.86534  1.0000
  F   F165      1.0  0.42430  0.25167  0.37845  1.0000
  F   F166      1.0  0.42494  0.24189  0.86270  1.0000
  F   F167      1.0  0.43533  0.75734  0.35757  1.0000
  F   F168      1.0  0.43332  0.74495  0.86891  1.0000
  F   F169      1.0  0.68491  0.25404  0.36252  1.0000
  F   F170      1.0  0.68692  0.24835  0.85742  1.0000
  F   F171      1.0  0.68401  0.74828  0.37080  1.0000
  F   F172      1.0  0.69734  0.75172  0.84084  1.0000
  F   F173      1.0  0.94145  0.25541  0.35023  1.0000
  F   F174      1.0  0.93739  0.25217  0.84859  1.0000
  F   F175      1.0  0.93633  0.75084  0.34905  1.0000
  F   F176      1.0  0.92119  0.74634  0.87652  1.0000
  F   F177      1.0  0.13087  0.14087  0.38428  1.0000
  F   F178      1.0  0.12513  0.12983  0.88292  1.0000
  F   F179      1.0  0.12489  0.63612  0.39029  1.0000
  F   F180      1.0  0.12734  0.62697  0.89471  1.0000
  F   F181      1.0  0.37439  0.12953  0.38774  1.0000
  F   F182      1.0  0.37422  0.10644  0.90152  1.0000
  F   F183      1.0  0.37585  0.61878  0.40986  1.0000
  F   F184      1.0  0.37577  0.64134  0.87638  1.0000
  F   F185      1.0  0.62912  0.12061  0.40304  1.0000
  F   F186      1.0  0.62702  0.15173  0.86418  1.0000
  F   F187      1.0  0.62521  0.62402  0.39877  1.0000
  F   F188      1.0  0.62968  0.63385  0.87735  1.0000
  F   F189      1.0  0.88004  0.13340  0.38919  1.0000
  F   F190      1.0  0.87910  0.12107  0.89295  1.0000
  F   F191      1.0  0.87640  0.64471  0.38170  1.0000
  F   F192      1.0  0.87932  0.64560  0.86183  1.0000
  F   F193      1.0  0.00791  0.36361  0.08078  1.0000
  F   F194      1.0  0.00652  0.36203  0.57337  1.0000
  F   F195      1.0  0.00246  0.85698  0.09158  1.0000
  F   F196      1.0  0.01297  0.87215  0.56137  1.0000
  F   F197      1.0  0.25953  0.35775  0.07239  1.0000
  F   F198      1.0  0.25412  0.36643  0.57755  1.0000
  F   F199      1.0  0.25908  0.85600  0.07160  1.0000
  F   F200      1.0  0.25949  0.85983  0.56268  1.0000
  F   F201      1.0  0.50899  0.37870  0.06597  1.0000
  F   F202      1.0  0.50898  0.36630  0.56308  1.0000
  F   F203      1.0  0.50645  0.85912  0.07366  1.0000
  F   F204      1.0  0.50893  0.87397  0.57012  1.0000
  F   F205      1.0  0.75959  0.34245  0.08366  1.0000
  F   F206      1.0  0.75279  0.35623  0.60298  1.0000
  F   F207      1.0  0.75897  0.86508  0.06278  1.0000
  F   F208      1.0  0.75877  0.86386  0.56724  1.0000
  F   F209      1.0  0.06912  0.49089  0.16634  1.0000
  F   F210      1.0  0.06814  0.47228  0.67956  1.0000
  F   F211      1.0  0.06455  0.98925  0.18043  1.0000
  F   F212      1.0  0.06885  0.98390  0.67751  1.0000
  F   F213      1.0  0.31451  0.48590  0.18003  1.0000
  F   F214      1.0  0.31523  0.48501  0.67864  1.0000
  F   F215      1.0  0.32172  0.97986  0.16547  1.0000
  F   F216      1.0  0.31857  0.98502  0.66650  1.0000
  F   F217      1.0  0.57324  0.48540  0.17128  1.0000
  F   F218      1.0  0.56954  0.48623  0.67248  1.0000
  F   F219      1.0  0.57254  0.97826  0.17870  1.0000
  F   F220      1.0  0.57312  0.98634  0.67720  1.0000
  F   F221      1.0  0.81383  0.49242  0.18079  1.0000
  F   F222      1.0  0.81605  0.48933  0.68391  1.0000
  F   F223      1.0  0.82566  0.99047  0.15971  1.0000
  F   F224      1.0  0.81633  0.98573  0.68041  1.0000
  F   F225      1.0  0.24377  0.12586  0.42317  1.0000
  F   F226      1.0  0.24021  0.14296  0.92559  1.0000
  F   F227      1.0  0.25020  0.63370  0.41468  1.0000
  F   F228      1.0  0.24300  0.62720  0.93639  1.0000
  F   F229      1.0  0.48939  0.14877  0.41822  1.0000
  F   F230      1.0  0.48496  0.15031  0.92910  1.0000
  F   F231      1.0  0.49236  0.63693  0.42361  1.0000
  F   F232      1.0  0.49488  0.64126  0.91798  1.0000
  F   F233      1.0  0.74562  0.13954  0.42746  1.0000
  F   F234      1.0  0.73952  0.14277  0.93601  1.0000
  F   F235      1.0  0.74116  0.63940  0.43886  1.0000
  F   F236      1.0  0.74207  0.62967  0.93117  1.0000
  F   F237      1.0  0.99712  0.12502  0.42746  1.0000
  F   F238      1.0  0.98761  0.13277  0.93329  1.0000
  F   F239      1.0  0.99479  0.65126  0.42436  1.0000
  F   F240      1.0  0.99132  0.63108  0.92355  1.0000
  F   F241      1.0  0.18668  0.01815  0.30818  1.0000
  F   F242      1.0  0.18414  0.01614  0.81472  1.0000
  F   F243      1.0  0.18092  0.52192  0.32632  1.0000
  F   F244      1.0  0.18018  0.49963  0.84521  1.0000
  F   F245      1.0  0.42961  0.01540  0.32513  1.0000
  F   F246      1.0  0.43275  0.02320  0.80570  1.0000
  F   F247      1.0  0.42919  0.52409  0.31736  1.0000
  F   F248      1.0  0.42703  0.51304  0.82647  1.0000
  F   F249      1.0  0.68213  0.02005  0.32240  1.0000
  F   F250      1.0  0.68341  0.02518  0.81435  1.0000
  F   F251      1.0  0.68408  0.51233  0.32747  1.0000
  F   F252      1.0  0.68400  0.52094  0.81852  1.0000
  F   F253      1.0  0.93394  0.02284  0.31315  1.0000
  F   F254      1.0  0.93678  0.00652  0.82291  1.0000
  F   F255      1.0  0.92615  0.51738  0.33451  1.0000
  F   F256      1.0  0.93384  0.51998  0.81804  1.0000
  F   F257      1.0  0.00155  0.25544  0.99712  1.0000
  F   F258      1.0  0.99853  0.24266  0.50379  1.0000
  F   F259      1.0  0.99159  0.73051  0.00016  1.0000
  F   F260      1.0  0.00062  0.75905  0.50182  1.0000
  F   F261      1.0  0.25170  0.25356  0.00060  1.0000
  F   F262      1.0  0.24781  0.24691  0.48792  1.0000
  F   F263      1.0  0.25664  0.74168  0.00384  1.0000
  F   F264      1.0  0.25197  0.74997  0.49176  1.0000
  F   F265      1.0  0.50039  0.23733  0.02027  1.0000
  F   F266      1.0  0.49426  0.24445  0.51643  1.0000
  F   F267      1.0  0.50166  0.74081  0.00631  1.0000
  F   F268      1.0  0.49964  0.75917  0.49576  1.0000
  F   F269      1.0  0.74750  0.25657  0.00116  1.0000
  F   F270      1.0  0.74950  0.25652  0.50144  1.0000
  F   F271      1.0  0.75239  0.75333  0.99630  1.0000
  F   F272      1.0  0.75636  0.77453  0.47873  1.0000
  F   F273      1.0  0.12230  0.99199  0.25385  1.0000
  F   F274      1.0  0.12564  0.99643  0.75310  1.0000
  F   F275      1.0  0.12714  0.49591  0.24339  1.0000
  F   F276      1.0  0.11989  0.48445  0.76231  1.0000
  F   F277      1.0  0.36330  0.99509  0.26392  1.0000
  F   F278      1.0  0.37032  0.99476  0.75290  1.0000
  F   F279      1.0  0.37500  0.49748  0.24666  1.0000
  F   F280      1.0  0.36474  0.49133  0.76167  1.0000
  F   F281      1.0  0.62932  0.99877  0.25060  1.0000
  F   F282      1.0  0.62681  0.00309  0.74448  1.0000
  F   F283      1.0  0.63436  0.50965  0.22633  1.0000
  F   F284      1.0  0.62496  0.50290  0.75095  1.0000
  F   F285      1.0  0.87999  0.99908  0.24333  1.0000
  F   F286      1.0  0.87680  0.00862  0.75109  1.0000
  F   F287      1.0  0.87342  0.50154  0.25421  1.0000
  F   F288      1.0  0.87833  0.51121  0.74644  1.0000
  F   F289      1.0  0.03949  0.02694  0.02876  1.0000
  F   F290      1.0  0.04737  0.02774  0.52565  1.0000
  F   F291      1.0  0.04456  0.53329  0.02049  1.0000
  F   F292      1.0  0.04393  0.52825  0.52656  1.0000
  F   F293      1.0  0.28983  0.02776  0.02771  1.0000
  F   F294      1.0  0.28718  0.02528  0.53193  1.0000
  F   F295      1.0  0.29553  0.52091  0.02093  1.0000
  F   F296      1.0  0.29438  0.52709  0.52522  1.0000
  F   F297      1.0  0.54438  0.02748  0.02982  1.0000
  F   F298      1.0  0.54141  0.03338  0.51875  1.0000
  F   F299      1.0  0.53610  0.54556  0.02409  1.0000
  F   F300      1.0  0.54137  0.53424  0.52459  1.0000
  F   F301      1.0  0.79737  0.02907  0.01704  1.0000
  F   F302      1.0  0.79457  0.03073  0.52906  1.0000
  F   F303      1.0  0.79619  0.53772  0.01546  1.0000
  F   F304      1.0  0.79902  0.52680  0.51336  1.0000
  F   F305      1.0  0.23288  0.41453  0.22510  1.0000
  F   F306      1.0  0.22936  0.41533  0.72291  1.0000
  F   F307      1.0  0.23793  0.90741  0.22880  1.0000
  F   F308      1.0  0.23345  0.90822  0.72885  1.0000
  F   F309      1.0  0.48161  0.41790  0.23205  1.0000
  F   F310      1.0  0.48503  0.39575  0.73831  1.0000
  F   F311      1.0  0.48423  0.91058  0.22627  1.0000
  F   F312      1.0  0.49016  0.90276  0.72770  1.0000
  F   F313      1.0  0.73303  0.42556  0.21376  1.0000
  F   F314      1.0  0.73238  0.42080  0.73080  1.0000
  F   F315      1.0  0.73703  0.91970  0.23214  1.0000
  F   F316      1.0  0.73336  0.94356  0.70410  1.0000
  F   F317      1.0  0.98225  0.43393  0.22186  1.0000
  F   F318      1.0  0.98393  0.42049  0.72285  1.0000
  F   F319      1.0  0.98612  0.91300  0.23522  1.0000
  F   F320      1.0  0.98479  0.91553  0.72618  1.0000
  F   F321      1.0  0.21136  0.47614  0.46929  1.0000
  F   F322      1.0  0.20811  0.46316  0.98361  1.0000
  F   F323      1.0  0.20106  0.97289  0.48882  1.0000
  F   F324      1.0  0.21431  0.97165  0.96368  1.0000
  F   F325      1.0  0.44596  0.48010  0.48724  1.0000
  F   F326      1.0  0.45892  0.46253  0.96208  1.0000
  F   F327      1.0  0.45564  0.97459  0.47528  1.0000
  F   F328      1.0  0.45461  0.97172  0.97827  1.0000
  F   F329      1.0  0.71081  0.46762  0.47564  1.0000
  F   F330      1.0  0.70527  0.45776  0.97985  1.0000
  F   F331      1.0  0.71552  0.98051  0.47007  1.0000
  F   F332      1.0  0.70473  0.97125  0.98070  1.0000
  F   F333      1.0  0.95256  0.47781  0.48000  1.0000
  F   F334      1.0  0.96035  0.46427  0.97626  1.0000
  F   F335      1.0  0.95432  0.96490  0.48436  1.0000
  F   F336      1.0  0.95109  0.96970  0.99387  1.0000
  F   F337      1.0  0.01685  0.09607  0.27599  1.0000
  F   F338      1.0  0.01874  0.09733  0.76233  1.0000
  F   F339      1.0  0.01299  0.59041  0.27466  1.0000
  F   F340      1.0  0.02063  0.57590  0.77823  1.0000
  F   F341      1.0  0.26664  0.08526  0.26763  1.0000
  F   F342      1.0  0.26994  0.08664  0.77171  1.0000
  F   F343      1.0  0.26921  0.58383  0.26361  1.0000
  F   F344      1.0  0.26370  0.58473  0.78419  1.0000
  F   F345      1.0  0.52074  0.07810  0.28016  1.0000
  F   F346      1.0  0.51215  0.08373  0.77627  1.0000
  F   F347      1.0  0.51815  0.57995  0.27467  1.0000
  F   F348      1.0  0.51668  0.58705  0.77214  1.0000
  F   F349      1.0  0.76908  0.09205  0.27536  1.0000
  F   F350      1.0  0.76579  0.07754  0.78046  1.0000
  F   F351      1.0  0.76103  0.60490  0.27165  1.0000
  F   F352      1.0  0.76717  0.59681  0.76212  1.0000
  F   F353      1.0  0.10149  0.40380  0.46170  1.0000
  F   F354      1.0  0.09696  0.39475  0.96027  1.0000
  F   F355      1.0  0.10795  0.90253  0.46762  1.0000
  F   F356      1.0  0.10248  0.90293  0.95944  1.0000
  F   F357      1.0  0.34457  0.40441  0.46306  1.0000
  F   F358      1.0  0.35081  0.40005  0.95855  1.0000
  F   F359      1.0  0.35048  0.91267  0.46847  1.0000
  F   F360      1.0  0.35288  0.91585  0.95595  1.0000
  F   F361      1.0  0.59695  0.41319  0.44362  1.0000
  F   F362      1.0  0.59979  0.42637  0.96455  1.0000
  F   F363      1.0  0.60421  0.91627  0.45047  1.0000
  F   F364      1.0  0.60547  0.91346  0.95636  1.0000
  F   F365      1.0  0.85166  0.39444  0.46592  1.0000
  F   F366      1.0  0.85296  0.40525  0.94760  1.0000
  F   F367      1.0  0.85416  0.91421  0.46575  1.0000
  F   F368      1.0  0.85313  0.90200  0.96165  1.0000
  F   F369      1.0  0.04300  0.30337  0.29242  1.0000
  F   F370      1.0  0.04006  0.29038  0.78961  1.0000
  F   F371      1.0  0.05484  0.80121  0.28256  1.0000
  F   F372      1.0  0.03747  0.78615  0.79825  1.0000
  F   F373      1.0  0.29381  0.28799  0.28211  1.0000
  F   F374      1.0  0.28835  0.30458  0.79298  1.0000
  F   F375      1.0  0.30272  0.79074  0.27601  1.0000
  F   F376      1.0  0.29852  0.79251  0.78551  1.0000
  F   F377      1.0  0.53741  0.30352  0.30857  1.0000
  F   F378      1.0  0.55288  0.29650  0.79044  1.0000
  F   F379      1.0  0.54520  0.79864  0.30650  1.0000
  F   F380      1.0  0.55941  0.80085  0.77731  1.0000
  F   F381      1.0  0.79432  0.30437  0.28164  1.0000
  F   F382      1.0  0.78963  0.30388  0.79749  1.0000
  F   F383      1.0  0.79685  0.79934  0.28310  1.0000
  F   F384      1.0  0.78582  0.80129  0.79461  1.0000
