data_image0
_chemical_formula_structural       Hf96F384
_chemical_formula_sum              "Hf96 F384"
_cell_length_a       31.0516
_cell_length_b       15.5177
_cell_length_c       15.5137
_cell_angle_alpha    63.342
_cell_angle_beta     63.342
_cell_angle_gamma    80.1625

_space_group_name_H-M_alt    "P 1"
_space_group_IT_number       1

loop_
  _space_group_symop_operation_xyz
  'x, y, z'

loop_
  _atom_site_type_symbol
  _atom_site_label
  _atom_site_symmetry_multiplicity
  _atom_site_fract_x
  _atom_site_fract_y
  _atom_site_fract_z
  _atom_site_occupancy
  Hf  Hf1       1.0  0.19761  0.10344  0.37617  1.0000
  Hf  Hf2       1.0  0.19454  0.09989  0.88274  1.0000
  Hf  Hf3       1.0  0.19175  0.59664  0.38548  1.0000
  Hf  Hf4       1.0  0.19526  0.60802  0.87546  1.0000
  Hf  Hf5       1.0  0.44340  0.11280  0.37719  1.0000
  Hf  Hf6       1.0  0.44866  0.10085  0.87555  1.0000
  Hf  Hf7       1.0  0.44736  0.60670  0.37534  1.0000
  Hf  Hf8       1.0  0.44508  0.59897  0.87076  1.0000
  Hf  Hf9       1.0  0.69601  0.11492  0.37273  1.0000
  Hf  Hf10      1.0  0.69639  0.10889  0.86442  1.0000
  Hf  Hf11      1.0  0.69616  0.61296  0.37586  1.0000
  Hf  Hf12      1.0  0.69766  0.61192  0.86447  1.0000
  Hf  Hf13      1.0  0.94833  0.11218  0.37801  1.0000
  Hf  Hf14      1.0  0.94385  0.10082  0.88951  1.0000
  Hf  Hf15      1.0  0.94872  0.60520  0.37389  1.0000
  Hf  Hf16      1.0  0.94673  0.60766  0.86917  1.0000
  Hf  Hf17      1.0  0.05312  0.39199  0.13201  1.0000
  Hf  Hf18      1.0  0.05448  0.39399  0.62424  1.0000
  Hf  Hf19      1.0  0.05394  0.89120  0.12962  1.0000
  Hf  Hf20      1.0  0.05475  0.89219  0.62916  1.0000
  Hf  Hf21      1.0  0.30357  0.39255  0.11878  1.0000
  Hf  Hf22      1.0  0.30023  0.39556  0.62801  1.0000
  Hf  Hf23      1.0  0.30541  0.88394  0.12690  1.0000
  Hf  Hf24      1.0  0.30330  0.88472  0.62187  1.0000
  Hf  Hf25      1.0  0.55289  0.39305  0.12435  1.0000
  Hf  Hf26      1.0  0.55271  0.39291  0.62656  1.0000
  Hf  Hf27      1.0  0.55007  0.88621  0.13430  1.0000
  Hf  Hf28      1.0  0.55425  0.89826  0.62165  1.0000
  Hf  Hf29      1.0  0.80537  0.39917  0.11855  1.0000
  Hf  Hf30      1.0  0.80541  0.39894  0.61820  1.0000
  Hf  Hf31      1.0  0.80456  0.89789  0.12322  1.0000
  Hf  Hf32      1.0  0.80457  0.90231  0.60803  1.0000
  Hf  Hf33      1.0  0.05682  0.17783  0.42264  1.0000
  Hf  Hf34      1.0  0.05279  0.17888  0.92700  1.0000
  Hf  Hf35      1.0  0.05737  0.68273  0.41836  1.0000
  Hf  Hf36      1.0  0.05395  0.67871  0.92000  1.0000
  Hf  Hf37      1.0  0.30271  0.18485  0.41820  1.0000
  Hf  Hf38      1.0  0.30624  0.17185  0.92004  1.0000
  Hf  Hf39      1.0  0.30982  0.68047  0.40842  1.0000
  Hf  Hf40      1.0  0.30548  0.67724  0.91436  1.0000
  Hf  Hf41      1.0  0.55915  0.19055  0.41204  1.0000
  Hf  Hf42      1.0  0.55543  0.18568  0.91657  1.0000
  Hf  Hf43      1.0  0.56132  0.69367  0.41208  1.0000
  Hf  Hf44      1.0  0.55857  0.68892  0.90445  1.0000
  Hf  Hf45      1.0  0.80577  0.18810  0.41553  1.0000
  Hf  Hf46      1.0  0.80484  0.18543  0.92838  1.0000
  Hf  Hf47      1.0  0.81038  0.68925  0.40634  1.0000
  Hf  Hf48      1.0  0.80264  0.68048  0.91634  1.0000
  Hf  Hf49      1.0  0.16200  0.38476  0.33587  1.0000
  Hf  Hf50      1.0  0.15560  0.38157  0.84597  1.0000
  Hf  Hf51      1.0  0.16367  0.88652  0.33210  1.0000
  Hf  Hf52      1.0  0.15927  0.88891  0.82933  1.0000
  Hf  Hf53      1.0  0.40893  0.39069  0.33622  1.0000
  Hf  Hf54      1.0  0.41218  0.38678  0.82961  1.0000
  Hf  Hf55      1.0  0.40712  0.89003  0.33303  1.0000
  Hf  Hf56      1.0  0.40934  0.88391  0.83008  1.0000
  Hf  Hf57      1.0  0.65680  0.39238  0.33906  1.0000
  Hf  Hf58      1.0  0.65815  0.38373  0.82715  1.0000
  Hf  Hf59      1.0  0.66003  0.89795  0.32651  1.0000
  Hf  Hf60      1.0  0.66085  0.89333  0.82546  1.0000
  Hf  Hf61      1.0  0.90873  0.39179  0.33198  1.0000
  Hf  Hf62      1.0  0.90622  0.39071  0.83461  1.0000
  Hf  Hf63      1.0  0.90964  0.88765  0.33202  1.0000
  Hf  Hf64      1.0  0.90641  0.88723  0.83597  1.0000
  Hf  Hf65      1.0  0.19339  0.32177  0.07962  1.0000
  Hf  Hf66      1.0  0.19092  0.31329  0.59698  1.0000
  Hf  Hf67      1.0  0.19380  0.80967  0.08639  1.0000
  Hf  Hf68      1.0  0.19319  0.81040  0.58670  1.0000
  Hf  Hf69      1.0  0.44427  0.30887  0.09183  1.0000
  Hf  Hf70      1.0  0.44328  0.31333  0.58504  1.0000
  Hf  Hf71      1.0  0.44468  0.81130  0.08419  1.0000
  Hf  Hf72      1.0  0.44548  0.81173  0.57777  1.0000
  Hf  Hf73      1.0  0.69486  0.33069  0.07491  1.0000
  Hf  Hf74      1.0  0.69559  0.32242  0.57605  1.0000
  Hf  Hf75      1.0  0.69240  0.81976  0.08545  1.0000
  Hf  Hf76      1.0  0.69656  0.82677  0.57040  1.0000
  Hf  Hf77      1.0  0.94627  0.31427  0.08866  1.0000
  Hf  Hf78      1.0  0.94202  0.31283  0.59206  1.0000
  Hf  Hf79      1.0  0.94473  0.81387  0.08836  1.0000
  Hf  Hf80      1.0  0.94371  0.81754  0.57903  1.0000
  Hf  Hf81      1.0  0.09013  0.11443  0.17346  1.0000
  Hf  Hf82      1.0  0.08765  0.11526  0.67526  1.0000
  Hf  Hf83      1.0  0.09550  0.61629  0.15907  1.0000
  Hf  Hf84      1.0  0.09055  0.60780  0.67671  1.0000
  Hf  Hf85      1.0  0.33980  0.11574  0.16536  1.0000
  Hf  Hf86      1.0  0.34089  0.11312  0.66722  1.0000
  Hf  Hf87      1.0  0.34465  0.60863  0.16506  1.0000
  Hf  Hf88      1.0  0.34025  0.60487  0.66831  1.0000
  Hf  Hf89      1.0  0.58094  0.10051  0.18233  1.0000
  Hf  Hf90      1.0  0.59387  0.11674  0.65992  1.0000
  Hf  Hf91      1.0  0.59262  0.61443  0.15600  1.0000
  Hf  Hf92      1.0  0.58946  0.62190  0.66263  1.0000
  Hf  Hf93      1.0  0.83876  0.11324  0.17741  1.0000
  Hf  Hf94      1.0  0.84060  0.10871  0.67820  1.0000
  Hf  Hf95      1.0  0.84075  0.61400  0.16432  1.0000
  Hf  Hf96      1.0  0.83962  0.61408  0.66779  1.0000
  F   F1        1.0  0.08527  0.12454  0.30619  1.0000
  F   F2        1.0  0.07681  0.11977  0.82000  1.0000
  F   F3        1.0  0.08500  0.65646  0.28210  1.0000
  F   F4        1.0  0.07831  0.63069  0.80623  1.0000
  F   F5        1.0  0.32590  0.13371  0.29937  1.0000
  F   F6        1.0  0.33156  0.12587  0.80019  1.0000
  F   F7        1.0  0.33683  0.62917  0.28861  1.0000
  F   F8        1.0  0.33070  0.62004  0.80280  1.0000
  F   F9        1.0  0.57679  0.12945  0.30178  1.0000
  F   F10       1.0  0.58454  0.14527  0.79151  1.0000
  F   F11       1.0  0.58666  0.64476  0.29155  1.0000
  F   F12       1.0  0.57263  0.61842  0.80842  1.0000
  F   F13       1.0  0.82338  0.12806  0.30609  1.0000
  F   F14       1.0  0.83306  0.11637  0.81335  1.0000
  F   F15       1.0  0.82381  0.61810  0.31175  1.0000
  F   F16       1.0  0.82588  0.61024  0.80948  1.0000
  F   F17       1.0  0.19233  0.33641  0.43507  1.0000
  F   F18       1.0  0.19022  0.33866  0.94586  1.0000
  F   F19       1.0  0.18967  0.83899  0.44825  1.0000
  F   F20       1.0  0.19357  0.84366  0.93775  1.0000
  F   F21       1.0  0.43674  0.33929  0.44569  1.0000
  F   F22       1.0  0.43570  0.33621  0.94204  1.0000
  F   F23       1.0  0.44224  0.84731  0.44119  1.0000
  F   F24       1.0  0.42685  0.82393  0.94829  1.0000
  F   F25       1.0  0.69056  0.35432  0.43898  1.0000
  F   F26       1.0  0.68458  0.34816  0.93893  1.0000
  F   F27       1.0  0.68511  0.84444  0.44202  1.0000
  F   F28       1.0  0.69378  0.85720  0.93172  1.0000
  F   F29       1.0  0.94035  0.34220  0.43641  1.0000
  F   F30       1.0  0.93063  0.34035  0.95270  1.0000
  F   F31       1.0  0.93810  0.83839  0.44155  1.0000
  F   F32       1.0  0.92712  0.82810  0.96108  1.0000
  F   F33       1.0  0.17376  0.37616  0.19967  1.0000
  F   F34       1.0  0.16146  0.36677  0.71373  1.0000
  F   F35       1.0  0.18068  0.86620  0.19501  1.0000
  F   F36       1.0  0.16636  0.86625  0.69686  1.0000
  F   F37       1.0  0.42392  0.37463  0.19028  1.0000
  F   F38       1.0  0.41719  0.37559  0.69400  1.0000
  F   F39       1.0  0.42011  0.85888  0.20042  1.0000
  F   F40       1.0  0.42597  0.88152  0.67866  1.0000
  F   F41       1.0  0.66612  0.36794  0.19779  1.0000
  F   F42       1.0  0.67575  0.37935  0.68009  1.0000
  F   F43       1.0  0.66752  0.88437  0.19323  1.0000
  F   F44       1.0  0.67047  0.87915  0.68270  1.0000
  F   F45       1.0  0.92085  0.36607  0.19929  1.0000
  F   F46       1.0  0.91996  0.37383  0.69553  1.0000
  F   F47       1.0  0.91784  0.88041  0.19015  1.0000
  F   F48       1.0  0.92129  0.86599  0.69230  1.0000
  F   F49       1.0  0.05469  0.14612  0.07529  1.0000
  F   F50       1.0  0.06032  0.16383  0.56039  1.0000
  F   F51       1.0  0.06730  0.65352  0.05165  1.0000
  F   F52       1.0  0.05978  0.66792  0.55173  1.0000
  F   F53       1.0  0.31622  0.14840  0.05200  1.0000
  F   F54       1.0  0.31628  0.15611  0.55010  1.0000
  F   F55       1.0  0.31260  0.64689  0.05788  1.0000
  F   F56       1.0  0.32117  0.65467  0.55032  1.0000
  F   F57       1.0  0.55460  0.14819  0.06827  1.0000
  F   F58       1.0  0.57207  0.16021  0.53350  1.0000
  F   F59       1.0  0.56329  0.65792  0.04726  1.0000
  F   F60       1.0  0.56393  0.67892  0.55051  1.0000
  F   F61       1.0  0.80968  0.15316  0.06210  1.0000
  F   F62       1.0  0.80835  0.16681  0.55882  1.0000
  F   F63       1.0  0.81348  0.67838  0.04545  1.0000
  F   F64       1.0  0.80976  0.66086  0.55063  1.0000
  F   F65       1.0  0.20319  0.20645  0.19847  1.0000
  F   F66       1.0  0.20489  0.20303  0.71302  1.0000
  F   F67       1.0  0.19760  0.69148  0.22257  1.0000
  F   F68       1.0  0.21036  0.70537  0.70576  1.0000
  F   F69       1.0  0.46281  0.20530  0.22138  1.0000
  F   F70       1.0  0.45676  0.19875  0.71270  1.0000
  F   F71       1.0  0.45660  0.69575  0.20959  1.0000
  F   F72       1.0  0.44949  0.69092  0.69541  1.0000
  F   F73       1.0  0.71638  0.21879  0.21888  1.0000
  F   F74       1.0  0.70346  0.20294  0.71140  1.0000
  F   F75       1.0  0.68340  0.70124  0.22271  1.0000
  F   F76       1.0  0.71176  0.70476  0.69647  1.0000
  F   F77       1.0  0.96380  0.20813  0.20817  1.0000
  F   F78       1.0  0.94279  0.19780  0.72744  1.0000
  F   F79       1.0  0.96109  0.69975  0.21637  1.0000
  F   F80       1.0  0.95562  0.70039  0.69594  1.0000
  F   F81       1.0  0.14891  0.09069  0.03588  1.0000
  F   F82       1.0  0.14676  0.09271  0.54845  1.0000
  F   F83       1.0  0.14376  0.57201  0.03725  1.0000
  F   F84       1.0  0.14446  0.58193  0.55734  1.0000
  F   F85       1.0  0.40687  0.09434  0.03273  1.0000
  F   F86       1.0  0.39569  0.10137  0.53969  1.0000
  F   F87       1.0  0.39945  0.58051  0.05271  1.0000
  F   F88       1.0  0.40244  0.57955  0.53136  1.0000
  F   F89       1.0  0.63967  0.10540  0.05960  1.0000
  F   F90       1.0  0.65052  0.09275  0.52727  1.0000
  F   F91       1.0  0.64238  0.59313  0.03324  1.0000
  F   F92       1.0  0.64827  0.58516  0.55101  1.0000
  F   F93       1.0  0.89842  0.10469  0.05050  1.0000
  F   F94       1.0  0.89918  0.09480  0.53789  1.0000
  F   F95       1.0  0.89920  0.61218  0.03414  1.0000
  F   F96       1.0  0.89796  0.61799  0.52887  1.0000
  F   F97       1.0  0.15229  0.20433  0.10928  1.0000
  F   F98       1.0  0.14683  0.20106  0.63766  1.0000
  F   F99       1.0  0.15761  0.69285  0.09724  1.0000
  F   F100      1.0  0.15375  0.68568  0.63708  1.0000
  F   F101      1.0  0.39905  0.19472  0.13715  1.0000
  F   F102      1.0  0.40260  0.19920  0.61971  1.0000
  F   F103      1.0  0.40768  0.68776  0.12320  1.0000
  F   F104      1.0  0.40160  0.69809  0.60106  1.0000
  F   F105      1.0  0.65134  0.21664  0.13018  1.0000
  F   F106      1.0  0.65709  0.20329  0.61179  1.0000
  F   F107      1.0  0.65567  0.70261  0.09163  1.0000
  F   F108      1.0  0.65164  0.69243  0.62977  1.0000
  F   F109      1.0  0.89546  0.21091  0.13452  1.0000
  F   F110      1.0  0.90342  0.20232  0.60593  1.0000
  F   F111      1.0  0.90177  0.70423  0.14427  1.0000
  F   F112      1.0  0.89819  0.71621  0.61770  1.0000
  F   F113      1.0  0.09917  0.29671  0.37502  1.0000
  F   F114      1.0  0.09640  0.29530  0.89731  1.0000
  F   F115      1.0  0.09513  0.80019  0.36254  1.0000
  F   F116      1.0  0.09671  0.80618  0.88763  1.0000
  F   F117      1.0  0.34420  0.31055  0.37352  1.0000
  F   F118      1.0  0.35512  0.29740  0.87786  1.0000
  F   F119      1.0  0.34826  0.79267  0.35786  1.0000
  F   F120      1.0  0.35391  0.78584  0.87486  1.0000
  F   F121      1.0  0.58713  0.31644  0.39392  1.0000
  F   F122      1.0  0.60476  0.29557  0.85506  1.0000
  F   F123      1.0  0.60255  0.80781  0.36383  1.0000
  F   F124      1.0  0.59807  0.80646  0.86319  1.0000
  F   F125      1.0  0.85002  0.31048  0.38945  1.0000
  F   F126      1.0  0.84746  0.30385  0.87142  1.0000
  F   F127      1.0  0.84958  0.79666  0.37476  1.0000
  F   F128      1.0  0.85135  0.80496  0.85123  1.0000
  F   F129      1.0  0.06651  0.24747  0.15008  1.0000
  F   F130      1.0  0.06135  0.24831  0.65350  1.0000
  F   F131      1.0  0.06454  0.74899  0.14401  1.0000
  F   F132      1.0  0.06555  0.74244  0.65101  1.0000
  F   F133      1.0  0.31590  0.25159  0.13016  1.0000
  F   F134      1.0  0.31322  0.25247  0.64302  1.0000
  F   F135      1.0  0.32169  0.74433  0.12790  1.0000
  F   F136      1.0  0.31133  0.73973  0.64610  1.0000
  F   F137      1.0  0.55491  0.24486  0.15737  1.0000
  F   F138      1.0  0.57655  0.24858  0.62522  1.0000
  F   F139      1.0  0.55652  0.75046  0.14526  1.0000
  F   F140      1.0  0.56018  0.75798  0.64991  1.0000
  F   F141      1.0  0.81655  0.25388  0.13168  1.0000
  F   F142      1.0  0.81744  0.24605  0.65612  1.0000
  F   F143      1.0  0.81966  0.75283  0.14241  1.0000
  F   F144      1.0  0.81438  0.75680  0.63319  1.0000
  F   F145      1.0  0.12558  0.36822  0.12080  1.0000
  F   F146      1.0  0.12445  0.37299  0.60516  1.0000
  F   F147      1.0  0.12300  0.85488  0.13072  1.0000
  F   F148      1.0  0.12230  0.87407  0.61089  1.0000
  F   F149      1.0  0.37774  0.36121  0.10792  1.0000
  F   F150      1.0  0.37625  0.38137  0.59674  1.0000
  F   F151      1.0  0.37452  0.86109  0.10811  1.0000
  F   F152      1.0  0.37452  0.87736  0.59503  1.0000
  F   F153      1.0  0.62234  0.38498  0.09722  1.0000
  F   F154      1.0  0.62261  0.36442  0.62167  1.0000
  F   F155      1.0  0.61913  0.85656  0.12318  1.0000
  F   F156      1.0  0.62177  0.87406  0.60839  1.0000
  F   F157      1.0  0.87992  0.39126  0.09170  1.0000
  F   F158      1.0  0.87271  0.34912  0.62104  1.0000
  F   F159      1.0  0.87193  0.89872  0.09455  1.0000
  F   F160      1.0  0.87551  0.90025  0.58435  1.0000
  F   F161      1.0  0.18707  0.24560  0.34994  1.0000
  F   F162      1.0  0.18346  0.24372  0.86782  1.0000
  F   F163      1.0  0.17480  0.73848  0.38078  1.0000
  F   F164      1.0  0.18680  0.74798  0.84832  1.0000
  F   F165      1.0  0.43092  0.24814  0.36901  1.0000
  F   F166      1.0  0.43489  0.23246  0.86955  1.0000
  F   F167      1.0  0.43141  0.75224  0.36596  1.0000
  F   F168      1.0  0.43898  0.74357  0.83239  1.0000
  F   F169      1.0  0.66738  0.25143  0.39304  1.0000
  F   F170      1.0  0.68748  0.24898  0.85717  1.0000
  F   F171      1.0  0.68383  0.75825  0.35119  1.0000
  F   F172      1.0  0.67986  0.75045  0.86107  1.0000
  F   F173      1.0  0.93746  0.25129  0.34808  1.0000
  F   F174      1.0  0.93356  0.25246  0.86035  1.0000
  F   F175      1.0  0.93724  0.75890  0.34821  1.0000
  F   F176      1.0  0.93744  0.74412  0.84689  1.0000
  F   F177      1.0  0.12683  0.12229  0.39622  1.0000
  F   F178      1.0  0.12855  0.14152  0.88414  1.0000
  F   F179      1.0  0.12317  0.61205  0.40657  1.0000
  F   F180      1.0  0.12789  0.64149  0.87550  1.0000
  F   F181      1.0  0.37929  0.14284  0.36561  1.0000
  F   F182      1.0  0.37656  0.11822  0.89556  1.0000
  F   F183      1.0  0.37682  0.61810  0.39843  1.0000
  F   F184      1.0  0.37696  0.61768  0.89816  1.0000
  F   F185      1.0  0.63078  0.16133  0.35234  1.0000
  F   F186      1.0  0.62306  0.11472  0.90570  1.0000
  F   F187      1.0  0.62219  0.61830  0.40787  1.0000
  F   F188      1.0  0.62991  0.64662  0.86462  1.0000
  F   F189      1.0  0.87164  0.13460  0.40335  1.0000
  F   F190      1.0  0.87197  0.11872  0.91811  1.0000
  F   F191      1.0  0.87466  0.62314  0.38761  1.0000
  F   F192      1.0  0.87282  0.62851  0.88783  1.0000
  F   F193      1.0  0.01081  0.37226  0.06475  1.0000
  F   F194      1.0  0.01035  0.36114  0.57456  1.0000
  F   F195      1.0  0.00681  0.86036  0.08367  1.0000
  F   F196      1.0  0.01637  0.86400  0.56365  1.0000
  F   F197      1.0  0.25909  0.36687  0.07233  1.0000
  F   F198      1.0  0.25367  0.36093  0.58711  1.0000
  F   F199      1.0  0.25658  0.86676  0.06579  1.0000
  F   F200      1.0  0.25373  0.85541  0.58499  1.0000
  F   F201      1.0  0.51115  0.36591  0.06667  1.0000
  F   F202      1.0  0.50825  0.35357  0.58531  1.0000
  F   F203      1.0  0.50303  0.86332  0.07900  1.0000
  F   F204      1.0  0.50828  0.87148  0.55793  1.0000
  F   F205      1.0  0.76643  0.37967  0.04841  1.0000
  F   F206      1.0  0.76235  0.36497  0.56263  1.0000
  F   F207      1.0  0.75772  0.84741  0.08277  1.0000
  F   F208      1.0  0.75786  0.87176  0.55152  1.0000
  F   F209      1.0  0.06389  0.48320  0.18891  1.0000
  F   F210      1.0  0.06342  0.49120  0.67344  1.0000
  F   F211      1.0  0.06587  0.98972  0.17826  1.0000
  F   F212      1.0  0.06245  0.98382  0.68056  1.0000
  F   F213      1.0  0.32188  0.48507  0.17243  1.0000
  F   F214      1.0  0.31336  0.47522  0.69449  1.0000
  F   F215      1.0  0.32082  0.97596  0.18336  1.0000
  F   F216      1.0  0.32418  0.98208  0.67674  1.0000
  F   F217      1.0  0.57080  0.49010  0.17311  1.0000
  F   F218      1.0  0.56642  0.50094  0.66240  1.0000
  F   F219      1.0  0.56895  0.97093  0.17745  1.0000
  F   F220      1.0  0.57112  0.99062  0.67095  1.0000
  F   F221      1.0  0.81398  0.49222  0.17715  1.0000
  F   F222      1.0  0.82664  0.48894  0.65165  1.0000
  F   F223      1.0  0.81874  0.98916  0.18288  1.0000
  F   F224      1.0  0.81206  0.99150  0.68388  1.0000
  F   F225      1.0  0.24025  0.13449  0.42794  1.0000
  F   F226      1.0  0.24460  0.12788  0.93329  1.0000
  F   F227      1.0  0.24658  0.62439  0.41936  1.0000
  F   F228      1.0  0.23928  0.64222  0.93156  1.0000
  F   F229      1.0  0.49502  0.13371  0.42777  1.0000
  F   F230      1.0  0.49844  0.12940  0.91668  1.0000
  F   F231      1.0  0.48564  0.64718  0.42526  1.0000
  F   F232      1.0  0.49026  0.64000  0.92135  1.0000
  F   F233      1.0  0.74190  0.15889  0.41161  1.0000
  F   F234      1.0  0.74582  0.13008  0.93642  1.0000
  F   F235      1.0  0.74441  0.63924  0.41922  1.0000
  F   F236      1.0  0.73938  0.63504  0.92507  1.0000
  F   F237      1.0  0.99234  0.14315  0.43400  1.0000
  F   F238      1.0  0.98958  0.13059  0.94543  1.0000
  F   F239      1.0  0.98955  0.64541  0.43004  1.0000
  F   F240      1.0  0.99115  0.63880  0.93011  1.0000
  F   F241      1.0  0.18873  0.00763  0.32454  1.0000
  F   F242      1.0  0.18291  0.01055  0.82362  1.0000
  F   F243      1.0  0.18125  0.50308  0.33909  1.0000
  F   F244      1.0  0.17960  0.51284  0.83742  1.0000
  F   F245      1.0  0.42948  0.02102  0.31448  1.0000
  F   F246      1.0  0.43131  0.01595  0.82474  1.0000
  F   F247      1.0  0.42669  0.51235  0.33045  1.0000
  F   F248      1.0  0.43694  0.50617  0.82073  1.0000
  F   F249      1.0  0.67560  0.03180  0.31804  1.0000
  F   F250      1.0  0.68422  0.01476  0.81816  1.0000
  F   F251      1.0  0.69017  0.52273  0.30920  1.0000
  F   F252      1.0  0.67113  0.51675  0.83470  1.0000
  F   F253      1.0  0.92869  0.01941  0.33490  1.0000
  F   F254      1.0  0.93226  0.01008  0.82715  1.0000
  F   F255      1.0  0.93415  0.51423  0.32582  1.0000
  F   F256      1.0  0.93008  0.52201  0.82256  1.0000
  F   F257      1.0  0.00489  0.24954  0.00590  1.0000
  F   F258      1.0  0.00029  0.25239  0.51347  1.0000
  F   F259      1.0  0.00250  0.75070  0.00436  1.0000
  F   F260      1.0  0.00117  0.75472  0.49591  1.0000
  F   F261      1.0  0.25217  0.24361  0.99976  1.0000
  F   F262      1.0  0.24978  0.25028  0.50206  1.0000
  F   F263      1.0  0.25823  0.74501  0.00669  1.0000
  F   F264      1.0  0.24985  0.73959  0.49432  1.0000
  F   F265      1.0  0.49024  0.23028  0.00877  1.0000
  F   F266      1.0  0.49256  0.22578  0.52331  1.0000
  F   F267      1.0  0.50061  0.75637  0.98627  1.0000
  F   F268      1.0  0.50741  0.75260  0.50143  1.0000
  F   F269      1.0  0.75767  0.26395  0.99682  1.0000
  F   F270      1.0  0.75341  0.25542  0.48936  1.0000
  F   F271      1.0  0.74688  0.74523  0.99879  1.0000
  F   F272      1.0  0.74934  0.75177  0.49184  1.0000
  F   F273      1.0  0.13318  0.00596  0.24544  1.0000
  F   F274      1.0  0.11964  0.00113  0.76206  1.0000
  F   F275      1.0  0.12887  0.50217  0.25339  1.0000
  F   F276      1.0  0.12219  0.49029  0.76397  1.0000
  F   F277      1.0  0.36975  0.99419  0.25368  1.0000
  F   F278      1.0  0.37587  0.00013  0.74443  1.0000
  F   F279      1.0  0.38299  0.49836  0.24146  1.0000
  F   F280      1.0  0.37755  0.49287  0.75199  1.0000
  F   F281      1.0  0.61754  0.99871  0.26189  1.0000
  F   F282      1.0  0.62269  0.00220  0.75630  1.0000
  F   F283      1.0  0.62982  0.50872  0.24322  1.0000
  F   F284      1.0  0.61668  0.48451  0.76275  1.0000
  F   F285      1.0  0.87555  0.99280  0.25193  1.0000
  F   F286      1.0  0.87505  0.98980  0.74529  1.0000
  F   F287      1.0  0.88529  0.50625  0.22379  1.0000
  F   F288      1.0  0.88226  0.51592  0.73160  1.0000
  F   F289      1.0  0.04423  0.01954  0.02001  1.0000
  F   F290      1.0  0.04944  0.02585  0.51901  1.0000
  F   F291      1.0  0.05199  0.53090  0.01183  1.0000
  F   F292      1.0  0.04520  0.52844  0.52702  1.0000
  F   F293      1.0  0.28818  0.02974  0.03300  1.0000
  F   F294      1.0  0.29909  0.02619  0.51286  1.0000
  F   F295      1.0  0.29145  0.52877  0.02317  1.0000
  F   F296      1.0  0.29108  0.53149  0.52024  1.0000
  F   F297      1.0  0.54797  0.01742  0.02245  1.0000
  F   F298      1.0  0.54731  0.03542  0.51832  1.0000
  F   F299      1.0  0.54485  0.53418  0.01963  1.0000
  F   F300      1.0  0.54188  0.54382  0.51766  1.0000
  F   F301      1.0  0.79365  0.02617  0.02041  1.0000
  F   F302      1.0  0.78820  0.03833  0.52219  1.0000
  F   F303      1.0  0.79674  0.53502  0.01671  1.0000
  F   F304      1.0  0.79200  0.54193  0.51178  1.0000
  F   F305      1.0  0.23537  0.42245  0.21931  1.0000
  F   F306      1.0  0.23048  0.41129  0.73363  1.0000
  F   F307      1.0  0.23794  0.90495  0.23762  1.0000
  F   F308      1.0  0.23666  0.91378  0.72482  1.0000
  F   F309      1.0  0.48495  0.40971  0.22966  1.0000
  F   F310      1.0  0.48505  0.40369  0.72445  1.0000
  F   F311      1.0  0.48226  0.90513  0.23172  1.0000
  F   F312      1.0  0.48742  0.91468  0.72552  1.0000
  F   F313      1.0  0.73945  0.38797  0.24098  1.0000
  F   F314      1.0  0.73429  0.41405  0.72304  1.0000
  F   F315      1.0  0.73366  0.89811  0.23514  1.0000
  F   F316      1.0  0.73321  0.90540  0.71650  1.0000
  F   F317      1.0  0.98496  0.42052  0.21893  1.0000
  F   F318      1.0  0.98594  0.40377  0.73325  1.0000
  F   F319      1.0  0.97665  0.92870  0.22793  1.0000
  F   F320      1.0  0.98288  0.90267  0.73200  1.0000
  F   F321      1.0  0.20020  0.45990  0.50009  1.0000
  F   F322      1.0  0.21593  0.46667  0.96405  1.0000
  F   F323      1.0  0.20567  0.96576  0.47925  1.0000
  F   F324      1.0  0.20660  0.96723  0.98183  1.0000
  F   F325      1.0  0.46069  0.46118  0.46965  1.0000
  F   F326      1.0  0.45990  0.47245  0.96988  1.0000
  F   F327      1.0  0.44894  0.97484  0.46965  1.0000
  F   F328      1.0  0.45112  0.95551  0.98455  1.0000
  F   F329      1.0  0.70275  0.47309  0.47402  1.0000
  F   F330      1.0  0.70575  0.46871  0.97502  1.0000
  F   F331      1.0  0.70372  0.97890  0.47440  1.0000
  F   F332      1.0  0.69388  0.97613  0.99215  1.0000
  F   F333      1.0  0.94650  0.46282  0.49760  1.0000
  F   F334      1.0  0.95972  0.47571  0.97128  1.0000
  F   F335      1.0  0.96571  0.96322  0.46423  1.0000
  F   F336      1.0  0.95632  0.96477  0.98209  1.0000
  F   F337      1.0  0.01824  0.09422  0.28413  1.0000
  F   F338      1.0  0.00839  0.08244  0.78049  1.0000
  F   F339      1.0  0.02244  0.57966  0.28908  1.0000
  F   F340      1.0  0.01485  0.58121  0.78417  1.0000
  F   F341      1.0  0.26394  0.08324  0.26893  1.0000
  F   F342      1.0  0.26064  0.08464  0.78622  1.0000
  F   F343      1.0  0.26589  0.58227  0.28188  1.0000
  F   F344      1.0  0.26845  0.59626  0.76878  1.0000
  F   F345      1.0  0.51005  0.07515  0.26889  1.0000
  F   F346      1.0  0.51897  0.07315  0.78010  1.0000
  F   F347      1.0  0.52132  0.57740  0.27670  1.0000
  F   F348      1.0  0.51454  0.58729  0.76482  1.0000
  F   F349      1.0  0.76561  0.07753  0.27967  1.0000
  F   F350      1.0  0.76409  0.08255  0.78571  1.0000
  F   F351      1.0  0.76341  0.60763  0.24503  1.0000
  F   F352      1.0  0.76415  0.58960  0.77185  1.0000
  F   F353      1.0  0.10131  0.38959  0.46582  1.0000
  F   F354      1.0  0.10361  0.39939  0.98158  1.0000
  F   F355      1.0  0.10390  0.90062  0.44693  1.0000
  F   F356      1.0  0.10683  0.91250  0.96335  1.0000
  F   F357      1.0  0.34664  0.41593  0.46483  1.0000
  F   F358      1.0  0.35496  0.41939  0.96092  1.0000
  F   F359      1.0  0.34513  0.88839  0.46325  1.0000
  F   F360      1.0  0.34800  0.91045  0.94914  1.0000
  F   F361      1.0  0.60590  0.41671  0.46105  1.0000
  F   F362      1.0  0.59912  0.38350  0.96298  1.0000
  F   F363      1.0  0.60500  0.91137  0.45861  1.0000
  F   F364      1.0  0.60345  0.90492  0.95306  1.0000
  F   F365      1.0  0.85219  0.42309  0.46138  1.0000
  F   F366      1.0  0.85325  0.41253  0.95299  1.0000
  F   F367      1.0  0.84843  0.91050  0.46029  1.0000
  F   F368      1.0  0.85270  0.90888  0.95931  1.0000
  F   F369      1.0  0.03572  0.29560  0.29655  1.0000
  F   F370      1.0  0.05039  0.28696  0.79155  1.0000
  F   F371      1.0  0.03922  0.81128  0.28051  1.0000
  F   F372      1.0  0.05051  0.79894  0.78807  1.0000
  F   F373      1.0  0.29794  0.30341  0.27258  1.0000
  F   F374      1.0  0.29543  0.29259  0.79489  1.0000
  F   F375      1.0  0.29702  0.78970  0.27903  1.0000
  F   F376      1.0  0.29792  0.79447  0.77391  1.0000
  F   F377      1.0  0.54347  0.30320  0.29321  1.0000
  F   F378      1.0  0.54388  0.29666  0.78765  1.0000
  F   F379      1.0  0.54470  0.79648  0.28902  1.0000
  F   F380      1.0  0.54500  0.79799  0.79418  1.0000
  F   F381      1.0  0.81498  0.29485  0.27556  1.0000
  F   F382      1.0  0.79348  0.31768  0.78357  1.0000
  F   F383      1.0  0.80174  0.80482  0.28329  1.0000
  F   F384      1.0  0.79775  0.78700  0.78451  1.0000
