data_image0
_chemical_formula_structural       Hf96F384
_chemical_formula_sum              "Hf96 F384"
_cell_length_a       31.0194
_cell_length_b       15.5062
_cell_length_c       15.5006
_cell_angle_alpha    63.342
_cell_angle_beta     63.342
_cell_angle_gamma    80.1625

_space_group_name_H-M_alt    "P 1"
_space_group_IT_number       1

loop_
  _space_group_symop_operation_xyz
  'x, y, z'

loop_
  _atom_site_type_symbol
  _atom_site_label
  _atom_site_symmetry_multiplicity
  _atom_site_fract_x
  _atom_site_fract_y
  _atom_site_fract_z
  _atom_site_occupancy
  Hf  Hf1       1.0  0.19295  0.11039  0.38290  1.0000
  Hf  Hf2       1.0  0.19385  0.10761  0.86962  1.0000
  Hf  Hf3       1.0  0.19460  0.60290  0.37836  1.0000
  Hf  Hf4       1.0  0.19672  0.59702  0.88472  1.0000
  Hf  Hf5       1.0  0.44763  0.10787  0.38051  1.0000
  Hf  Hf6       1.0  0.44564  0.11058  0.87603  1.0000
  Hf  Hf7       1.0  0.44764  0.60387  0.37577  1.0000
  Hf  Hf8       1.0  0.44618  0.60792  0.87116  1.0000
  Hf  Hf9       1.0  0.69746  0.10610  0.37685  1.0000
  Hf  Hf10      1.0  0.69819  0.11563  0.86390  1.0000
  Hf  Hf11      1.0  0.69496  0.61101  0.37129  1.0000
  Hf  Hf12      1.0  0.69635  0.61333  0.86321  1.0000
  Hf  Hf13      1.0  0.94986  0.10845  0.36987  1.0000
  Hf  Hf14      1.0  0.94507  0.10714  0.87315  1.0000
  Hf  Hf15      1.0  0.94774  0.60892  0.36583  1.0000
  Hf  Hf16      1.0  0.94653  0.59973  0.88189  1.0000
  Hf  Hf17      1.0  0.05300  0.39169  0.12433  1.0000
  Hf  Hf18      1.0  0.05344  0.39117  0.62425  1.0000
  Hf  Hf19      1.0  0.05545  0.89148  0.12601  1.0000
  Hf  Hf20      1.0  0.05276  0.88771  0.62973  1.0000
  Hf  Hf21      1.0  0.30251  0.39132  0.13199  1.0000
  Hf  Hf22      1.0  0.30619  0.39562  0.61501  1.0000
  Hf  Hf23      1.0  0.30107  0.89423  0.12819  1.0000
  Hf  Hf24      1.0  0.30126  0.88790  0.62784  1.0000
  Hf  Hf25      1.0  0.55325  0.38800  0.13015  1.0000
  Hf  Hf26      1.0  0.55547  0.39759  0.62395  1.0000
  Hf  Hf27      1.0  0.55362  0.89589  0.12789  1.0000
  Hf  Hf28      1.0  0.55251  0.90495  0.62200  1.0000
  Hf  Hf29      1.0  0.80233  0.39338  0.12180  1.0000
  Hf  Hf30      1.0  0.80461  0.39605  0.62140  1.0000
  Hf  Hf31      1.0  0.80532  0.89688  0.11150  1.0000
  Hf  Hf32      1.0  0.80346  0.89106  0.62913  1.0000
  Hf  Hf33      1.0  0.05706  0.18736  0.41450  1.0000
  Hf  Hf34      1.0  0.05385  0.17452  0.92170  1.0000
  Hf  Hf35      1.0  0.05742  0.68288  0.41416  1.0000
  Hf  Hf36      1.0  0.05455  0.68120  0.91843  1.0000
  Hf  Hf37      1.0  0.30891  0.17998  0.41852  1.0000
  Hf  Hf38      1.0  0.30716  0.18662  0.91074  1.0000
  Hf  Hf39      1.0  0.30817  0.67877  0.42152  1.0000
  Hf  Hf40      1.0  0.30594  0.67811  0.92333  1.0000
  Hf  Hf41      1.0  0.55636  0.18378  0.41532  1.0000
  Hf  Hf42      1.0  0.55561  0.18681  0.91397  1.0000
  Hf  Hf43      1.0  0.55381  0.68901  0.41396  1.0000
  Hf  Hf44      1.0  0.54918  0.67651  0.92716  1.0000
  Hf  Hf45      1.0  0.81148  0.18819  0.40550  1.0000
  Hf  Hf46      1.0  0.80263  0.18384  0.91550  1.0000
  Hf  Hf47      1.0  0.80611  0.68842  0.41298  1.0000
  Hf  Hf48      1.0  0.80375  0.68455  0.91396  1.0000
  Hf  Hf49      1.0  0.15816  0.38194  0.33210  1.0000
  Hf  Hf50      1.0  0.16201  0.38330  0.83077  1.0000
  Hf  Hf51      1.0  0.15831  0.88404  0.33407  1.0000
  Hf  Hf52      1.0  0.15916  0.87984  0.83757  1.0000
  Hf  Hf53      1.0  0.41127  0.38890  0.33321  1.0000
  Hf  Hf54      1.0  0.40876  0.38321  0.83500  1.0000
  Hf  Hf55      1.0  0.40940  0.89220  0.33356  1.0000
  Hf  Hf56      1.0  0.40523  0.88371  0.83977  1.0000
  Hf  Hf57      1.0  0.65843  0.38546  0.32989  1.0000
  Hf  Hf58      1.0  0.65905  0.38794  0.83669  1.0000
  Hf  Hf59      1.0  0.66151  0.88700  0.33392  1.0000
  Hf  Hf60      1.0  0.65592  0.89436  0.83115  1.0000
  Hf  Hf61      1.0  0.90408  0.38446  0.33709  1.0000
  Hf  Hf62      1.0  0.90984  0.38493  0.83568  1.0000
  Hf  Hf63      1.0  0.90975  0.88230  0.34149  1.0000
  Hf  Hf64      1.0  0.91242  0.88505  0.83043  1.0000
  Hf  Hf65      1.0  0.19292  0.31683  0.08482  1.0000
  Hf  Hf66      1.0  0.19660  0.31786  0.57829  1.0000
  Hf  Hf67      1.0  0.19554  0.80827  0.08620  1.0000
  Hf  Hf68      1.0  0.19519  0.81534  0.57777  1.0000
  Hf  Hf69      1.0  0.44242  0.31530  0.08751  1.0000
  Hf  Hf70      1.0  0.44334  0.31640  0.58673  1.0000
  Hf  Hf71      1.0  0.44272  0.82585  0.07901  1.0000
  Hf  Hf72      1.0  0.44312  0.82039  0.58692  1.0000
  Hf  Hf73      1.0  0.69270  0.31835  0.08727  1.0000
  Hf  Hf74      1.0  0.69379  0.32024  0.57565  1.0000
  Hf  Hf75      1.0  0.69568  0.82104  0.07028  1.0000
  Hf  Hf76      1.0  0.69334  0.82814  0.58660  1.0000
  Hf  Hf77      1.0  0.94241  0.31123  0.08980  1.0000
  Hf  Hf78      1.0  0.94440  0.32236  0.58246  1.0000
  Hf  Hf79      1.0  0.94558  0.81953  0.08059  1.0000
  Hf  Hf80      1.0  0.94652  0.81724  0.58305  1.0000
  Hf  Hf81      1.0  0.09519  0.11187  0.16173  1.0000
  Hf  Hf82      1.0  0.08809  0.11159  0.66934  1.0000
  Hf  Hf83      1.0  0.09085  0.60805  0.16860  1.0000
  Hf  Hf84      1.0  0.09341  0.60086  0.67099  1.0000
  Hf  Hf85      1.0  0.34228  0.10766  0.16589  1.0000
  Hf  Hf86      1.0  0.33926  0.11128  0.67174  1.0000
  Hf  Hf87      1.0  0.34323  0.61315  0.16679  1.0000
  Hf  Hf88      1.0  0.34440  0.60863  0.66382  1.0000
  Hf  Hf89      1.0  0.59263  0.11386  0.16061  1.0000
  Hf  Hf90      1.0  0.59187  0.11958  0.66460  1.0000
  Hf  Hf91      1.0  0.59139  0.61284  0.16266  1.0000
  Hf  Hf92      1.0  0.59068  0.62262  0.66621  1.0000
  Hf  Hf93      1.0  0.84108  0.10856  0.16919  1.0000
  Hf  Hf94      1.0  0.84033  0.11317  0.66864  1.0000
  Hf  Hf95      1.0  0.83749  0.61182  0.16858  1.0000
  Hf  Hf96      1.0  0.84091  0.61165  0.66264  1.0000
  F   F1        1.0  0.08298  0.13971  0.30416  1.0000
  F   F2        1.0  0.07196  0.11623  0.81601  1.0000
  F   F3        1.0  0.07710  0.64176  0.29302  1.0000
  F   F4        1.0  0.08984  0.63800  0.79253  1.0000
  F   F5        1.0  0.33135  0.11781  0.30126  1.0000
  F   F6        1.0  0.32509  0.13375  0.79883  1.0000
  F   F7        1.0  0.32872  0.62133  0.30809  1.0000
  F   F8        1.0  0.32893  0.62635  0.80613  1.0000
  F   F9        1.0  0.57557  0.13341  0.29905  1.0000
  F   F10       1.0  0.57671  0.12645  0.80883  1.0000
  F   F11       1.0  0.57880  0.62724  0.31278  1.0000
  F   F12       1.0  0.57426  0.61372  0.81310  1.0000
  F   F13       1.0  0.82904  0.12106  0.30766  1.0000
  F   F14       1.0  0.82512  0.13489  0.80631  1.0000
  F   F15       1.0  0.82868  0.63035  0.29642  1.0000
  F   F16       1.0  0.82898  0.62638  0.80092  1.0000
  F   F17       1.0  0.18159  0.33920  0.44455  1.0000
  F   F18       1.0  0.18327  0.33923  0.94727  1.0000
  F   F19       1.0  0.18551  0.85143  0.44389  1.0000
  F   F20       1.0  0.18445  0.82676  0.95721  1.0000
  F   F21       1.0  0.42696  0.33257  0.46424  1.0000
  F   F22       1.0  0.43689  0.32925  0.95340  1.0000
  F   F23       1.0  0.44717  0.85235  0.43767  1.0000
  F   F24       1.0  0.43219  0.83514  0.94655  1.0000
  F   F25       1.0  0.68379  0.33435  0.43944  1.0000
  F   F26       1.0  0.69444  0.35285  0.93739  1.0000
  F   F27       1.0  0.68432  0.84099  0.44958  1.0000
  F   F28       1.0  0.68796  0.84303  0.93363  1.0000
  F   F29       1.0  0.92751  0.33449  0.45500  1.0000
  F   F30       1.0  0.93882  0.33698  0.93959  1.0000
  F   F31       1.0  0.94139  0.84699  0.44700  1.0000
  F   F32       1.0  0.93916  0.83250  0.94013  1.0000
  F   F33       1.0  0.17107  0.38312  0.19114  1.0000
  F   F34       1.0  0.17147  0.37137  0.69242  1.0000
  F   F35       1.0  0.17398  0.88402  0.19340  1.0000
  F   F36       1.0  0.16939  0.86242  0.70848  1.0000
  F   F37       1.0  0.42313  0.37269  0.20080  1.0000
  F   F38       1.0  0.42350  0.38862  0.68430  1.0000
  F   F39       1.0  0.42433  0.86282  0.19299  1.0000
  F   F40       1.0  0.41218  0.87042  0.70799  1.0000
  F   F41       1.0  0.67529  0.40388  0.17550  1.0000
  F   F42       1.0  0.67191  0.36496  0.69641  1.0000
  F   F43       1.0  0.66926  0.86251  0.20738  1.0000
  F   F44       1.0  0.67399  0.87739  0.69296  1.0000
  F   F45       1.0  0.91710  0.35589  0.20420  1.0000
  F   F46       1.0  0.91904  0.35429  0.70705  1.0000
  F   F47       1.0  0.91719  0.86909  0.19994  1.0000
  F   F48       1.0  0.92315  0.87873  0.69485  1.0000
  F   F49       1.0  0.06160  0.15372  0.06070  1.0000
  F   F50       1.0  0.07289  0.17045  0.54330  1.0000
  F   F51       1.0  0.07407  0.66151  0.04885  1.0000
  F   F52       1.0  0.06672  0.66765  0.55369  1.0000
  F   F53       1.0  0.31012  0.16657  0.04837  1.0000
  F   F54       1.0  0.30858  0.14268  0.56198  1.0000
  F   F55       1.0  0.31011  0.64797  0.06468  1.0000
  F   F56       1.0  0.30768  0.65736  0.55855  1.0000
  F   F57       1.0  0.56378  0.14903  0.06051  1.0000
  F   F58       1.0  0.56986  0.16031  0.54296  1.0000
  F   F59       1.0  0.55732  0.65842  0.06574  1.0000
  F   F60       1.0  0.56834  0.65846  0.54926  1.0000
  F   F61       1.0  0.81502  0.16492  0.05322  1.0000
  F   F62       1.0  0.81876  0.16883  0.53384  1.0000
  F   F63       1.0  0.80757  0.66543  0.05189  1.0000
  F   F64       1.0  0.81011  0.65362  0.56095  1.0000
  F   F65       1.0  0.20829  0.20172  0.19542  1.0000
  F   F66       1.0  0.20417  0.20293  0.71388  1.0000
  F   F67       1.0  0.20234  0.69675  0.21165  1.0000
  F   F68       1.0  0.20086  0.70697  0.71032  1.0000
  F   F69       1.0  0.45190  0.20610  0.20377  1.0000
  F   F70       1.0  0.45576  0.21368  0.72327  1.0000
  F   F71       1.0  0.45802  0.70354  0.21923  1.0000
  F   F72       1.0  0.45542  0.71495  0.70781  1.0000
  F   F73       1.0  0.70515  0.19977  0.20725  1.0000
  F   F74       1.0  0.69742  0.20158  0.70985  1.0000
  F   F75       1.0  0.70548  0.70303  0.21089  1.0000
  F   F76       1.0  0.69966  0.71360  0.70561  1.0000
  F   F77       1.0  0.96604  0.19581  0.20452  1.0000
  F   F78       1.0  0.94987  0.19615  0.72226  1.0000
  F   F79       1.0  0.96149  0.70116  0.20338  1.0000
  F   F80       1.0  0.95205  0.69493  0.71420  1.0000
  F   F81       1.0  0.14881  0.09005  0.03105  1.0000
  F   F82       1.0  0.15797  0.10659  0.54283  1.0000
  F   F83       1.0  0.15369  0.56964  0.05431  1.0000
  F   F84       1.0  0.14619  0.57290  0.53546  1.0000
  F   F85       1.0  0.39797  0.09266  0.03865  1.0000
  F   F86       1.0  0.39642  0.12343  0.53447  1.0000
  F   F87       1.0  0.40083  0.58683  0.04363  1.0000
  F   F88       1.0  0.39608  0.58943  0.53620  1.0000
  F   F89       1.0  0.64709  0.09381  0.02872  1.0000
  F   F90       1.0  0.64925  0.09239  0.53003  1.0000
  F   F91       1.0  0.64201  0.60594  0.02863  1.0000
  F   F92       1.0  0.65195  0.59541  0.52118  1.0000
  F   F93       1.0  0.90024  0.09203  0.05604  1.0000
  F   F94       1.0  0.89773  0.08836  0.54664  1.0000
  F   F95       1.0  0.90093  0.60012  0.03133  1.0000
  F   F96       1.0  0.89962  0.59453  0.53308  1.0000
  F   F97       1.0  0.15237  0.19179  0.11260  1.0000
  F   F98       1.0  0.14667  0.20041  0.64000  1.0000
  F   F99       1.0  0.15322  0.69046  0.12094  1.0000
  F   F100      1.0  0.15127  0.69269  0.60800  1.0000
  F   F101      1.0  0.40037  0.19440  0.12096  1.0000
  F   F102      1.0  0.40806  0.19645  0.63535  1.0000
  F   F103      1.0  0.39651  0.70250  0.13864  1.0000
  F   F104      1.0  0.40196  0.69381  0.61872  1.0000
  F   F105      1.0  0.65499  0.18735  0.12208  1.0000
  F   F106      1.0  0.65084  0.20441  0.61526  1.0000
  F   F107      1.0  0.65198  0.70929  0.11140  1.0000
  F   F108      1.0  0.64240  0.70828  0.62970  1.0000
  F   F109      1.0  0.90011  0.20297  0.13224  1.0000
  F   F110      1.0  0.90213  0.19024  0.63971  1.0000
  F   F111      1.0  0.90011  0.70288  0.12797  1.0000
  F   F112      1.0  0.90196  0.70250  0.61269  1.0000
  F   F113      1.0  0.10134  0.29428  0.36346  1.0000
  F   F114      1.0  0.09652  0.30558  0.88138  1.0000
  F   F115      1.0  0.09875  0.80392  0.37159  1.0000
  F   F116      1.0  0.09936  0.80039  0.88535  1.0000
  F   F117      1.0  0.35107  0.29686  0.38740  1.0000
  F   F118      1.0  0.35349  0.31445  0.85537  1.0000
  F   F119      1.0  0.35068  0.80038  0.36666  1.0000
  F   F120      1.0  0.34605  0.79470  0.89271  1.0000
  F   F121      1.0  0.60104  0.31294  0.36209  1.0000
  F   F122      1.0  0.60166  0.29626  0.89346  1.0000
  F   F123      1.0  0.59171  0.81772  0.37781  1.0000
  F   F124      1.0  0.59933  0.80513  0.87675  1.0000
  F   F125      1.0  0.84395  0.31861  0.36992  1.0000
  F   F126      1.0  0.84548  0.30306  0.86297  1.0000
  F   F127      1.0  0.84507  0.80283  0.39911  1.0000
  F   F128      1.0  0.84948  0.80086  0.87086  1.0000
  F   F129      1.0  0.06338  0.24739  0.14396  1.0000
  F   F130      1.0  0.06220  0.24513  0.64767  1.0000
  F   F131      1.0  0.05593  0.75148  0.15258  1.0000
  F   F132      1.0  0.05167  0.75148  0.66026  1.0000
  F   F133      1.0  0.31587  0.24243  0.15197  1.0000
  F   F134      1.0  0.32325  0.25579  0.62013  1.0000
  F   F135      1.0  0.31449  0.74575  0.13732  1.0000
  F   F136      1.0  0.31609  0.75067  0.64288  1.0000
  F   F137      1.0  0.57228  0.25459  0.11978  1.0000
  F   F138      1.0  0.56318  0.25703  0.64582  1.0000
  F   F139      1.0  0.56128  0.75044  0.15301  1.0000
  F   F140      1.0  0.56095  0.76861  0.64337  1.0000
  F   F141      1.0  0.80654  0.24499  0.15331  1.0000
  F   F142      1.0  0.81982  0.25914  0.62594  1.0000
  F   F143      1.0  0.81256  0.75527  0.13758  1.0000
  F   F144      1.0  0.81160  0.74888  0.64961  1.0000
  F   F145      1.0  0.12537  0.36840  0.10532  1.0000
  F   F146      1.0  0.12263  0.37502  0.60532  1.0000
  F   F147      1.0  0.12542  0.84918  0.12697  1.0000
  F   F148      1.0  0.12459  0.84972  0.62226  1.0000
  F   F149      1.0  0.37105  0.36702  0.12940  1.0000
  F   F150      1.0  0.37371  0.36775  0.61471  1.0000
  F   F151      1.0  0.37523  0.88890  0.09663  1.0000
  F   F152      1.0  0.37577  0.86838  0.60343  1.0000
  F   F153      1.0  0.62125  0.34276  0.13804  1.0000
  F   F154      1.0  0.62452  0.37225  0.61005  1.0000
  F   F155      1.0  0.62815  0.88525  0.09254  1.0000
  F   F156      1.0  0.62381  0.87036  0.62002  1.0000
  F   F157      1.0  0.87610  0.36604  0.10051  1.0000
  F   F158      1.0  0.87456  0.38031  0.61015  1.0000
  F   F159      1.0  0.87299  0.87121  0.10807  1.0000
  F   F160      1.0  0.87079  0.85780  0.62674  1.0000
  F   F161      1.0  0.19148  0.25357  0.34128  1.0000
  F   F162      1.0  0.18044  0.24640  0.85662  1.0000
  F   F163      1.0  0.18515  0.75318  0.35812  1.0000
  F   F164      1.0  0.18974  0.73284  0.86617  1.0000
  F   F165      1.0  0.44397  0.24526  0.35272  1.0000
  F   F166      1.0  0.43607  0.24809  0.86282  1.0000
  F   F167      1.0  0.42511  0.74950  0.36975  1.0000
  F   F168      1.0  0.43456  0.73522  0.86296  1.0000
  F   F169      1.0  0.68664  0.24977  0.34262  1.0000
  F   F170      1.0  0.69138  0.25512  0.86141  1.0000
  F   F171      1.0  0.68968  0.75091  0.35368  1.0000
  F   F172      1.0  0.68850  0.75427  0.84429  1.0000
  F   F173      1.0  0.93057  0.23829  0.37171  1.0000
  F   F174      1.0  0.93317  0.23913  0.86961  1.0000
  F   F175      1.0  0.93880  0.74795  0.35941  1.0000
  F   F176      1.0  0.93993  0.74336  0.85721  1.0000
  F   F177      1.0  0.12619  0.12399  0.40234  1.0000
  F   F178      1.0  0.12297  0.12875  0.88341  1.0000
  F   F179      1.0  0.12604  0.64381  0.37785  1.0000
  F   F180      1.0  0.12690  0.61904  0.90685  1.0000
  F   F181      1.0  0.37838  0.14426  0.38106  1.0000
  F   F182      1.0  0.37097  0.13256  0.89715  1.0000
  F   F183      1.0  0.37462  0.62208  0.39790  1.0000
  F   F184      1.0  0.37468  0.62152  0.89160  1.0000
  F   F185      1.0  0.62585  0.13870  0.38496  1.0000
  F   F186      1.0  0.62742  0.13260  0.87943  1.0000
  F   F187      1.0  0.62677  0.65586  0.37511  1.0000
  F   F188      1.0  0.61913  0.63856  0.89089  1.0000
  F   F189      1.0  0.88134  0.14073  0.37475  1.0000
  F   F190      1.0  0.87294  0.12218  0.89553  1.0000
  F   F191      1.0  0.87600  0.65245  0.37084  1.0000
  F   F192      1.0  0.87974  0.62049  0.88535  1.0000
  F   F193      1.0  0.00641  0.36754  0.07991  1.0000
  F   F194      1.0  0.00757  0.36537  0.57986  1.0000
  F   F195      1.0  0.00558  0.87578  0.06176  1.0000
  F   F196      1.0  0.00850  0.86629  0.56392  1.0000
  F   F197      1.0  0.25345  0.36680  0.08648  1.0000
  F   F198      1.0  0.26188  0.34842  0.57537  1.0000
  F   F199      1.0  0.25832  0.86663  0.07666  1.0000
  F   F200      1.0  0.25415  0.86198  0.58355  1.0000
  F   F201      1.0  0.50435  0.36637  0.08771  1.0000
  F   F202      1.0  0.51223  0.37386  0.56892  1.0000
  F   F203      1.0  0.50643  0.87972  0.07624  1.0000
  F   F204      1.0  0.50251  0.87396  0.57927  1.0000
  F   F205      1.0  0.75923  0.37494  0.05144  1.0000
  F   F206      1.0  0.75856  0.36090  0.56482  1.0000
  F   F207      1.0  0.75910  0.85709  0.06298  1.0000
  F   F208      1.0  0.75854  0.85747  0.58278  1.0000
  F   F209      1.0  0.07055  0.48567  0.16677  1.0000
  F   F210      1.0  0.06523  0.48682  0.67183  1.0000
  F   F211      1.0  0.07843  0.97935  0.15577  1.0000
  F   F212      1.0  0.07527  0.98910  0.66682  1.0000
  F   F213      1.0  0.31719  0.47510  0.18919  1.0000
  F   F214      1.0  0.31827  0.47744  0.67608  1.0000
  F   F215      1.0  0.32034  0.98346  0.18684  1.0000
  F   F216      1.0  0.32616  0.98514  0.67328  1.0000
  F   F217      1.0  0.56882  0.48104  0.17620  1.0000
  F   F218      1.0  0.57392  0.48929  0.66745  1.0000
  F   F219      1.0  0.57141  0.98473  0.18645  1.0000
  F   F220      1.0  0.57631  0.99853  0.65806  1.0000
  F   F221      1.0  0.81914  0.48027  0.17309  1.0000
  F   F222      1.0  0.81934  0.48275  0.67330  1.0000
  F   F223      1.0  0.81790  0.99217  0.17176  1.0000
  F   F224      1.0  0.81913  0.99242  0.66596  1.0000
  F   F225      1.0  0.24587  0.13670  0.42229  1.0000
  F   F226      1.0  0.23964  0.13782  0.92252  1.0000
  F   F227      1.0  0.23759  0.63939  0.43412  1.0000
  F   F228      1.0  0.24278  0.62515  0.94676  1.0000
  F   F229      1.0  0.48987  0.13531  0.43748  1.0000
  F   F230      1.0  0.49425  0.13703  0.92581  1.0000
  F   F231      1.0  0.49097  0.63025  0.43749  1.0000
  F   F232      1.0  0.48455  0.63592  0.94558  1.0000
  F   F233      1.0  0.74766  0.13279  0.42509  1.0000
  F   F234      1.0  0.73698  0.13362  0.93223  1.0000
  F   F235      1.0  0.74394  0.63677  0.41409  1.0000
  F   F236      1.0  0.73827  0.62766  0.93308  1.0000
  F   F237      1.0  0.99353  0.13536  0.42764  1.0000
  F   F238      1.0  0.98887  0.13721  0.93006  1.0000
  F   F239      1.0  0.99017  0.62811  0.42452  1.0000
  F   F240      1.0  0.99897  0.62735  0.91962  1.0000
  F   F241      1.0  0.17758  0.01473  0.32347  1.0000
  F   F242      1.0  0.18404  0.00753  0.83093  1.0000
  F   F243      1.0  0.17705  0.51213  0.34004  1.0000
  F   F244      1.0  0.18562  0.51254  0.82057  1.0000
  F   F245      1.0  0.42549  0.01740  0.33385  1.0000
  F   F246      1.0  0.42757  0.01231  0.83499  1.0000
  F   F247      1.0  0.43256  0.52499  0.31567  1.0000
  F   F248      1.0  0.43292  0.50561  0.83182  1.0000
  F   F249      1.0  0.68282  0.01178  0.32839  1.0000
  F   F250      1.0  0.68268  0.01960  0.81505  1.0000
  F   F251      1.0  0.68460  0.51945  0.31607  1.0000
  F   F252      1.0  0.68643  0.51976  0.80926  1.0000
  F   F253      1.0  0.93436  0.01688  0.31890  1.0000
  F   F254      1.0  0.93491  0.01500  0.80935  1.0000
  F   F255      1.0  0.92841  0.51076  0.32955  1.0000
  F   F256      1.0  0.93328  0.50598  0.82841  1.0000
  F   F257      1.0  0.00387  0.26228  0.99909  1.0000
  F   F258      1.0  0.00053  0.25547  0.50190  1.0000
  F   F259      1.0  0.00060  0.73283  0.01909  1.0000
  F   F260      1.0  0.99831  0.73974  0.50280  1.0000
  F   F261      1.0  0.25110  0.26966  0.99368  1.0000
  F   F262      1.0  0.24729  0.24941  0.49683  1.0000
  F   F263      1.0  0.24984  0.73785  0.01078  1.0000
  F   F264      1.0  0.25137  0.75128  0.49429  1.0000
  F   F265      1.0  0.50243  0.25711  0.00769  1.0000
  F   F266      1.0  0.50169  0.25319  0.50367  1.0000
  F   F267      1.0  0.50053  0.74802  0.01281  1.0000
  F   F268      1.0  0.49752  0.74872  0.51236  1.0000
  F   F269      1.0  0.74909  0.25118  0.00332  1.0000
  F   F270      1.0  0.74742  0.25166  0.48860  1.0000
  F   F271      1.0  0.74685  0.73898  0.00442  1.0000
  F   F272      1.0  0.74783  0.76546  0.48780  1.0000
  F   F273      1.0  0.12346  0.00920  0.24977  1.0000
  F   F274      1.0  0.12917  0.01359  0.74598  1.0000
  F   F275      1.0  0.11555  0.49018  0.26620  1.0000
  F   F276      1.0  0.12220  0.48848  0.75889  1.0000
  F   F277      1.0  0.38011  0.99413  0.24351  1.0000
  F   F278      1.0  0.36939  0.99851  0.76583  1.0000
  F   F279      1.0  0.37785  0.50025  0.25146  1.0000
  F   F280      1.0  0.38322  0.51268  0.74125  1.0000
  F   F281      1.0  0.62790  0.00191  0.25523  1.0000
  F   F282      1.0  0.62850  0.00691  0.74191  1.0000
  F   F283      1.0  0.62073  0.50520  0.26216  1.0000
  F   F284      1.0  0.62473  0.49892  0.74735  1.0000
  F   F285      1.0  0.87290  0.99147  0.25737  1.0000
  F   F286      1.0  0.86144  0.98747  0.77258  1.0000
  F   F287      1.0  0.87333  0.50174  0.25173  1.0000
  F   F288      1.0  0.88389  0.49580  0.73427  1.0000
  F   F289      1.0  0.03983  0.03062  0.02254  1.0000
  F   F290      1.0  0.04580  0.04142  0.52265  1.0000
  F   F291      1.0  0.04033  0.53831  0.02208  1.0000
  F   F292      1.0  0.04857  0.53972  0.51535  1.0000
  F   F293      1.0  0.29241  0.03031  0.02152  1.0000
  F   F294      1.0  0.29574  0.02242  0.52033  1.0000
  F   F295      1.0  0.29285  0.52957  0.02760  1.0000
  F   F296      1.0  0.28961  0.53177  0.52604  1.0000
  F   F297      1.0  0.54714  0.03151  0.02840  1.0000
  F   F298      1.0  0.53594  0.03662  0.53988  1.0000
  F   F299      1.0  0.53720  0.52859  0.03372  1.0000
  F   F300      1.0  0.55024  0.53230  0.51492  1.0000
  F   F301      1.0  0.78751  0.03259  0.02831  1.0000
  F   F302      1.0  0.80059  0.02653  0.51910  1.0000
  F   F303      1.0  0.79163  0.53679  0.01306  1.0000
  F   F304      1.0  0.79519  0.53924  0.51071  1.0000
  F   F305      1.0  0.23013  0.42022  0.23163  1.0000
  F   F306      1.0  0.23179  0.40050  0.73246  1.0000
  F   F307      1.0  0.23576  0.92378  0.22395  1.0000
  F   F308      1.0  0.23290  0.90186  0.73500  1.0000
  F   F309      1.0  0.48813  0.41720  0.23302  1.0000
  F   F310      1.0  0.48544  0.41135  0.72792  1.0000
  F   F311      1.0  0.48677  0.92574  0.22791  1.0000
  F   F312      1.0  0.47840  0.91339  0.73692  1.0000
  F   F313      1.0  0.73731  0.41462  0.22022  1.0000
  F   F314      1.0  0.73302  0.43255  0.70782  1.0000
  F   F315      1.0  0.73705  0.91863  0.22862  1.0000
  F   F316      1.0  0.73403  0.91770  0.72950  1.0000
  F   F317      1.0  0.97695  0.40510  0.23735  1.0000
  F   F318      1.0  0.98401  0.40707  0.72141  1.0000
  F   F319      1.0  0.98696  0.91371  0.21799  1.0000
  F   F320      1.0  0.98851  0.92788  0.71634  1.0000
  F   F321      1.0  0.21210  0.46089  0.46272  1.0000
  F   F322      1.0  0.21380  0.45787  0.96533  1.0000
  F   F323      1.0  0.19843  0.96763  0.49878  1.0000
  F   F324      1.0  0.20696  0.95869  0.97567  1.0000
  F   F325      1.0  0.46288  0.46356  0.46733  1.0000
  F   F326      1.0  0.45688  0.46211  0.97959  1.0000
  F   F327      1.0  0.44140  0.98043  0.50048  1.0000
  F   F328      1.0  0.46363  0.96946  0.96037  1.0000
  F   F329      1.0  0.70904  0.46217  0.46718  1.0000
  F   F330      1.0  0.69121  0.47864  0.99101  1.0000
  F   F331      1.0  0.70726  0.97574  0.48407  1.0000
  F   F332      1.0  0.71354  0.97032  0.96299  1.0000
  F   F333      1.0  0.95655  0.45914  0.47037  1.0000
  F   F334      1.0  0.95159  0.46207  0.99013  1.0000
  F   F335      1.0  0.95694  0.97991  0.47697  1.0000
  F   F336      1.0  0.94645  0.96709  0.98894  1.0000
  F   F337      1.0  0.02198  0.07905  0.27579  1.0000
  F   F338      1.0  0.01500  0.07097  0.76752  1.0000
  F   F339      1.0  0.01564  0.57333  0.28550  1.0000
  F   F340      1.0  0.02102  0.57066  0.77532  1.0000
  F   F341      1.0  0.26211  0.08262  0.28505  1.0000
  F   F342      1.0  0.26640  0.09174  0.76245  1.0000
  F   F343      1.0  0.26415  0.59136  0.28575  1.0000
  F   F344      1.0  0.26689  0.58848  0.77273  1.0000
  F   F345      1.0  0.51238  0.09301  0.27039  1.0000
  F   F346      1.0  0.51622  0.09246  0.76501  1.0000
  F   F347      1.0  0.51387  0.57809  0.29241  1.0000
  F   F348      1.0  0.51184  0.58244  0.77714  1.0000
  F   F349      1.0  0.76342  0.09120  0.26884  1.0000
  F   F350      1.0  0.76748  0.10618  0.75314  1.0000
  F   F351      1.0  0.76699  0.57941  0.26443  1.0000
  F   F352      1.0  0.76516  0.57821  0.76472  1.0000
  F   F353      1.0  0.10200  0.39821  0.47001  1.0000
  F   F354      1.0  0.10182  0.41264  0.96330  1.0000
  F   F355      1.0  0.10176  0.90232  0.47302  1.0000
  F   F356      1.0  0.10088  0.90808  0.96769  1.0000
  F   F357      1.0  0.35164  0.42194  0.46137  1.0000
  F   F358      1.0  0.34495  0.40312  0.97891  1.0000
  F   F359      1.0  0.35484  0.88748  0.46434  1.0000
  F   F360      1.0  0.34859  0.90928  0.96414  1.0000
  F   F361      1.0  0.60444  0.40760  0.45847  1.0000
  F   F362      1.0  0.60614  0.41547  0.96617  1.0000
  F   F363      1.0  0.59901  0.92363  0.47340  1.0000
  F   F364      1.0  0.59605  0.91211  0.95854  1.0000
  F   F365      1.0  0.85477  0.41426  0.45841  1.0000
  F   F366      1.0  0.85349  0.38714  0.96618  1.0000
  F   F367      1.0  0.85893  0.90846  0.47142  1.0000
  F   F368      1.0  0.85327  0.91940  0.95854  1.0000
  F   F369      1.0  0.04691  0.30890  0.28396  1.0000
  F   F370      1.0  0.05105  0.29360  0.78034  1.0000
  F   F371      1.0  0.04422  0.79828  0.30082  1.0000
  F   F372      1.0  0.04139  0.80673  0.80112  1.0000
  F   F373      1.0  0.29418  0.29387  0.30485  1.0000
  F   F374      1.0  0.29444  0.29833  0.78216  1.0000
  F   F375      1.0  0.30259  0.78812  0.28246  1.0000
  F   F376      1.0  0.29093  0.79475  0.79635  1.0000
  F   F377      1.0  0.53884  0.28844  0.29428  1.0000
  F   F378      1.0  0.55480  0.30178  0.79260  1.0000
  F   F379      1.0  0.54223  0.80524  0.29484  1.0000
  F   F380      1.0  0.54590  0.78617  0.80360  1.0000
  F   F381      1.0  0.79606  0.29736  0.28210  1.0000
  F   F382      1.0  0.79081  0.29985  0.78309  1.0000
  F   F383      1.0  0.79723  0.80324  0.28634  1.0000
  F   F384      1.0  0.78895  0.79517  0.79415  1.0000
