data_image0
_chemical_formula_structural       Hf96F384
_chemical_formula_sum              "Hf96 F384"
_cell_length_a       31.0369
_cell_length_b       15.5173
_cell_length_c       15.5114
_cell_angle_alpha    63.342
_cell_angle_beta     63.342
_cell_angle_gamma    80.1625

_space_group_name_H-M_alt    "P 1"
_space_group_IT_number       1

loop_
  _space_group_symop_operation_xyz
  'x, y, z'

loop_
  _atom_site_type_symbol
  _atom_site_label
  _atom_site_symmetry_multiplicity
  _atom_site_fract_x
  _atom_site_fract_y
  _atom_site_fract_z
  _atom_site_occupancy
  Hf  Hf1       1.0  0.19702  0.10271  0.37296  1.0000
  Hf  Hf2       1.0  0.19591  0.11386  0.87553  1.0000
  Hf  Hf3       1.0  0.20081  0.61398  0.36615  1.0000
  Hf  Hf4       1.0  0.19772  0.60895  0.87409  1.0000
  Hf  Hf5       1.0  0.44556  0.11054  0.36772  1.0000
  Hf  Hf6       1.0  0.44814  0.11007  0.87169  1.0000
  Hf  Hf7       1.0  0.44467  0.60800  0.37638  1.0000
  Hf  Hf8       1.0  0.44614  0.61444  0.87802  1.0000
  Hf  Hf9       1.0  0.69730  0.10808  0.37640  1.0000
  Hf  Hf10      1.0  0.69341  0.10555  0.87697  1.0000
  Hf  Hf11      1.0  0.70010  0.61012  0.37113  1.0000
  Hf  Hf12      1.0  0.69509  0.61233  0.87568  1.0000
  Hf  Hf13      1.0  0.94622  0.10394  0.37510  1.0000
  Hf  Hf14      1.0  0.94369  0.10625  0.87860  1.0000
  Hf  Hf15      1.0  0.94725  0.59920  0.37614  1.0000
  Hf  Hf16      1.0  0.94747  0.61483  0.86427  1.0000
  Hf  Hf17      1.0  0.05089  0.38500  0.12833  1.0000
  Hf  Hf18      1.0  0.05671  0.39210  0.62190  1.0000
  Hf  Hf19      1.0  0.05447  0.89373  0.12252  1.0000
  Hf  Hf20      1.0  0.05377  0.88876  0.61658  1.0000
  Hf  Hf21      1.0  0.30255  0.39165  0.13375  1.0000
  Hf  Hf22      1.0  0.30342  0.39933  0.62517  1.0000
  Hf  Hf23      1.0  0.30139  0.89791  0.13288  1.0000
  Hf  Hf24      1.0  0.30512  0.89752  0.62398  1.0000
  Hf  Hf25      1.0  0.55075  0.39862  0.12379  1.0000
  Hf  Hf26      1.0  0.55392  0.39521  0.62378  1.0000
  Hf  Hf27      1.0  0.55267  0.89717  0.11780  1.0000
  Hf  Hf28      1.0  0.55291  0.89430  0.62634  1.0000
  Hf  Hf29      1.0  0.80246  0.38856  0.13027  1.0000
  Hf  Hf30      1.0  0.80564  0.39508  0.62060  1.0000
  Hf  Hf31      1.0  0.80213  0.88665  0.13098  1.0000
  Hf  Hf32      1.0  0.80197  0.88298  0.63461  1.0000
  Hf  Hf33      1.0  0.05675  0.17461  0.40873  1.0000
  Hf  Hf34      1.0  0.05385  0.18808  0.91539  1.0000
  Hf  Hf35      1.0  0.05208  0.67806  0.42172  1.0000
  Hf  Hf36      1.0  0.05882  0.68620  0.90976  1.0000
  Hf  Hf37      1.0  0.30521  0.18223  0.42213  1.0000
  Hf  Hf38      1.0  0.31210  0.18496  0.91361  1.0000
  Hf  Hf39      1.0  0.30363  0.67697  0.42695  1.0000
  Hf  Hf40      1.0  0.30791  0.68118  0.91742  1.0000
  Hf  Hf41      1.0  0.55937  0.19180  0.40964  1.0000
  Hf  Hf42      1.0  0.55486  0.19139  0.91492  1.0000
  Hf  Hf43      1.0  0.55843  0.68080  0.41921  1.0000
  Hf  Hf44      1.0  0.55884  0.68169  0.91190  1.0000
  Hf  Hf45      1.0  0.80625  0.17847  0.41600  1.0000
  Hf  Hf46      1.0  0.80581  0.17511  0.92037  1.0000
  Hf  Hf47      1.0  0.80535  0.67475  0.42448  1.0000
  Hf  Hf48      1.0  0.80304  0.67787  0.92886  1.0000
  Hf  Hf49      1.0  0.15578  0.38649  0.33487  1.0000
  Hf  Hf50      1.0  0.15572  0.38515  0.83821  1.0000
  Hf  Hf51      1.0  0.15774  0.88673  0.33529  1.0000
  Hf  Hf52      1.0  0.15885  0.89100  0.83072  1.0000
  Hf  Hf53      1.0  0.41131  0.38880  0.32758  1.0000
  Hf  Hf54      1.0  0.40988  0.38809  0.83635  1.0000
  Hf  Hf55      1.0  0.40878  0.88411  0.33499  1.0000
  Hf  Hf56      1.0  0.40695  0.88540  0.83813  1.0000
  Hf  Hf57      1.0  0.66283  0.39401  0.33463  1.0000
  Hf  Hf58      1.0  0.65879  0.39219  0.83073  1.0000
  Hf  Hf59      1.0  0.65766  0.88858  0.33379  1.0000
  Hf  Hf60      1.0  0.65757  0.89311  0.83400  1.0000
  Hf  Hf61      1.0  0.90976  0.38602  0.32786  1.0000
  Hf  Hf62      1.0  0.90843  0.39012  0.83737  1.0000
  Hf  Hf63      1.0  0.90844  0.88183  0.33067  1.0000
  Hf  Hf64      1.0  0.91143  0.88756  0.83530  1.0000
  Hf  Hf65      1.0  0.19778  0.32262  0.07672  1.0000
  Hf  Hf66      1.0  0.19268  0.31818  0.58539  1.0000
  Hf  Hf67      1.0  0.19313  0.81483  0.08718  1.0000
  Hf  Hf68      1.0  0.19209  0.81039  0.58949  1.0000
  Hf  Hf69      1.0  0.44531  0.31899  0.07590  1.0000
  Hf  Hf70      1.0  0.44465  0.31959  0.58241  1.0000
  Hf  Hf71      1.0  0.44445  0.81906  0.08051  1.0000
  Hf  Hf72      1.0  0.44578  0.82635  0.57409  1.0000
  Hf  Hf73      1.0  0.69482  0.31827  0.07809  1.0000
  Hf  Hf74      1.0  0.69124  0.31625  0.58964  1.0000
  Hf  Hf75      1.0  0.69402  0.82588  0.07890  1.0000
  Hf  Hf76      1.0  0.69128  0.81365  0.58931  1.0000
  Hf  Hf77      1.0  0.94234  0.31694  0.08138  1.0000
  Hf  Hf78      1.0  0.94737  0.31542  0.58116  1.0000
  Hf  Hf79      1.0  0.94708  0.81378  0.08789  1.0000
  Hf  Hf80      1.0  0.94345  0.81185  0.58049  1.0000
  Hf  Hf81      1.0  0.09341  0.10648  0.16180  1.0000
  Hf  Hf82      1.0  0.08728  0.11375  0.66205  1.0000
  Hf  Hf83      1.0  0.08789  0.61026  0.16666  1.0000
  Hf  Hf84      1.0  0.08989  0.61283  0.66698  1.0000
  Hf  Hf85      1.0  0.33959  0.11435  0.17179  1.0000
  Hf  Hf86      1.0  0.34270  0.11341  0.67401  1.0000
  Hf  Hf87      1.0  0.34363  0.61271  0.17162  1.0000
  Hf  Hf88      1.0  0.34194  0.61478  0.66607  1.0000
  Hf  Hf89      1.0  0.59296  0.11181  0.16237  1.0000
  Hf  Hf90      1.0  0.59071  0.10857  0.66401  1.0000
  Hf  Hf91      1.0  0.59334  0.61274  0.16942  1.0000
  Hf  Hf92      1.0  0.59039  0.61218  0.66646  1.0000
  Hf  Hf93      1.0  0.83968  0.10935  0.16408  1.0000
  Hf  Hf94      1.0  0.84329  0.11869  0.66201  1.0000
  Hf  Hf95      1.0  0.84484  0.61919  0.16405  1.0000
  Hf  Hf96      1.0  0.84160  0.60599  0.67361  1.0000
  F   F1        1.0  0.07316  0.11030  0.30830  1.0000
  F   F2        1.0  0.08058  0.14029  0.78549  1.0000
  F   F3        1.0  0.06946  0.62762  0.31182  1.0000
  F   F4        1.0  0.07489  0.62254  0.80884  1.0000
  F   F5        1.0  0.33721  0.13225  0.29827  1.0000
  F   F6        1.0  0.32704  0.11642  0.80960  1.0000
  F   F7        1.0  0.32278  0.63168  0.30522  1.0000
  F   F8        1.0  0.33258  0.62092  0.80433  1.0000
  F   F9        1.0  0.57831  0.13751  0.29509  1.0000
  F   F10       1.0  0.57713  0.12885  0.80116  1.0000
  F   F11       1.0  0.58053  0.63256  0.29784  1.0000
  F   F12       1.0  0.57528  0.61460  0.81713  1.0000
  F   F13       1.0  0.83649  0.13616  0.29057  1.0000
  F   F14       1.0  0.82334  0.11691  0.80795  1.0000
  F   F15       1.0  0.83685  0.66031  0.28569  1.0000
  F   F16       1.0  0.83118  0.64329  0.80225  1.0000
  F   F17       1.0  0.18058  0.34222  0.45378  1.0000
  F   F18       1.0  0.17918  0.32355  0.96141  1.0000
  F   F19       1.0  0.18405  0.83188  0.44439  1.0000
  F   F20       1.0  0.19346  0.83456  0.94898  1.0000
  F   F21       1.0  0.44016  0.34303  0.43241  1.0000
  F   F22       1.0  0.44679  0.33529  0.93860  1.0000
  F   F23       1.0  0.43996  0.83974  0.44275  1.0000
  F   F24       1.0  0.42766  0.83895  0.95648  1.0000
  F   F25       1.0  0.69684  0.35054  0.43805  1.0000
  F   F26       1.0  0.68130  0.34634  0.94577  1.0000
  F   F27       1.0  0.68210  0.82851  0.45785  1.0000
  F   F28       1.0  0.68965  0.85619  0.94037  1.0000
  F   F29       1.0  0.93450  0.33828  0.44132  1.0000
  F   F30       1.0  0.94063  0.35806  0.93813  1.0000
  F   F31       1.0  0.93926  0.83715  0.43837  1.0000
  F   F32       1.0  0.94154  0.84032  0.93969  1.0000
  F   F33       1.0  0.17160  0.36672  0.19232  1.0000
  F   F34       1.0  0.17164  0.37312  0.69572  1.0000
  F   F35       1.0  0.17629  0.88142  0.18919  1.0000
  F   F36       1.0  0.17097  0.87328  0.69101  1.0000
  F   F37       1.0  0.42213  0.38374  0.18918  1.0000
  F   F38       1.0  0.41581  0.36849  0.70494  1.0000
  F   F39       1.0  0.41436  0.84796  0.21473  1.0000
  F   F40       1.0  0.43267  0.88638  0.67530  1.0000
  F   F41       1.0  0.67084  0.36070  0.20492  1.0000
  F   F42       1.0  0.67049  0.38203  0.69268  1.0000
  F   F43       1.0  0.66280  0.86311  0.21037  1.0000
  F   F44       1.0  0.65985  0.86216  0.71174  1.0000
  F   F45       1.0  0.91659  0.37654  0.19315  1.0000
  F   F46       1.0  0.92019  0.34785  0.70805  1.0000
  F   F47       1.0  0.92454  0.87240  0.19743  1.0000
  F   F48       1.0  0.91097  0.84982  0.70925  1.0000
  F   F49       1.0  0.06531  0.15516  0.04633  1.0000
  F   F50       1.0  0.06273  0.16667  0.53909  1.0000
  F   F51       1.0  0.07226  0.66415  0.03940  1.0000
  F   F52       1.0  0.06380  0.66425  0.55380  1.0000
  F   F53       1.0  0.32084  0.15728  0.05093  1.0000
  F   F54       1.0  0.31051  0.15431  0.56069  1.0000
  F   F55       1.0  0.32549  0.67069  0.04423  1.0000
  F   F56       1.0  0.31666  0.65726  0.55448  1.0000
  F   F57       1.0  0.56469  0.16008  0.05097  1.0000
  F   F58       1.0  0.56953  0.17188  0.54526  1.0000
  F   F59       1.0  0.56628  0.66817  0.04344  1.0000
  F   F60       1.0  0.55632  0.63688  0.56650  1.0000
  F   F61       1.0  0.81475  0.15585  0.05256  1.0000
  F   F62       1.0  0.81500  0.16851  0.54680  1.0000
  F   F63       1.0  0.81193  0.63516  0.07264  1.0000
  F   F64       1.0  0.81687  0.66126  0.55047  1.0000
  F   F65       1.0  0.21177  0.20003  0.20293  1.0000
  F   F66       1.0  0.19752  0.20068  0.70793  1.0000
  F   F67       1.0  0.19753  0.69960  0.20366  1.0000
  F   F68       1.0  0.21245  0.71020  0.71623  1.0000
  F   F69       1.0  0.44831  0.19815  0.21051  1.0000
  F   F70       1.0  0.45644  0.20524  0.71151  1.0000
  F   F71       1.0  0.45181  0.69679  0.22035  1.0000
  F   F72       1.0  0.45438  0.71266  0.70019  1.0000
  F   F73       1.0  0.70720  0.19658  0.22338  1.0000
  F   F74       1.0  0.70009  0.20408  0.71240  1.0000
  F   F75       1.0  0.69912  0.70542  0.20590  1.0000
  F   F76       1.0  0.70782  0.70581  0.71647  1.0000
  F   F77       1.0  0.95224  0.20314  0.20165  1.0000
  F   F78       1.0  0.95284  0.19197  0.71543  1.0000
  F   F79       1.0  0.95797  0.70335  0.20758  1.0000
  F   F80       1.0  0.94846  0.69417  0.71124  1.0000
  F   F81       1.0  0.14674  0.09192  0.02813  1.0000
  F   F82       1.0  0.14451  0.08688  0.51760  1.0000
  F   F83       1.0  0.15109  0.59399  0.03052  1.0000
  F   F84       1.0  0.14450  0.59800  0.53742  1.0000
  F   F85       1.0  0.39523  0.07911  0.03734  1.0000
  F   F86       1.0  0.40085  0.10424  0.53443  1.0000
  F   F87       1.0  0.39980  0.60307  0.04353  1.0000
  F   F88       1.0  0.39986  0.59202  0.53088  1.0000
  F   F89       1.0  0.64940  0.10421  0.02766  1.0000
  F   F90       1.0  0.65448  0.07667  0.54980  1.0000
  F   F91       1.0  0.64599  0.58593  0.04712  1.0000
  F   F92       1.0  0.65181  0.59782  0.54450  1.0000
  F   F93       1.0  0.89491  0.07433  0.03125  1.0000
  F   F94       1.0  0.89977  0.08672  0.53289  1.0000
  F   F95       1.0  0.89704  0.60158  0.04282  1.0000
  F   F96       1.0  0.90034  0.57494  0.53923  1.0000
  F   F97       1.0  0.15369  0.17955  0.13447  1.0000
  F   F98       1.0  0.14834  0.19400  0.59923  1.0000
  F   F99       1.0  0.14392  0.69604  0.11661  1.0000
  F   F100      1.0  0.14957  0.69646  0.64218  1.0000
  F   F101      1.0  0.40018  0.20469  0.09870  1.0000
  F   F102      1.0  0.40440  0.20485  0.62895  1.0000
  F   F103      1.0  0.39877  0.70113  0.12463  1.0000
  F   F104      1.0  0.39946  0.70006  0.61452  1.0000
  F   F105      1.0  0.65320  0.19542  0.12419  1.0000
  F   F106      1.0  0.64912  0.20163  0.60944  1.0000
  F   F107      1.0  0.65401  0.69508  0.12342  1.0000
  F   F108      1.0  0.64726  0.69468  0.64719  1.0000
  F   F109      1.0  0.90603  0.18001  0.11484  1.0000
  F   F110      1.0  0.89977  0.19004  0.62645  1.0000
  F   F111      1.0  0.90298  0.69795  0.11902  1.0000
  F   F112      1.0  0.90532  0.69041  0.62658  1.0000
  F   F113      1.0  0.09583  0.32950  0.36788  1.0000
  F   F114      1.0  0.09416  0.30523  0.87026  1.0000
  F   F115      1.0  0.10064  0.80118  0.36885  1.0000
  F   F116      1.0  0.10135  0.80725  0.87113  1.0000
  F   F117      1.0  0.35163  0.29603  0.37247  1.0000
  F   F118      1.0  0.35604  0.30508  0.87890  1.0000
  F   F119      1.0  0.34615  0.79836  0.39009  1.0000
  F   F120      1.0  0.35051  0.81152  0.85572  1.0000
  F   F121      1.0  0.59863  0.30832  0.36802  1.0000
  F   F122      1.0  0.59651  0.30498  0.88224  1.0000
  F   F123      1.0  0.60010  0.78613  0.40202  1.0000
  F   F124      1.0  0.58936  0.80622  0.87448  1.0000
  F   F125      1.0  0.85507  0.29829  0.35762  1.0000
  F   F126      1.0  0.84881  0.30767  0.89084  1.0000
  F   F127      1.0  0.83981  0.80167  0.38144  1.0000
  F   F128      1.0  0.84580  0.79224  0.90024  1.0000
  F   F129      1.0  0.06585  0.24602  0.14197  1.0000
  F   F130      1.0  0.06304  0.26083  0.62525  1.0000
  F   F131      1.0  0.06460  0.76151  0.14097  1.0000
  F   F132      1.0  0.07060  0.75523  0.62619  1.0000
  F   F133      1.0  0.30957  0.25006  0.15194  1.0000
  F   F134      1.0  0.31867  0.25660  0.64159  1.0000
  F   F135      1.0  0.30856  0.75406  0.15344  1.0000
  F   F136      1.0  0.31372  0.75160  0.65108  1.0000
  F   F137      1.0  0.56890  0.26171  0.12160  1.0000
  F   F138      1.0  0.55892  0.25570  0.65528  1.0000
  F   F139      1.0  0.55874  0.75778  0.15461  1.0000
  F   F140      1.0  0.56751  0.74412  0.63672  1.0000
  F   F141      1.0  0.81070  0.24788  0.14792  1.0000
  F   F142      1.0  0.81676  0.25359  0.64983  1.0000
  F   F143      1.0  0.81957  0.75843  0.11661  1.0000
  F   F144      1.0  0.81341  0.75239  0.64697  1.0000
  F   F145      1.0  0.12245  0.36432  0.10723  1.0000
  F   F146      1.0  0.12010  0.35176  0.62633  1.0000
  F   F147      1.0  0.12269  0.86033  0.13512  1.0000
  F   F148      1.0  0.12235  0.86585  0.61159  1.0000
  F   F149      1.0  0.37679  0.36025  0.10468  1.0000
  F   F150      1.0  0.37530  0.38053  0.60113  1.0000
  F   F151      1.0  0.37188  0.87444  0.10675  1.0000
  F   F152      1.0  0.37591  0.87335  0.61435  1.0000
  F   F153      1.0  0.62728  0.37117  0.10468  1.0000
  F   F154      1.0  0.62591  0.36994  0.61478  1.0000
  F   F155      1.0  0.62876  0.88642  0.08590  1.0000
  F   F156      1.0  0.62000  0.86890  0.61950  1.0000
  F   F157      1.0  0.86765  0.33886  0.12607  1.0000
  F   F158      1.0  0.87724  0.37747  0.59301  1.0000
  F   F159      1.0  0.87704  0.85678  0.11932  1.0000
  F   F160      1.0  0.87733  0.87686  0.58603  1.0000
  F   F161      1.0  0.18249  0.24884  0.35599  1.0000
  F   F162      1.0  0.18362  0.24712  0.86401  1.0000
  F   F163      1.0  0.19477  0.75120  0.33744  1.0000
  F   F164      1.0  0.18416  0.75540  0.85939  1.0000
  F   F165      1.0  0.45208  0.25594  0.32828  1.0000
  F   F166      1.0  0.44032  0.24934  0.85452  1.0000
  F   F167      1.0  0.42888  0.74398  0.37755  1.0000
  F   F168      1.0  0.43071  0.75277  0.85675  1.0000
  F   F169      1.0  0.67819  0.24709  0.37817  1.0000
  F   F170      1.0  0.68119  0.25506  0.85642  1.0000
  F   F171      1.0  0.69178  0.74796  0.35286  1.0000
  F   F172      1.0  0.67196  0.74672  0.88288  1.0000
  F   F173      1.0  0.93374  0.24032  0.35957  1.0000
  F   F174      1.0  0.93456  0.24897  0.87004  1.0000
  F   F175      1.0  0.93390  0.74592  0.35374  1.0000
  F   F176      1.0  0.94787  0.75354  0.83773  1.0000
  F   F177      1.0  0.12549  0.15055  0.37111  1.0000
  F   F178      1.0  0.12129  0.12982  0.88345  1.0000
  F   F179      1.0  0.12551  0.62894  0.39007  1.0000
  F   F180      1.0  0.12910  0.64693  0.86279  1.0000
  F   F181      1.0  0.37086  0.10367  0.41676  1.0000
  F   F182      1.0  0.37979  0.14554  0.86779  1.0000
  F   F183      1.0  0.36992  0.62329  0.39418  1.0000
  F   F184      1.0  0.37808  0.64539  0.88474  1.0000
  F   F185      1.0  0.62511  0.12473  0.40929  1.0000
  F   F186      1.0  0.62138  0.12779  0.89754  1.0000
  F   F187      1.0  0.62580  0.62292  0.40432  1.0000
  F   F188      1.0  0.62625  0.61319  0.88717  1.0000
  F   F189      1.0  0.87039  0.11526  0.40392  1.0000
  F   F190      1.0  0.87453  0.14050  0.87746  1.0000
  F   F191      1.0  0.87365  0.61897  0.40342  1.0000
  F   F192      1.0  0.87731  0.63819  0.89589  1.0000
  F   F193      1.0  0.00634  0.36801  0.07318  1.0000
  F   F194      1.0  0.00403  0.36810  0.57224  1.0000
  F   F195      1.0  0.01157  0.87313  0.05571  1.0000
  F   F196      1.0  0.00824  0.85931  0.57051  1.0000
  F   F197      1.0  0.25780  0.37315  0.06142  1.0000
  F   F198      1.0  0.25858  0.35311  0.58842  1.0000
  F   F199      1.0  0.25711  0.85891  0.08488  1.0000
  F   F200      1.0  0.26625  0.86178  0.56893  1.0000
  F   F201      1.0  0.50545  0.36007  0.07352  1.0000
  F   F202      1.0  0.50697  0.36592  0.57261  1.0000
  F   F203      1.0  0.50849  0.86500  0.06720  1.0000
  F   F204      1.0  0.51128  0.85846  0.57665  1.0000
  F   F205      1.0  0.75494  0.35969  0.08199  1.0000
  F   F206      1.0  0.75792  0.37170  0.55920  1.0000
  F   F207      1.0  0.75183  0.85439  0.09981  1.0000
  F   F208      1.0  0.75596  0.86652  0.58360  1.0000
  F   F209      1.0  0.07351  0.47935  0.17450  1.0000
  F   F210      1.0  0.07200  0.47988  0.67355  1.0000
  F   F211      1.0  0.06377  0.99501  0.17543  1.0000
  F   F212      1.0  0.06355  0.98173  0.69032  1.0000
  F   F213      1.0  0.31478  0.48645  0.17899  1.0000
  F   F214      1.0  0.31991  0.47868  0.68022  1.0000
  F   F215      1.0  0.31924  0.98890  0.17736  1.0000
  F   F216      1.0  0.32155  0.98422  0.67271  1.0000
  F   F217      1.0  0.56969  0.49613  0.16933  1.0000
  F   F218      1.0  0.56834  0.48324  0.67886  1.0000
  F   F219      1.0  0.56619  0.98992  0.16929  1.0000
  F   F220      1.0  0.56716  0.99125  0.67150  1.0000
  F   F221      1.0  0.82822  0.47063  0.16623  1.0000
  F   F222      1.0  0.82333  0.48535  0.67503  1.0000
  F   F223      1.0  0.81453  0.98259  0.17814  1.0000
  F   F224      1.0  0.81796  0.99423  0.67201  1.0000
  F   F225      1.0  0.24452  0.14807  0.41107  1.0000
  F   F226      1.0  0.24595  0.13891  0.93422  1.0000
  F   F227      1.0  0.24277  0.62703  0.42924  1.0000
  F   F228      1.0  0.24606  0.63836  0.91852  1.0000
  F   F229      1.0  0.49915  0.13878  0.41612  1.0000
  F   F230      1.0  0.49246  0.14293  0.92843  1.0000
  F   F231      1.0  0.49802  0.63012  0.41584  1.0000
  F   F232      1.0  0.49155  0.63587  0.92996  1.0000
  F   F233      1.0  0.74312  0.13494  0.42907  1.0000
  F   F234      1.0  0.74534  0.13297  0.92230  1.0000
  F   F235      1.0  0.74526  0.62557  0.43258  1.0000
  F   F236      1.0  0.73883  0.65143  0.91080  1.0000
  F   F237      1.0  0.98822  0.12904  0.43706  1.0000
  F   F238      1.0  0.98886  0.13714  0.93516  1.0000
  F   F239      1.0  0.99250  0.62766  0.42360  1.0000
  F   F240      1.0  0.99253  0.63625  0.92832  1.0000
  F   F241      1.0  0.16998  0.01267  0.34474  1.0000
  F   F242      1.0  0.17977  0.01312  0.83213  1.0000
  F   F243      1.0  0.19105  0.51989  0.30528  1.0000
  F   F244      1.0  0.17335  0.50676  0.84175  1.0000
  F   F245      1.0  0.43604  0.00863  0.32111  1.0000
  F   F246      1.0  0.42950  0.01281  0.83458  1.0000
  F   F247      1.0  0.43047  0.51272  0.32707  1.0000
  F   F248      1.0  0.44314  0.51345  0.81793  1.0000
  F   F249      1.0  0.66962  0.01745  0.32935  1.0000
  F   F250      1.0  0.68050  0.01571  0.82030  1.0000
  F   F251      1.0  0.67706  0.52500  0.32379  1.0000
  F   F252      1.0  0.68871  0.51522  0.80837  1.0000
  F   F253      1.0  0.93220  0.00714  0.30818  1.0000
  F   F254      1.0  0.92491  0.01429  0.83028  1.0000
  F   F255      1.0  0.92979  0.51743  0.30994  1.0000
  F   F256      1.0  0.93208  0.51238  0.82953  1.0000
  F   F257      1.0  0.99895  0.25908  0.00130  1.0000
  F   F258      1.0  0.99770  0.25396  0.49694  1.0000
  F   F259      1.0  0.00102  0.74156  0.00588  1.0000
  F   F260      1.0  0.99570  0.73116  0.51145  1.0000
  F   F261      1.0  0.25578  0.27454  0.98082  1.0000
  F   F262      1.0  0.25353  0.26080  0.48974  1.0000
  F   F263      1.0  0.24850  0.72481  0.01364  1.0000
  F   F264      1.0  0.23781  0.72439  0.52682  1.0000
  F   F265      1.0  0.50144  0.25078  0.00649  1.0000
  F   F266      1.0  0.50286  0.25416  0.49631  1.0000
  F   F267      1.0  0.49798  0.74688  0.99739  1.0000
  F   F268      1.0  0.49897  0.75169  0.49229  1.0000
  F   F269      1.0  0.74764  0.24243  0.00658  1.0000
  F   F270      1.0  0.74813  0.23773  0.50861  1.0000
  F   F271      1.0  0.74976  0.74895  0.99937  1.0000
  F   F272      1.0  0.74662  0.75375  0.50277  1.0000
  F   F273      1.0  0.11986  0.99181  0.25442  1.0000
  F   F274      1.0  0.12822  0.00262  0.74386  1.0000
  F   F275      1.0  0.12680  0.50749  0.24782  1.0000
  F   F276      1.0  0.13031  0.50476  0.74382  1.0000
  F   F277      1.0  0.37558  0.99462  0.25788  1.0000
  F   F278      1.0  0.37139  0.98978  0.74475  1.0000
  F   F279      1.0  0.37638  0.50250  0.24647  1.0000
  F   F280      1.0  0.37644  0.50451  0.75152  1.0000
  F   F281      1.0  0.62083  0.99252  0.25016  1.0000
  F   F282      1.0  0.61605  0.99068  0.76080  1.0000
  F   F283      1.0  0.62668  0.49166  0.25359  1.0000
  F   F284      1.0  0.62587  0.50046  0.75002  1.0000
  F   F285      1.0  0.87528  0.99300  0.22803  1.0000
  F   F286      1.0  0.87400  0.98304  0.75781  1.0000
  F   F287      1.0  0.86625  0.49232  0.26886  1.0000
  F   F288      1.0  0.86371  0.48926  0.77286  1.0000
  F   F289      1.0  0.04152  0.03181  0.01953  1.0000
  F   F290      1.0  0.04564  0.02149  0.51840  1.0000
  F   F291      1.0  0.04624  0.53371  0.02852  1.0000
  F   F292      1.0  0.04158  0.53193  0.52706  1.0000
  F   F293      1.0  0.29968  0.03042  0.02911  1.0000
  F   F294      1.0  0.29234  0.03646  0.51774  1.0000
  F   F295      1.0  0.29756  0.53244  0.02060  1.0000
  F   F296      1.0  0.28820  0.53153  0.53494  1.0000
  F   F297      1.0  0.53619  0.03683  0.02670  1.0000
  F   F298      1.0  0.54577  0.04343  0.51852  1.0000
  F   F299      1.0  0.54099  0.53507  0.02609  1.0000
  F   F300      1.0  0.54394  0.52127  0.52174  1.0000
  F   F301      1.0  0.78534  0.03241  0.03500  1.0000
  F   F302      1.0  0.79372  0.02264  0.52554  1.0000
  F   F303      1.0  0.78641  0.52952  0.02186  1.0000
  F   F304      1.0  0.79234  0.52897  0.53686  1.0000
  F   F305      1.0  0.23568  0.39610  0.23906  1.0000
  F   F306      1.0  0.22899  0.40659  0.73988  1.0000
  F   F307      1.0  0.23508  0.93238  0.22107  1.0000
  F   F308      1.0  0.23422  0.90966  0.73300  1.0000
  F   F309      1.0  0.48191  0.43644  0.20805  1.0000
  F   F310      1.0  0.48715  0.41411  0.72554  1.0000
  F   F311      1.0  0.48637  0.91222  0.22265  1.0000
  F   F312      1.0  0.48707  0.91349  0.73258  1.0000
  F   F313      1.0  0.73287  0.41659  0.23450  1.0000
  F   F314      1.0  0.73960  0.39595  0.73306  1.0000
  F   F315      1.0  0.73187  0.92074  0.22586  1.0000
  F   F316      1.0  0.73111  0.91202  0.73137  1.0000
  F   F317      1.0  0.98173  0.40279  0.23481  1.0000
  F   F318      1.0  0.98241  0.41671  0.71735  1.0000
  F   F319      1.0  0.98754  0.89007  0.23350  1.0000
  F   F320      1.0  0.98367  0.91891  0.71771  1.0000
  F   F321      1.0  0.20337  0.47760  0.49425  1.0000
  F   F322      1.0  0.21116  0.46435  0.97427  1.0000
  F   F323      1.0  0.21376  0.95371  0.47210  1.0000
  F   F324      1.0  0.20049  0.96680  0.98409  1.0000
  F   F325      1.0  0.45670  0.46856  0.47108  1.0000
  F   F326      1.0  0.44679  0.47115  0.98128  1.0000
  F   F327      1.0  0.45422  0.97684  0.47919  1.0000
  F   F328      1.0  0.45816  0.95732  0.97725  1.0000
  F   F329      1.0  0.70636  0.47708  0.47328  1.0000
  F   F330      1.0  0.70968  0.46740  0.97316  1.0000
  F   F331      1.0  0.70527  0.95714  0.48635  1.0000
  F   F332      1.0  0.70890  0.96815  0.98381  1.0000
  F   F333      1.0  0.95778  0.46704  0.46675  1.0000
  F   F334      1.0  0.94506  0.47705  0.99302  1.0000
  F   F335      1.0  0.96196  0.96145  0.47705  1.0000
  F   F336      1.0  0.95465  0.97033  0.98163  1.0000
  F   F337      1.0  0.01040  0.10462  0.25935  1.0000
  F   F338      1.0  0.01509  0.08500  0.77499  1.0000
  F   F339      1.0  0.01281  0.58093  0.25722  1.0000
  F   F340      1.0  0.01682  0.59410  0.75502  1.0000
  F   F341      1.0  0.26697  0.07008  0.28705  1.0000
  F   F342      1.0  0.26203  0.08676  0.77501  1.0000
  F   F343      1.0  0.26359  0.58841  0.27153  1.0000
  F   F344      1.0  0.26721  0.58807  0.77425  1.0000
  F   F345      1.0  0.51278  0.08975  0.27740  1.0000
  F   F346      1.0  0.51535  0.07765  0.77523  1.0000
  F   F347      1.0  0.51905  0.58019  0.26958  1.0000
  F   F348      1.0  0.51331  0.60043  0.76363  1.0000
  F   F349      1.0  0.76848  0.08020  0.28446  1.0000
  F   F350      1.0  0.76074  0.08231  0.78153  1.0000
  F   F351      1.0  0.77123  0.59372  0.27239  1.0000
  F   F352      1.0  0.76992  0.58115  0.78068  1.0000
  F   F353      1.0  0.10552  0.42914  0.46093  1.0000
  F   F354      1.0  0.09460  0.39516  0.96900  1.0000
  F   F355      1.0  0.09608  0.89226  0.46110  1.0000
  F   F356      1.0  0.10125  0.91116  0.96578  1.0000
  F   F357      1.0  0.35498  0.42710  0.45434  1.0000
  F   F358      1.0  0.35823  0.40306  0.96541  1.0000
  F   F359      1.0  0.35766  0.91799  0.45866  1.0000
  F   F360      1.0  0.34776  0.90186  0.95605  1.0000
  F   F361      1.0  0.60110  0.39320  0.47316  1.0000
  F   F362      1.0  0.60137  0.42679  0.95222  1.0000
  F   F363      1.0  0.59366  0.90288  0.47600  1.0000
  F   F364      1.0  0.59790  0.91684  0.95115  1.0000
  F   F365      1.0  0.84770  0.39608  0.46896  1.0000
  F   F366      1.0  0.85069  0.42194  0.97285  1.0000
  F   F367      1.0  0.85161  0.90311  0.44919  1.0000
  F   F368      1.0  0.84709  0.92010  0.96611  1.0000
  F   F369      1.0  0.04628  0.29428  0.28409  1.0000
  F   F370      1.0  0.04510  0.29926  0.78005  1.0000
  F   F371      1.0  0.04086  0.79837  0.31159  1.0000
  F   F372      1.0  0.04989  0.80423  0.78487  1.0000
  F   F373      1.0  0.30092  0.30176  0.28607  1.0000
  F   F374      1.0  0.30549  0.29949  0.79217  1.0000
  F   F375      1.0  0.29959  0.80063  0.28594  1.0000
  F   F376      1.0  0.29538  0.79913  0.79086  1.0000
  F   F377      1.0  0.53900  0.30735  0.28117  1.0000
  F   F378      1.0  0.54534  0.30427  0.79645  1.0000
  F   F379      1.0  0.55545  0.80300  0.28474  1.0000
  F   F380      1.0  0.54929  0.78611  0.78283  1.0000
  F   F381      1.0  0.78580  0.29397  0.29623  1.0000
  F   F382      1.0  0.80297  0.29524  0.79629  1.0000
  F   F383      1.0  0.79092  0.79854  0.28415  1.0000
  F   F384      1.0  0.79476  0.80442  0.78889  1.0000
