data_image0
_chemical_formula_structural       Hf96F384
_chemical_formula_sum              "Hf96 F384"
_cell_length_a       31.0581
_cell_length_b       15.5252
_cell_length_c       15.52
_cell_angle_alpha    63.342
_cell_angle_beta     63.342
_cell_angle_gamma    80.1625

_space_group_name_H-M_alt    "P 1"
_space_group_IT_number       1

loop_
  _space_group_symop_operation_xyz
  'x, y, z'

loop_
  _atom_site_type_symbol
  _atom_site_label
  _atom_site_symmetry_multiplicity
  _atom_site_fract_x
  _atom_site_fract_y
  _atom_site_fract_z
  _atom_site_occupancy
  Hf  Hf1       1.0  0.19937  0.10297  0.37362  1.0000
  Hf  Hf2       1.0  0.20131  0.10123  0.86856  1.0000
  Hf  Hf3       1.0  0.19833  0.60655  0.36991  1.0000
  Hf  Hf4       1.0  0.19202  0.60609  0.88393  1.0000
  Hf  Hf5       1.0  0.44504  0.11003  0.37419  1.0000
  Hf  Hf6       1.0  0.45151  0.10513  0.87013  1.0000
  Hf  Hf7       1.0  0.44836  0.60680  0.37664  1.0000
  Hf  Hf8       1.0  0.44666  0.60598  0.87364  1.0000
  Hf  Hf9       1.0  0.69849  0.11363  0.37084  1.0000
  Hf  Hf10      1.0  0.69343  0.10514  0.87449  1.0000
  Hf  Hf11      1.0  0.69965  0.61626  0.36833  1.0000
  Hf  Hf12      1.0  0.69656  0.61130  0.86868  1.0000
  Hf  Hf13      1.0  0.94801  0.10825  0.36763  1.0000
  Hf  Hf14      1.0  0.94662  0.10834  0.87739  1.0000
  Hf  Hf15      1.0  0.94432  0.60421  0.37536  1.0000
  Hf  Hf16      1.0  0.94718  0.61141  0.87708  1.0000
  Hf  Hf17      1.0  0.05298  0.38995  0.12787  1.0000
  Hf  Hf18      1.0  0.05208  0.39044  0.62028  1.0000
  Hf  Hf19      1.0  0.05425  0.88846  0.12349  1.0000
  Hf  Hf20      1.0  0.05671  0.89126  0.61829  1.0000
  Hf  Hf21      1.0  0.30297  0.39609  0.12350  1.0000
  Hf  Hf22      1.0  0.30022  0.39393  0.64094  1.0000
  Hf  Hf23      1.0  0.30454  0.89286  0.12982  1.0000
  Hf  Hf24      1.0  0.30047  0.88691  0.62674  1.0000
  Hf  Hf25      1.0  0.54905  0.39141  0.13220  1.0000
  Hf  Hf26      1.0  0.54778  0.39323  0.63431  1.0000
  Hf  Hf27      1.0  0.55501  0.89979  0.11644  1.0000
  Hf  Hf28      1.0  0.55043  0.89499  0.63279  1.0000
  Hf  Hf29      1.0  0.80237  0.39392  0.12373  1.0000
  Hf  Hf30      1.0  0.80208  0.39344  0.63346  1.0000
  Hf  Hf31      1.0  0.80668  0.89350  0.11734  1.0000
  Hf  Hf32      1.0  0.80188  0.89244  0.63307  1.0000
  Hf  Hf33      1.0  0.05385  0.17849  0.41797  1.0000
  Hf  Hf34      1.0  0.06144  0.18657  0.90673  1.0000
  Hf  Hf35      1.0  0.05631  0.67864  0.41456  1.0000
  Hf  Hf36      1.0  0.05855  0.68686  0.90895  1.0000
  Hf  Hf37      1.0  0.30650  0.18077  0.41230  1.0000
  Hf  Hf38      1.0  0.30577  0.17549  0.92546  1.0000
  Hf  Hf39      1.0  0.30611  0.67555  0.42115  1.0000
  Hf  Hf40      1.0  0.30487  0.68077  0.92042  1.0000
  Hf  Hf41      1.0  0.55832  0.17649  0.42072  1.0000
  Hf  Hf42      1.0  0.55220  0.18655  0.91435  1.0000
  Hf  Hf43      1.0  0.56110  0.69531  0.40340  1.0000
  Hf  Hf44      1.0  0.55759  0.68399  0.92144  1.0000
  Hf  Hf45      1.0  0.80572  0.17739  0.41829  1.0000
  Hf  Hf46      1.0  0.80368  0.18869  0.91385  1.0000
  Hf  Hf47      1.0  0.80826  0.67676  0.41477  1.0000
  Hf  Hf48      1.0  0.80722  0.68684  0.91361  1.0000
  Hf  Hf49      1.0  0.15604  0.38352  0.33862  1.0000
  Hf  Hf50      1.0  0.16077  0.38510  0.83700  1.0000
  Hf  Hf51      1.0  0.16396  0.88540  0.32729  1.0000
  Hf  Hf52      1.0  0.15801  0.88170  0.83550  1.0000
  Hf  Hf53      1.0  0.40640  0.38900  0.33567  1.0000
  Hf  Hf54      1.0  0.40422  0.38145  0.83839  1.0000
  Hf  Hf55      1.0  0.41100  0.88518  0.33946  1.0000
  Hf  Hf56      1.0  0.40607  0.89112  0.83298  1.0000
  Hf  Hf57      1.0  0.65630  0.38919  0.33735  1.0000
  Hf  Hf58      1.0  0.65527  0.38406  0.83827  1.0000
  Hf  Hf59      1.0  0.65868  0.88991  0.33547  1.0000
  Hf  Hf60      1.0  0.65707  0.89106  0.83807  1.0000
  Hf  Hf61      1.0  0.90492  0.38892  0.33807  1.0000
  Hf  Hf62      1.0  0.90651  0.39446  0.82708  1.0000
  Hf  Hf63      1.0  0.90650  0.88745  0.33450  1.0000
  Hf  Hf64      1.0  0.90958  0.89311  0.82314  1.0000
  Hf  Hf65      1.0  0.19201  0.31658  0.08201  1.0000
  Hf  Hf66      1.0  0.19014  0.30963  0.59479  1.0000
  Hf  Hf67      1.0  0.19369  0.81916  0.08456  1.0000
  Hf  Hf68      1.0  0.19631  0.81416  0.57622  1.0000
  Hf  Hf69      1.0  0.44193  0.31432  0.08592  1.0000
  Hf  Hf70      1.0  0.44777  0.31626  0.58330  1.0000
  Hf  Hf71      1.0  0.44294  0.82665  0.08463  1.0000
  Hf  Hf72      1.0  0.44106  0.81783  0.58659  1.0000
  Hf  Hf73      1.0  0.69431  0.32411  0.08028  1.0000
  Hf  Hf74      1.0  0.69324  0.32032  0.58408  1.0000
  Hf  Hf75      1.0  0.69378  0.81583  0.08263  1.0000
  Hf  Hf76      1.0  0.69346  0.81434  0.58809  1.0000
  Hf  Hf77      1.0  0.94879  0.32385  0.07722  1.0000
  Hf  Hf78      1.0  0.94619  0.31752  0.57954  1.0000
  Hf  Hf79      1.0  0.94871  0.82544  0.07095  1.0000
  Hf  Hf80      1.0  0.94662  0.81484  0.57964  1.0000
  Hf  Hf81      1.0  0.09224  0.10584  0.16571  1.0000
  Hf  Hf82      1.0  0.08658  0.10396  0.67380  1.0000
  Hf  Hf83      1.0  0.08898  0.61186  0.17181  1.0000
  Hf  Hf84      1.0  0.09099  0.60763  0.66807  1.0000
  Hf  Hf85      1.0  0.34083  0.10568  0.17126  1.0000
  Hf  Hf86      1.0  0.34336  0.10872  0.66857  1.0000
  Hf  Hf87      1.0  0.34338  0.62049  0.16495  1.0000
  Hf  Hf88      1.0  0.34002  0.61443  0.66782  1.0000
  Hf  Hf89      1.0  0.59106  0.11776  0.16277  1.0000
  Hf  Hf90      1.0  0.59360  0.11211  0.66832  1.0000
  Hf  Hf91      1.0  0.59422  0.60854  0.16412  1.0000
  Hf  Hf92      1.0  0.59196  0.61829  0.66975  1.0000
  Hf  Hf93      1.0  0.84066  0.11833  0.16928  1.0000
  Hf  Hf94      1.0  0.84065  0.11000  0.67039  1.0000
  Hf  Hf95      1.0  0.84148  0.60801  0.16960  1.0000
  Hf  Hf96      1.0  0.83986  0.61303  0.66564  1.0000
  F   F1        1.0  0.07650  0.11322  0.31991  1.0000
  F   F2        1.0  0.08578  0.14826  0.78547  1.0000
  F   F3        1.0  0.07671  0.62099  0.30883  1.0000
  F   F4        1.0  0.08123  0.61992  0.81144  1.0000
  F   F5        1.0  0.32832  0.13010  0.30246  1.0000
  F   F6        1.0  0.33874  0.14624  0.79412  1.0000
  F   F7        1.0  0.33614  0.64444  0.29061  1.0000
  F   F8        1.0  0.32608  0.64012  0.80185  1.0000
  F   F9        1.0  0.57286  0.13330  0.30364  1.0000
  F   F10       1.0  0.58524  0.13611  0.79687  1.0000
  F   F11       1.0  0.59300  0.63540  0.29620  1.0000
  F   F12       1.0  0.57668  0.65232  0.79982  1.0000
  F   F13       1.0  0.82756  0.12025  0.31536  1.0000
  F   F14       1.0  0.82708  0.11477  0.81192  1.0000
  F   F15       1.0  0.82033  0.60682  0.31676  1.0000
  F   F16       1.0  0.83371  0.64454  0.79166  1.0000
  F   F17       1.0  0.17321  0.32154  0.45767  1.0000
  F   F18       1.0  0.18635  0.33247  0.94396  1.0000
  F   F19       1.0  0.19008  0.84685  0.43801  1.0000
  F   F20       1.0  0.19473  0.83094  0.94518  1.0000
  F   F21       1.0  0.43845  0.34354  0.44955  1.0000
  F   F22       1.0  0.42628  0.34507  0.95065  1.0000
  F   F23       1.0  0.43648  0.82663  0.44912  1.0000
  F   F24       1.0  0.44097  0.85389  0.93375  1.0000
  F   F25       1.0  0.68551  0.33867  0.45145  1.0000
  F   F26       1.0  0.69066  0.35556  0.93118  1.0000
  F   F27       1.0  0.69552  0.84478  0.44013  1.0000
  F   F28       1.0  0.69360  0.84792  0.93321  1.0000
  F   F29       1.0  0.92876  0.34455  0.45507  1.0000
  F   F30       1.0  0.93565  0.35000  0.94654  1.0000
  F   F31       1.0  0.93437  0.82731  0.44385  1.0000
  F   F32       1.0  0.93563  0.85026  0.92949  1.0000
  F   F33       1.0  0.16677  0.35893  0.19956  1.0000
  F   F34       1.0  0.17369  0.37652  0.69401  1.0000
  F   F35       1.0  0.17171  0.88289  0.18724  1.0000
  F   F36       1.0  0.15692  0.85499  0.71062  1.0000
  F   F37       1.0  0.42005  0.37399  0.19503  1.0000
  F   F38       1.0  0.41646  0.34480  0.71866  1.0000
  F   F39       1.0  0.42429  0.89292  0.18320  1.0000
  F   F40       1.0  0.41954  0.87934  0.69780  1.0000
  F   F41       1.0  0.67644  0.38204  0.18734  1.0000
  F   F42       1.0  0.66827  0.37825  0.69704  1.0000
  F   F43       1.0  0.67878  0.88149  0.18726  1.0000
  F   F44       1.0  0.66921  0.86153  0.70313  1.0000
  F   F45       1.0  0.92054  0.36121  0.20255  1.0000
  F   F46       1.0  0.91942  0.37830  0.69528  1.0000
  F   F47       1.0  0.91599  0.86387  0.19945  1.0000
  F   F48       1.0  0.92544  0.88015  0.68748  1.0000
  F   F49       1.0  0.07442  0.15661  0.03814  1.0000
  F   F50       1.0  0.05376  0.16767  0.55101  1.0000
  F   F51       1.0  0.06246  0.65945  0.05908  1.0000
  F   F52       1.0  0.06249  0.64669  0.55663  1.0000
  F   F53       1.0  0.30503  0.14159  0.06689  1.0000
  F   F54       1.0  0.30842  0.14888  0.56418  1.0000
  F   F55       1.0  0.32400  0.66402  0.04419  1.0000
  F   F56       1.0  0.31940  0.66047  0.55058  1.0000
  F   F57       1.0  0.56030  0.16740  0.04932  1.0000
  F   F58       1.0  0.55756  0.15345  0.56185  1.0000
  F   F59       1.0  0.56503  0.66108  0.05741  1.0000
  F   F60       1.0  0.56191  0.66774  0.55623  1.0000
  F   F61       1.0  0.81718  0.15350  0.04861  1.0000
  F   F62       1.0  0.81059  0.15432  0.55953  1.0000
  F   F63       1.0  0.81723  0.66395  0.04782  1.0000
  F   F64       1.0  0.81543  0.65094  0.54354  1.0000
  F   F65       1.0  0.20521  0.19249  0.21211  1.0000
  F   F66       1.0  0.20198  0.18575  0.72154  1.0000
  F   F67       1.0  0.20000  0.71027  0.21673  1.0000
  F   F68       1.0  0.21165  0.68420  0.70982  1.0000
  F   F69       1.0  0.45811  0.19384  0.21416  1.0000
  F   F70       1.0  0.46770  0.19416  0.70553  1.0000
  F   F71       1.0  0.44820  0.70897  0.20959  1.0000
  F   F72       1.0  0.45254  0.70763  0.71720  1.0000
  F   F73       1.0  0.70562  0.21191  0.20321  1.0000
  F   F74       1.0  0.69406  0.20586  0.72317  1.0000
  F   F75       1.0  0.69803  0.70301  0.21496  1.0000
  F   F76       1.0  0.70335  0.70675  0.72419  1.0000
  F   F77       1.0  0.95322  0.20280  0.21429  1.0000
  F   F78       1.0  0.95549  0.20140  0.70076  1.0000
  F   F79       1.0  0.95523  0.70098  0.20853  1.0000
  F   F80       1.0  0.95595  0.70522  0.71477  1.0000
  F   F81       1.0  0.14626  0.08943  0.04181  1.0000
  F   F82       1.0  0.14006  0.10820  0.54126  1.0000
  F   F83       1.0  0.14613  0.58667  0.04445  1.0000
  F   F84       1.0  0.14767  0.59320  0.53054  1.0000
  F   F85       1.0  0.40150  0.09477  0.04997  1.0000
  F   F86       1.0  0.39569  0.08337  0.53799  1.0000
  F   F87       1.0  0.40285  0.58707  0.02854  1.0000
  F   F88       1.0  0.40394  0.60323  0.53400  1.0000
  F   F89       1.0  0.64772  0.10642  0.03782  1.0000
  F   F90       1.0  0.64979  0.09772  0.53617  1.0000
  F   F91       1.0  0.64598  0.57377  0.04643  1.0000
  F   F92       1.0  0.65220  0.60703  0.54167  1.0000
  F   F93       1.0  0.90193  0.09950  0.03582  1.0000
  F   F94       1.0  0.89972  0.09222  0.54567  1.0000
  F   F95       1.0  0.90255  0.59069  0.04563  1.0000
  F   F96       1.0  0.89869  0.59941  0.52002  1.0000
  F   F97       1.0  0.14745  0.19264  0.12998  1.0000
  F   F98       1.0  0.15458  0.19142  0.63786  1.0000
  F   F99       1.0  0.15113  0.69607  0.14375  1.0000
  F   F100      1.0  0.14838  0.70539  0.61425  1.0000
  F   F101      1.0  0.40406  0.19370  0.12525  1.0000
  F   F102      1.0  0.40811  0.18163  0.62778  1.0000
  F   F103      1.0  0.40144  0.70749  0.11560  1.0000
  F   F104      1.0  0.39748  0.69182  0.64358  1.0000
  F   F105      1.0  0.65043  0.21735  0.11730  1.0000
  F   F106      1.0  0.65029  0.20362  0.61769  1.0000
  F   F107      1.0  0.65397  0.69228  0.11629  1.0000
  F   F108      1.0  0.64985  0.69693  0.64294  1.0000
  F   F109      1.0  0.89901  0.20588  0.13413  1.0000
  F   F110      1.0  0.90205  0.19192  0.63076  1.0000
  F   F111      1.0  0.89648  0.70740  0.12898  1.0000
  F   F112      1.0  0.90602  0.68798  0.61696  1.0000
  F   F113      1.0  0.09638  0.30657  0.37368  1.0000
  F   F114      1.0  0.10063  0.29933  0.86668  1.0000
  F   F115      1.0  0.10372  0.80522  0.37139  1.0000
  F   F116      1.0  0.08896  0.80166  0.88820  1.0000
  F   F117      1.0  0.34766  0.30563  0.37720  1.0000
  F   F118      1.0  0.35117  0.28272  0.89924  1.0000
  F   F119      1.0  0.35570  0.77600  0.36557  1.0000
  F   F120      1.0  0.34175  0.81401  0.87091  1.0000
  F   F121      1.0  0.60511  0.29221  0.37253  1.0000
  F   F122      1.0  0.59488  0.30398  0.86544  1.0000
  F   F123      1.0  0.59602  0.81183  0.37114  1.0000
  F   F124      1.0  0.59411  0.80895  0.86707  1.0000
  F   F125      1.0  0.85095  0.29719  0.37523  1.0000
  F   F126      1.0  0.84414  0.31317  0.86087  1.0000
  F   F127      1.0  0.84478  0.79957  0.39812  1.0000
  F   F128      1.0  0.85319  0.80723  0.85096  1.0000
  F   F129      1.0  0.06265  0.24071  0.15069  1.0000
  F   F130      1.0  0.06737  0.24629  0.63059  1.0000
  F   F131      1.0  0.06310  0.75436  0.13924  1.0000
  F   F132      1.0  0.07063  0.75211  0.61608  1.0000
  F   F133      1.0  0.31450  0.24610  0.14184  1.0000
  F   F134      1.0  0.31957  0.24996  0.63709  1.0000
  F   F135      1.0  0.31617  0.75528  0.15244  1.0000
  F   F136      1.0  0.30876  0.74931  0.64634  1.0000
  F   F137      1.0  0.56220  0.24726  0.14838  1.0000
  F   F138      1.0  0.56102  0.24888  0.64313  1.0000
  F   F139      1.0  0.57153  0.75526  0.12898  1.0000
  F   F140      1.0  0.56275  0.75942  0.65277  1.0000
  F   F141      1.0  0.82823  0.26523  0.10648  1.0000
  F   F142      1.0  0.81846  0.25336  0.63379  1.0000
  F   F143      1.0  0.81103  0.75175  0.15669  1.0000
  F   F144      1.0  0.80922  0.75065  0.65383  1.0000
  F   F145      1.0  0.12402  0.37723  0.09161  1.0000
  F   F146      1.0  0.12394  0.36285  0.60260  1.0000
  F   F147      1.0  0.12488  0.87096  0.10129  1.0000
  F   F148      1.0  0.12497  0.87859  0.59784  1.0000
  F   F149      1.0  0.37264  0.35815  0.11642  1.0000
  F   F150      1.0  0.37274  0.36961  0.61307  1.0000
  F   F151      1.0  0.37368  0.88618  0.10345  1.0000
  F   F152      1.0  0.36863  0.86894  0.61289  1.0000
  F   F153      1.0  0.62249  0.37247  0.10785  1.0000
  F   F154      1.0  0.62205  0.36241  0.62041  1.0000
  F   F155      1.0  0.62474  0.86951  0.10159  1.0000
  F   F156      1.0  0.62404  0.87710  0.60449  1.0000
  F   F157      1.0  0.87211  0.39323  0.09864  1.0000
  F   F158      1.0  0.86951  0.36754  0.62492  1.0000
  F   F159      1.0  0.88055  0.89758  0.07163  1.0000
  F   F160      1.0  0.87300  0.86013  0.62009  1.0000
  F   F161      1.0  0.18471  0.23804  0.35591  1.0000
  F   F162      1.0  0.18607  0.25385  0.84582  1.0000
  F   F163      1.0  0.19181  0.74933  0.35929  1.0000
  F   F164      1.0  0.19006  0.75015  0.84829  1.0000
  F   F165      1.0  0.42960  0.24913  0.36575  1.0000
  F   F166      1.0  0.43999  0.23943  0.85607  1.0000
  F   F167      1.0  0.44019  0.74840  0.34535  1.0000
  F   F168      1.0  0.43304  0.74941  0.85803  1.0000
  F   F169      1.0  0.68487  0.25558  0.35088  1.0000
  F   F170      1.0  0.68332  0.24804  0.85561  1.0000
  F   F171      1.0  0.68205  0.74997  0.36282  1.0000
  F   F172      1.0  0.67456  0.74201  0.88261  1.0000
  F   F173      1.0  0.93129  0.23960  0.37242  1.0000
  F   F174      1.0  0.92898  0.24638  0.85619  1.0000
  F   F175      1.0  0.92867  0.74886  0.34718  1.0000
  F   F176      1.0  0.93558  0.74846  0.86468  1.0000
  F   F177      1.0  0.12511  0.12083  0.40163  1.0000
  F   F178      1.0  0.12931  0.10849  0.89128  1.0000
  F   F179      1.0  0.12307  0.62594  0.39377  1.0000
  F   F180      1.0  0.12694  0.65125  0.88297  1.0000
  F   F181      1.0  0.37675  0.13518  0.38712  1.0000
  F   F182      1.0  0.37870  0.10798  0.90701  1.0000
  F   F183      1.0  0.37828  0.60486  0.40256  1.0000
  F   F184      1.0  0.37337  0.63448  0.88846  1.0000
  F   F185      1.0  0.62914  0.12235  0.38363  1.0000
  F   F186      1.0  0.61770  0.11018  0.91322  1.0000
  F   F187      1.0  0.62561  0.63221  0.40130  1.0000
  F   F188      1.0  0.63009  0.63094  0.87907  1.0000
  F   F189      1.0  0.87308  0.11691  0.40113  1.0000
  F   F190      1.0  0.87429  0.14109  0.88188  1.0000
  F   F191      1.0  0.87504  0.62078  0.37104  1.0000
  F   F192      1.0  0.87643  0.60815  0.90104  1.0000
  F   F193      1.0  0.01013  0.35097  0.08653  1.0000
  F   F194      1.0  0.00722  0.36624  0.56195  1.0000
  F   F195      1.0  0.01181  0.85067  0.05808  1.0000
  F   F196      1.0  0.00437  0.85631  0.57682  1.0000
  F   F197      1.0  0.25503  0.36536  0.06219  1.0000
  F   F198      1.0  0.26217  0.36382  0.58688  1.0000
  F   F199      1.0  0.26232  0.84984  0.06852  1.0000
  F   F200      1.0  0.25917  0.84885  0.56624  1.0000
  F   F201      1.0  0.51067  0.35804  0.07307  1.0000
  F   F202      1.0  0.50653  0.36501  0.57267  1.0000
  F   F203      1.0  0.50944  0.86614  0.06134  1.0000
  F   F204      1.0  0.50411  0.87529  0.57988  1.0000
  F   F205      1.0  0.75869  0.36801  0.07211  1.0000
  F   F206      1.0  0.75259  0.36004  0.58144  1.0000
  F   F207      1.0  0.75532  0.85561  0.08024  1.0000
  F   F208      1.0  0.75863  0.86893  0.56475  1.0000
  F   F209      1.0  0.07006  0.47746  0.18394  1.0000
  F   F210      1.0  0.07310  0.47306  0.68787  1.0000
  F   F211      1.0  0.07027  0.98419  0.16410  1.0000
  F   F212      1.0  0.06769  0.98452  0.68076  1.0000
  F   F213      1.0  0.31900  0.48676  0.18001  1.0000
  F   F214      1.0  0.32574  0.49221  0.66320  1.0000
  F   F215      1.0  0.31919  0.99153  0.16924  1.0000
  F   F216      1.0  0.31210  0.97622  0.68092  1.0000
  F   F217      1.0  0.56260  0.48445  0.18377  1.0000
  F   F218      1.0  0.57331  0.48756  0.66482  1.0000
  F   F219      1.0  0.58196  0.98608  0.15617  1.0000
  F   F220      1.0  0.57420  0.99230  0.65597  1.0000
  F   F221      1.0  0.81812  0.49260  0.17131  1.0000
  F   F222      1.0  0.82214  0.48762  0.67243  1.0000
  F   F223      1.0  0.81891  0.99311  0.18988  1.0000
  F   F224      1.0  0.81212  0.98536  0.67967  1.0000
  F   F225      1.0  0.23704  0.13238  0.44390  1.0000
  F   F226      1.0  0.24688  0.13624  0.91666  1.0000
  F   F227      1.0  0.24654  0.61847  0.42072  1.0000
  F   F228      1.0  0.24170  0.61671  0.93267  1.0000
  F   F229      1.0  0.48834  0.14032  0.43737  1.0000
  F   F230      1.0  0.49362  0.14128  0.92259  1.0000
  F   F231      1.0  0.49686  0.65462  0.41985  1.0000
  F   F232      1.0  0.49587  0.62423  0.92569  1.0000
  F   F233      1.0  0.74087  0.16243  0.41473  1.0000
  F   F234      1.0  0.74028  0.14206  0.92888  1.0000
  F   F235      1.0  0.74582  0.66249  0.40213  1.0000
  F   F236      1.0  0.74444  0.63794  0.92008  1.0000
  F   F237      1.0  0.98994  0.12569  0.44351  1.0000
  F   F238      1.0  0.99584  0.14044  0.93420  1.0000
  F   F239      1.0  0.99240  0.63448  0.40816  1.0000
  F   F240      1.0  0.99939  0.63401  0.92376  1.0000
  F   F241      1.0  0.18721  0.01961  0.31093  1.0000
  F   F242      1.0  0.18743  0.99408  0.82522  1.0000
  F   F243      1.0  0.18308  0.50985  0.33146  1.0000
  F   F244      1.0  0.17432  0.51472  0.84268  1.0000
  F   F245      1.0  0.43256  0.01792  0.31602  1.0000
  F   F246      1.0  0.43130  0.01266  0.81314  1.0000
  F   F247      1.0  0.43957  0.50866  0.31968  1.0000
  F   F248      1.0  0.42815  0.51790  0.82655  1.0000
  F   F249      1.0  0.68171  0.01696  0.32791  1.0000
  F   F250      1.0  0.68131  0.02274  0.81997  1.0000
  F   F251      1.0  0.67794  0.52165  0.32389  1.0000
  F   F252      1.0  0.68337  0.53169  0.80259  1.0000
  F   F253      1.0  0.93351  0.01440  0.32962  1.0000
  F   F254      1.0  0.92734  0.01915  0.83935  1.0000
  F   F255      1.0  0.92755  0.50957  0.33661  1.0000
  F   F256      1.0  0.93847  0.51997  0.80855  1.0000
  F   F257      1.0  0.00270  0.25366  0.00034  1.0000
  F   F258      1.0  0.00036  0.26141  0.48370  1.0000
  F   F259      1.0  0.99553  0.74780  0.99814  1.0000
  F   F260      1.0  0.00366  0.75748  0.48874  1.0000
  F   F261      1.0  0.24631  0.24122  0.99473  1.0000
  F   F262      1.0  0.24555  0.26078  0.50290  1.0000
  F   F263      1.0  0.25040  0.73469  0.01762  1.0000
  F   F264      1.0  0.24775  0.73706  0.49773  1.0000
  F   F265      1.0  0.49234  0.24793  0.99957  1.0000
  F   F266      1.0  0.50589  0.26010  0.49108  1.0000
  F   F267      1.0  0.50000  0.73875  0.00034  1.0000
  F   F268      1.0  0.50299  0.75501  0.50740  1.0000
  F   F269      1.0  0.74766  0.25179  0.00594  1.0000
  F   F270      1.0  0.75762  0.27057  0.47878  1.0000
  F   F271      1.0  0.74783  0.74328  0.00451  1.0000
  F   F272      1.0  0.74978  0.72981  0.52095  1.0000
  F   F273      1.0  0.12437  0.00394  0.24669  1.0000
  F   F274      1.0  0.12911  0.99666  0.74399  1.0000
  F   F275      1.0  0.12873  0.50206  0.24434  1.0000
  F   F276      1.0  0.13356  0.50710  0.74411  1.0000
  F   F277      1.0  0.37431  0.01032  0.25785  1.0000
  F   F278      1.0  0.37392  0.00113  0.74559  1.0000
  F   F279      1.0  0.38417  0.51529  0.23330  1.0000
  F   F280      1.0  0.36869  0.48866  0.75807  1.0000
  F   F281      1.0  0.62439  0.00181  0.25106  1.0000
  F   F282      1.0  0.62106  0.99539  0.76257  1.0000
  F   F283      1.0  0.62430  0.49337  0.24892  1.0000
  F   F284      1.0  0.60860  0.49315  0.77372  1.0000
  F   F285      1.0  0.88001  0.01211  0.25171  1.0000
  F   F286      1.0  0.87515  0.99995  0.75092  1.0000
  F   F287      1.0  0.88248  0.50836  0.24259  1.0000
  F   F288      1.0  0.87114  0.50155  0.75500  1.0000
  F   F289      1.0  0.04203  0.01224  0.01869  1.0000
  F   F290      1.0  0.04650  0.02934  0.52592  1.0000
  F   F291      1.0  0.04817  0.52024  0.02142  1.0000
  F   F292      1.0  0.04016  0.52880  0.51779  1.0000
  F   F293      1.0  0.28977  0.02607  0.01847  1.0000
  F   F294      1.0  0.29903  0.02814  0.50564  1.0000
  F   F295      1.0  0.29946  0.53559  0.02402  1.0000
  F   F296      1.0  0.29150  0.53209  0.53376  1.0000
  F   F297      1.0  0.53500  0.03872  0.03164  1.0000
  F   F298      1.0  0.54042  0.03260  0.51569  1.0000
  F   F299      1.0  0.54298  0.53172  0.02736  1.0000
  F   F300      1.0  0.53847  0.52723  0.53151  1.0000
  F   F301      1.0  0.78915  0.02830  0.02535  1.0000
  F   F302      1.0  0.78275  0.03440  0.52382  1.0000
  F   F303      1.0  0.78905  0.54352  0.01705  1.0000
  F   F304      1.0  0.78711  0.52320  0.53669  1.0000
  F   F305      1.0  0.23057  0.40802  0.22735  1.0000
  F   F306      1.0  0.23439  0.43490  0.73168  1.0000
  F   F307      1.0  0.23377  0.91882  0.22403  1.0000
  F   F308      1.0  0.23192  0.92049  0.71400  1.0000
  F   F309      1.0  0.47995  0.41047  0.22905  1.0000
  F   F310      1.0  0.47870  0.42463  0.72662  1.0000
  F   F311      1.0  0.49091  0.91131  0.23206  1.0000
  F   F312      1.0  0.48477  0.90799  0.72665  1.0000
  F   F313      1.0  0.73300  0.41411  0.23131  1.0000
  F   F314      1.0  0.73317  0.39979  0.73658  1.0000
  F   F315      1.0  0.74342  0.89246  0.23410  1.0000
  F   F316      1.0  0.72867  0.92277  0.71897  1.0000
  F   F317      1.0  0.98314  0.41898  0.22152  1.0000
  F   F318      1.0  0.98558  0.41268  0.72423  1.0000
  F   F319      1.0  0.98201  0.90581  0.24094  1.0000
  F   F320      1.0  0.98729  0.91867  0.71433  1.0000
  F   F321      1.0  0.20478  0.45378  0.49019  1.0000
  F   F322      1.0  0.20481  0.46803  0.97756  1.0000
  F   F323      1.0  0.20326  0.97313  0.48802  1.0000
  F   F324      1.0  0.20829  0.96695  0.98939  1.0000
  F   F325      1.0  0.46304  0.46983  0.47904  1.0000
  F   F326      1.0  0.46032  0.44697  0.97445  1.0000
  F   F327      1.0  0.45777  0.97261  0.47600  1.0000
  F   F328      1.0  0.45794  0.97065  0.97177  1.0000
  F   F329      1.0  0.70276  0.48153  0.47724  1.0000
  F   F330      1.0  0.71288  0.47021  0.96879  1.0000
  F   F331      1.0  0.71182  0.98648  0.46841  1.0000
  F   F332      1.0  0.70611  0.97128  0.97688  1.0000
  F   F333      1.0  0.95886  0.46392  0.47779  1.0000
  F   F334      1.0  0.96564  0.46874  0.97258  1.0000
  F   F335      1.0  0.95566  0.97330  0.47773  1.0000
  F   F336      1.0  0.96125  0.97301  0.97901  1.0000
  F   F337      1.0  0.01359  0.09389  0.25910  1.0000
  F   F338      1.0  0.01657  0.08398  0.79694  1.0000
  F   F339      1.0  0.01220  0.58744  0.27387  1.0000
  F   F340      1.0  0.02021  0.58792  0.76281  1.0000
  F   F341      1.0  0.26554  0.06741  0.28464  1.0000
  F   F342      1.0  0.27127  0.07451  0.77875  1.0000
  F   F343      1.0  0.26845  0.58949  0.26296  1.0000
  F   F344      1.0  0.27009  0.56892  0.77504  1.0000
  F   F345      1.0  0.51765  0.07315  0.28066  1.0000
  F   F346      1.0  0.52011  0.06776  0.78465  1.0000
  F   F347      1.0  0.51856  0.60578  0.26530  1.0000
  F   F348      1.0  0.51643  0.59369  0.75821  1.0000
  F   F349      1.0  0.76407  0.10603  0.26146  1.0000
  F   F350      1.0  0.76357  0.09587  0.77438  1.0000
  F   F351      1.0  0.76642  0.60241  0.24436  1.0000
  F   F352      1.0  0.76985  0.58421  0.77015  1.0000
  F   F353      1.0  0.09866  0.42291  0.45055  1.0000
  F   F354      1.0  0.10240  0.39424  0.95531  1.0000
  F   F355      1.0  0.10134  0.90709  0.45713  1.0000
  F   F356      1.0  0.10674  0.90464  0.96061  1.0000
  F   F357      1.0  0.34827  0.42271  0.45190  1.0000
  F   F358      1.0  0.34900  0.41807  0.96665  1.0000
  F   F359      1.0  0.34990  0.88072  0.46910  1.0000
  F   F360      1.0  0.35208  0.90538  0.96293  1.0000
  F   F361      1.0  0.60144  0.41699  0.45854  1.0000
  F   F362      1.0  0.59912  0.39535  0.96497  1.0000
  F   F363      1.0  0.59990  0.90148  0.46116  1.0000
  F   F364      1.0  0.60091  0.91328  0.96012  1.0000
  F   F365      1.0  0.85168  0.41081  0.46375  1.0000
  F   F366      1.0  0.84743  0.41534  0.94385  1.0000
  F   F367      1.0  0.85225  0.92787  0.46901  1.0000
  F   F368      1.0  0.85055  0.89602  0.95941  1.0000
  F   F369      1.0  0.04805  0.29503  0.28885  1.0000
  F   F370      1.0  0.04513  0.29657  0.78347  1.0000
  F   F371      1.0  0.05127  0.79880  0.28036  1.0000
  F   F372      1.0  0.04300  0.79759  0.78232  1.0000
  F   F373      1.0  0.29095  0.29173  0.29541  1.0000
  F   F374      1.0  0.29756  0.30014  0.79347  1.0000
  F   F375      1.0  0.28906  0.80783  0.30025  1.0000
  F   F376      1.0  0.28581  0.79534  0.79152  1.0000
  F   F377      1.0  0.55023  0.30249  0.28915  1.0000
  F   F378      1.0  0.53908  0.30195  0.79162  1.0000
  F   F379      1.0  0.55353  0.80419  0.27031  1.0000
  F   F380      1.0  0.53853  0.80766  0.80075  1.0000
  F   F381      1.0  0.79475  0.30523  0.27336  1.0000
  F   F382      1.0  0.79117  0.29483  0.78807  1.0000
  F   F383      1.0  0.81333  0.80126  0.28716  1.0000
  F   F384      1.0  0.79369  0.80437  0.79531  1.0000
