data_image0
_chemical_formula_structural       Hf96F384
_chemical_formula_sum              "Hf96 F384"
_cell_length_a       31.0192
_cell_length_b       15.5069
_cell_length_c       15.5005
_cell_angle_alpha    63.342
_cell_angle_beta     63.342
_cell_angle_gamma    80.1625

_space_group_name_H-M_alt    "P 1"
_space_group_IT_number       1

loop_
  _space_group_symop_operation_xyz
  'x, y, z'

loop_
  _atom_site_type_symbol
  _atom_site_label
  _atom_site_symmetry_multiplicity
  _atom_site_fract_x
  _atom_site_fract_y
  _atom_site_fract_z
  _atom_site_occupancy
  Hf  Hf1       1.0  0.19421  0.10231  0.38146  1.0000
  Hf  Hf2       1.0  0.19692  0.10224  0.87977  1.0000
  Hf  Hf3       1.0  0.19613  0.60344  0.37734  1.0000
  Hf  Hf4       1.0  0.19366  0.61344  0.87268  1.0000
  Hf  Hf5       1.0  0.45002  0.10313  0.37094  1.0000
  Hf  Hf6       1.0  0.44795  0.10911  0.87268  1.0000
  Hf  Hf7       1.0  0.44657  0.61068  0.37498  1.0000
  Hf  Hf8       1.0  0.44699  0.60825  0.87380  1.0000
  Hf  Hf9       1.0  0.69759  0.11595  0.36750  1.0000
  Hf  Hf10      1.0  0.69829  0.11211  0.87074  1.0000
  Hf  Hf11      1.0  0.69667  0.61078  0.37990  1.0000
  Hf  Hf12      1.0  0.70049  0.60860  0.87408  1.0000
  Hf  Hf13      1.0  0.94419  0.10097  0.37545  1.0000
  Hf  Hf14      1.0  0.94863  0.10428  0.87528  1.0000
  Hf  Hf15      1.0  0.94696  0.59921  0.38233  1.0000
  Hf  Hf16      1.0  0.94488  0.60172  0.87875  1.0000
  Hf  Hf17      1.0  0.05324  0.38618  0.12956  1.0000
  Hf  Hf18      1.0  0.04857  0.38393  0.63644  1.0000
  Hf  Hf19      1.0  0.05169  0.89894  0.12459  1.0000
  Hf  Hf20      1.0  0.05247  0.88914  0.62341  1.0000
  Hf  Hf21      1.0  0.30418  0.39071  0.12172  1.0000
  Hf  Hf22      1.0  0.30021  0.38753  0.62970  1.0000
  Hf  Hf23      1.0  0.30072  0.88682  0.13481  1.0000
  Hf  Hf24      1.0  0.30389  0.88956  0.63398  1.0000
  Hf  Hf25      1.0  0.55322  0.40650  0.11578  1.0000
  Hf  Hf26      1.0  0.55223  0.39198  0.62873  1.0000
  Hf  Hf27      1.0  0.55651  0.90141  0.11480  1.0000
  Hf  Hf28      1.0  0.55411  0.89631  0.61682  1.0000
  Hf  Hf29      1.0  0.80570  0.39411  0.12502  1.0000
  Hf  Hf30      1.0  0.80811  0.39140  0.62148  1.0000
  Hf  Hf31      1.0  0.80316  0.89554  0.13039  1.0000
  Hf  Hf32      1.0  0.80348  0.89238  0.62443  1.0000
  Hf  Hf33      1.0  0.05241  0.17530  0.41530  1.0000
  Hf  Hf34      1.0  0.05662  0.18239  0.91635  1.0000
  Hf  Hf35      1.0  0.05603  0.67762  0.42007  1.0000
  Hf  Hf36      1.0  0.05269  0.67410  0.92539  1.0000
  Hf  Hf37      1.0  0.30514  0.17554  0.42210  1.0000
  Hf  Hf38      1.0  0.30790  0.17778  0.91591  1.0000
  Hf  Hf39      1.0  0.30612  0.67984  0.41585  1.0000
  Hf  Hf40      1.0  0.30701  0.68389  0.91402  1.0000
  Hf  Hf41      1.0  0.55511  0.18574  0.41977  1.0000
  Hf  Hf42      1.0  0.55744  0.18599  0.91611  1.0000
  Hf  Hf43      1.0  0.55734  0.68774  0.41201  1.0000
  Hf  Hf44      1.0  0.56063  0.68853  0.90569  1.0000
  Hf  Hf45      1.0  0.80426  0.18200  0.42565  1.0000
  Hf  Hf46      1.0  0.80880  0.18239  0.90973  1.0000
  Hf  Hf47      1.0  0.81019  0.67712  0.41728  1.0000
  Hf  Hf48      1.0  0.80484  0.68720  0.92269  1.0000
  Hf  Hf49      1.0  0.15965  0.38296  0.33017  1.0000
  Hf  Hf50      1.0  0.15972  0.38900  0.83509  1.0000
  Hf  Hf51      1.0  0.15895  0.88757  0.32933  1.0000
  Hf  Hf52      1.0  0.15674  0.88657  0.83458  1.0000
  Hf  Hf53      1.0  0.40947  0.38445  0.33398  1.0000
  Hf  Hf54      1.0  0.40419  0.38262  0.83911  1.0000
  Hf  Hf55      1.0  0.40590  0.89123  0.33337  1.0000
  Hf  Hf56      1.0  0.41133  0.89148  0.83492  1.0000
  Hf  Hf57      1.0  0.66038  0.39343  0.32922  1.0000
  Hf  Hf58      1.0  0.65476  0.38568  0.84331  1.0000
  Hf  Hf59      1.0  0.66003  0.89647  0.32991  1.0000
  Hf  Hf60      1.0  0.66274  0.89206  0.83186  1.0000
  Hf  Hf61      1.0  0.91139  0.38931  0.32575  1.0000
  Hf  Hf62      1.0  0.90895  0.38677  0.83633  1.0000
  Hf  Hf63      1.0  0.90844  0.89228  0.32699  1.0000
  Hf  Hf64      1.0  0.90608  0.88488  0.83893  1.0000
  Hf  Hf65      1.0  0.19246  0.31481  0.08587  1.0000
  Hf  Hf66      1.0  0.19063  0.31275  0.59099  1.0000
  Hf  Hf67      1.0  0.19231  0.81636  0.08211  1.0000
  Hf  Hf68      1.0  0.19353  0.81447  0.57874  1.0000
  Hf  Hf69      1.0  0.44472  0.32198  0.07945  1.0000
  Hf  Hf70      1.0  0.44159  0.31913  0.58279  1.0000
  Hf  Hf71      1.0  0.44461  0.81832  0.07786  1.0000
  Hf  Hf72      1.0  0.44344  0.81693  0.58404  1.0000
  Hf  Hf73      1.0  0.69645  0.32509  0.07548  1.0000
  Hf  Hf74      1.0  0.69467  0.32868  0.57735  1.0000
  Hf  Hf75      1.0  0.69444  0.81482  0.08839  1.0000
  Hf  Hf76      1.0  0.69340  0.81925  0.58017  1.0000
  Hf  Hf77      1.0  0.94448  0.32085  0.07428  1.0000
  Hf  Hf78      1.0  0.94727  0.31426  0.58129  1.0000
  Hf  Hf79      1.0  0.94339  0.81577  0.08425  1.0000
  Hf  Hf80      1.0  0.94206  0.81760  0.57554  1.0000
  Hf  Hf81      1.0  0.09068  0.10647  0.17277  1.0000
  Hf  Hf82      1.0  0.09036  0.10944  0.66498  1.0000
  Hf  Hf83      1.0  0.08848  0.61142  0.16524  1.0000
  Hf  Hf84      1.0  0.08681  0.60646  0.67417  1.0000
  Hf  Hf85      1.0  0.34094  0.10863  0.16825  1.0000
  Hf  Hf86      1.0  0.34340  0.11613  0.66489  1.0000
  Hf  Hf87      1.0  0.34157  0.61277  0.16205  1.0000
  Hf  Hf88      1.0  0.33992  0.61354  0.66642  1.0000
  Hf  Hf89      1.0  0.59113  0.12446  0.15726  1.0000
  Hf  Hf90      1.0  0.59173  0.10778  0.66869  1.0000
  Hf  Hf91      1.0  0.59016  0.61586  0.16598  1.0000
  Hf  Hf92      1.0  0.59043  0.61257  0.66487  1.0000
  Hf  Hf93      1.0  0.83915  0.11340  0.16888  1.0000
  Hf  Hf94      1.0  0.83900  0.11383  0.66879  1.0000
  Hf  Hf95      1.0  0.84109  0.60947  0.16859  1.0000
  Hf  Hf96      1.0  0.84104  0.61850  0.66647  1.0000
  F   F1        1.0  0.07672  0.11783  0.31077  1.0000
  F   F2        1.0  0.08063  0.15146  0.78638  1.0000
  F   F3        1.0  0.08081  0.62732  0.30104  1.0000
  F   F4        1.0  0.07604  0.62515  0.80554  1.0000
  F   F5        1.0  0.32703  0.12958  0.30280  1.0000
  F   F6        1.0  0.33576  0.12542  0.79987  1.0000
  F   F7        1.0  0.32852  0.61622  0.30424  1.0000
  F   F8        1.0  0.32364  0.62809  0.81090  1.0000
  F   F9        1.0  0.58561  0.15118  0.28422  1.0000
  F   F10       1.0  0.57715  0.12728  0.81082  1.0000
  F   F11       1.0  0.58113  0.63151  0.30608  1.0000
  F   F12       1.0  0.58999  0.64679  0.78540  1.0000
  F   F13       1.0  0.83066  0.12699  0.30318  1.0000
  F   F14       1.0  0.83063  0.12612  0.80028  1.0000
  F   F15       1.0  0.82928  0.62736  0.30228  1.0000
  F   F16       1.0  0.82924  0.63933  0.79884  1.0000
  F   F17       1.0  0.18815  0.33554  0.45164  1.0000
  F   F18       1.0  0.18565  0.33405  0.95217  1.0000
  F   F19       1.0  0.19196  0.83631  0.43609  1.0000
  F   F20       1.0  0.18133  0.83357  0.95085  1.0000
  F   F21       1.0  0.44216  0.34872  0.43685  1.0000
  F   F22       1.0  0.43949  0.35384  0.93911  1.0000
  F   F23       1.0  0.43387  0.84089  0.44453  1.0000
  F   F24       1.0  0.44027  0.84263  0.94595  1.0000
  F   F25       1.0  0.68766  0.35602  0.44778  1.0000
  F   F26       1.0  0.68923  0.33932  0.93651  1.0000
  F   F27       1.0  0.70031  0.85597  0.43125  1.0000
  F   F28       1.0  0.68491  0.83523  0.94915  1.0000
  F   F29       1.0  0.94496  0.33855  0.43559  1.0000
  F   F30       1.0  0.93766  0.34513  0.94206  1.0000
  F   F31       1.0  0.93666  0.85311  0.43179  1.0000
  F   F32       1.0  0.92922  0.83738  0.95632  1.0000
  F   F33       1.0  0.16854  0.37063  0.19752  1.0000
  F   F34       1.0  0.16503  0.35032  0.71181  1.0000
  F   F35       1.0  0.16762  0.86195  0.19290  1.0000
  F   F36       1.0  0.17247  0.87007  0.69283  1.0000
  F   F37       1.0  0.42175  0.36282  0.20277  1.0000
  F   F38       1.0  0.42087  0.36907  0.69439  1.0000
  F   F39       1.0  0.42319  0.86971  0.19734  1.0000
  F   F40       1.0  0.42629  0.88927  0.67576  1.0000
  F   F41       1.0  0.67106  0.37953  0.19395  1.0000
  F   F42       1.0  0.66944  0.37771  0.70403  1.0000
  F   F43       1.0  0.67156  0.88142  0.19118  1.0000
  F   F44       1.0  0.66714  0.87451  0.69348  1.0000
  F   F45       1.0  0.92487  0.38261  0.18776  1.0000
  F   F46       1.0  0.92206  0.35916  0.70550  1.0000
  F   F47       1.0  0.92171  0.86538  0.20418  1.0000
  F   F48       1.0  0.91554  0.86396  0.70090  1.0000
  F   F49       1.0  0.06336  0.13476  0.06050  1.0000
  F   F50       1.0  0.07166  0.15442  0.54068  1.0000
  F   F51       1.0  0.05480  0.65816  0.05799  1.0000
  F   F52       1.0  0.05854  0.64888  0.56130  1.0000
  F   F53       1.0  0.31268  0.14345  0.05544  1.0000
  F   F54       1.0  0.30965  0.15509  0.56433  1.0000
  F   F55       1.0  0.31607  0.65381  0.05139  1.0000
  F   F56       1.0  0.31288  0.66489  0.56036  1.0000
  F   F57       1.0  0.55917  0.16551  0.05947  1.0000
  F   F58       1.0  0.56202  0.14856  0.55992  1.0000
  F   F59       1.0  0.57078  0.66856  0.04070  1.0000
  F   F60       1.0  0.57564  0.66601  0.54225  1.0000
  F   F61       1.0  0.81109  0.16400  0.05869  1.0000
  F   F62       1.0  0.80429  0.15093  0.58006  1.0000
  F   F63       1.0  0.81313  0.65614  0.06207  1.0000
  F   F64       1.0  0.83114  0.67160  0.52643  1.0000
  F   F65       1.0  0.20545  0.20617  0.22310  1.0000
  F   F66       1.0  0.19426  0.19221  0.72437  1.0000
  F   F67       1.0  0.21252  0.70482  0.19313  1.0000
  F   F68       1.0  0.20269  0.70555  0.72454  1.0000
  F   F69       1.0  0.45504  0.20697  0.22304  1.0000
  F   F70       1.0  0.45824  0.21455  0.70126  1.0000
  F   F71       1.0  0.45160  0.70979  0.21540  1.0000
  F   F72       1.0  0.46011  0.69806  0.71472  1.0000
  F   F73       1.0  0.70568  0.20097  0.20843  1.0000
  F   F74       1.0  0.70487  0.19554  0.71450  1.0000
  F   F75       1.0  0.70237  0.71772  0.22383  1.0000
  F   F76       1.0  0.70199  0.69674  0.72349  1.0000
  F   F77       1.0  0.94559  0.20571  0.20600  1.0000
  F   F78       1.0  0.95787  0.18502  0.71896  1.0000
  F   F79       1.0  0.95125  0.69883  0.20567  1.0000
  F   F80       1.0  0.94251  0.69807  0.70284  1.0000
  F   F81       1.0  0.15278  0.09561  0.03627  1.0000
  F   F82       1.0  0.14895  0.07857  0.54510  1.0000
  F   F83       1.0  0.14463  0.59848  0.03563  1.0000
  F   F84       1.0  0.14876  0.60680  0.53549  1.0000
  F   F85       1.0  0.39647  0.07858  0.05578  1.0000
  F   F86       1.0  0.40410  0.08274  0.55586  1.0000
  F   F87       1.0  0.39764  0.59625  0.03768  1.0000
  F   F88       1.0  0.39420  0.58924  0.54631  1.0000
  F   F89       1.0  0.65046  0.10957  0.03359  1.0000
  F   F90       1.0  0.64828  0.11698  0.53736  1.0000
  F   F91       1.0  0.64746  0.59892  0.04733  1.0000
  F   F92       1.0  0.64982  0.57598  0.54240  1.0000
  F   F93       1.0  0.89906  0.09411  0.03393  1.0000
  F   F94       1.0  0.89470  0.09714  0.54141  1.0000
  F   F95       1.0  0.89950  0.58225  0.05072  1.0000
  F   F96       1.0  0.90229  0.57858  0.54438  1.0000
  F   F97       1.0  0.15174  0.18434  0.14740  1.0000
  F   F98       1.0  0.14996  0.19260  0.61933  1.0000
  F   F99       1.0  0.14973  0.69853  0.13496  1.0000
  F   F100      1.0  0.14961  0.69516  0.64555  1.0000
  F   F101      1.0  0.40746  0.19826  0.13372  1.0000
  F   F102      1.0  0.40334  0.20256  0.61585  1.0000
  F   F103      1.0  0.40920  0.68859  0.11839  1.0000
  F   F104      1.0  0.40341  0.68447  0.63578  1.0000
  F   F105      1.0  0.65860  0.20798  0.11059  1.0000
  F   F106      1.0  0.65225  0.21706  0.62662  1.0000
  F   F107      1.0  0.65078  0.69735  0.14150  1.0000
  F   F108      1.0  0.65714  0.70446  0.60585  1.0000
  F   F109      1.0  0.90707  0.20202  0.09395  1.0000
  F   F110      1.0  0.90152  0.20253  0.62446  1.0000
  F   F111      1.0  0.89967  0.68620  0.13261  1.0000
  F   F112      1.0  0.89976  0.70303  0.59987  1.0000
  F   F113      1.0  0.09487  0.29179  0.36820  1.0000
  F   F114      1.0  0.09488  0.29416  0.89323  1.0000
  F   F115      1.0  0.09765  0.80057  0.37821  1.0000
  F   F116      1.0  0.09925  0.79238  0.86131  1.0000
  F   F117      1.0  0.34518  0.29013  0.38468  1.0000
  F   F118      1.0  0.34636  0.30077  0.88892  1.0000
  F   F119      1.0  0.34108  0.79690  0.37434  1.0000
  F   F120      1.0  0.35088  0.80459  0.85873  1.0000
  F   F121      1.0  0.59843  0.29142  0.39917  1.0000
  F   F122      1.0  0.59957  0.30202  0.87564  1.0000
  F   F123      1.0  0.59834  0.80482  0.36734  1.0000
  F   F124      1.0  0.60725  0.80756  0.86380  1.0000
  F   F125      1.0  0.85119  0.29810  0.39236  1.0000
  F   F126      1.0  0.85278  0.30141  0.88965  1.0000
  F   F127      1.0  0.85017  0.80551  0.36071  1.0000
  F   F128      1.0  0.84382  0.80260  0.88289  1.0000
  F   F129      1.0  0.06844  0.24530  0.13458  1.0000
  F   F130      1.0  0.06481  0.25589  0.63097  1.0000
  F   F131      1.0  0.06841  0.75037  0.13059  1.0000
  F   F132      1.0  0.07586  0.75520  0.61709  1.0000
  F   F133      1.0  0.31792  0.25763  0.12114  1.0000
  F   F134      1.0  0.31468  0.24784  0.64400  1.0000
  F   F135      1.0  0.31862  0.75107  0.15067  1.0000
  F   F136      1.0  0.31717  0.74854  0.64379  1.0000
  F   F137      1.0  0.56513  0.26585  0.13239  1.0000
  F   F138      1.0  0.57013  0.25300  0.62916  1.0000
  F   F139      1.0  0.56705  0.76188  0.13423  1.0000
  F   F140      1.0  0.56668  0.75328  0.63421  1.0000
  F   F141      1.0  0.81235  0.25434  0.14562  1.0000
  F   F142      1.0  0.81888  0.25491  0.63232  1.0000
  F   F143      1.0  0.82311  0.75341  0.12748  1.0000
  F   F144      1.0  0.80406  0.74063  0.63903  1.0000
  F   F145      1.0  0.12011  0.36319  0.11373  1.0000
  F   F146      1.0  0.12213  0.37306  0.60164  1.0000
  F   F147      1.0  0.12746  0.89217  0.08736  1.0000
  F   F148      1.0  0.12487  0.88473  0.59570  1.0000
  F   F149      1.0  0.37652  0.37004  0.10419  1.0000
  F   F150      1.0  0.37032  0.36060  0.61335  1.0000
  F   F151      1.0  0.37670  0.87123  0.10707  1.0000
  F   F152      1.0  0.37687  0.86828  0.59807  1.0000
  F   F153      1.0  0.62675  0.38785  0.08767  1.0000
  F   F154      1.0  0.62389  0.37974  0.60971  1.0000
  F   F155      1.0  0.62662  0.86694  0.11078  1.0000
  F   F156      1.0  0.62772  0.87546  0.59903  1.0000
  F   F157      1.0  0.87427  0.36215  0.11968  1.0000
  F   F158      1.0  0.88096  0.37525  0.59976  1.0000
  F   F159      1.0  0.87472  0.87418  0.11305  1.0000
  F   F160      1.0  0.87084  0.86001  0.60379  1.0000
  F   F161      1.0  0.18286  0.24967  0.36690  1.0000
  F   F162      1.0  0.18691  0.24331  0.86708  1.0000
  F   F163      1.0  0.18802  0.74525  0.35048  1.0000
  F   F164      1.0  0.18693  0.75052  0.86195  1.0000
  F   F165      1.0  0.42688  0.24483  0.37476  1.0000
  F   F166      1.0  0.43431  0.24463  0.86841  1.0000
  F   F167      1.0  0.41729  0.74783  0.38339  1.0000
  F   F168      1.0  0.43731  0.75335  0.85796  1.0000
  F   F169      1.0  0.68609  0.25202  0.35151  1.0000
  F   F170      1.0  0.68971  0.25063  0.84198  1.0000
  F   F171      1.0  0.67603  0.75520  0.38395  1.0000
  F   F172      1.0  0.69205  0.75125  0.84826  1.0000
  F   F173      1.0  0.93721  0.24714  0.34344  1.0000
  F   F174      1.0  0.94143  0.24755  0.85120  1.0000
  F   F175      1.0  0.94148  0.74320  0.34721  1.0000
  F   F176      1.0  0.93726  0.74145  0.84998  1.0000
  F   F177      1.0  0.12416  0.11168  0.39335  1.0000
  F   F178      1.0  0.12409  0.13074  0.89919  1.0000
  F   F179      1.0  0.12944  0.63549  0.37921  1.0000
  F   F180      1.0  0.12175  0.62359  0.90502  1.0000
  F   F181      1.0  0.37761  0.11421  0.40045  1.0000
  F   F182      1.0  0.37753  0.12686  0.88830  1.0000
  F   F183      1.0  0.37411  0.63423  0.38670  1.0000
  F   F184      1.0  0.37755  0.63699  0.87986  1.0000
  F   F185      1.0  0.62592  0.11736  0.39830  1.0000
  F   F186      1.0  0.62258  0.11864  0.90624  1.0000
  F   F187      1.0  0.62563  0.62320  0.40398  1.0000
  F   F188      1.0  0.62602  0.61794  0.90362  1.0000
  F   F189      1.0  0.87382  0.11875  0.40021  1.0000
  F   F190      1.0  0.87770  0.13177  0.88554  1.0000
  F   F191      1.0  0.87919  0.61470  0.38804  1.0000
  F   F192      1.0  0.87107  0.61164  0.91637  1.0000
  F   F193      1.0  0.01087  0.35561  0.07810  1.0000
  F   F194      1.0  0.00109  0.36510  0.58936  1.0000
  F   F195      1.0  0.00556  0.85481  0.09416  1.0000
  F   F196      1.0  0.00399  0.84922  0.58697  1.0000
  F   F197      1.0  0.25485  0.36247  0.07020  1.0000
  F   F198      1.0  0.25675  0.35541  0.58242  1.0000
  F   F199      1.0  0.25493  0.86731  0.08187  1.0000
  F   F200      1.0  0.26229  0.85285  0.58049  1.0000
  F   F201      1.0  0.50782  0.37130  0.07046  1.0000
  F   F202      1.0  0.50921  0.36865  0.55428  1.0000
  F   F203      1.0  0.51043  0.85953  0.05995  1.0000
  F   F204      1.0  0.50795  0.85239  0.57718  1.0000
  F   F205      1.0  0.76222  0.37681  0.06040  1.0000
  F   F206      1.0  0.75803  0.37456  0.57063  1.0000
  F   F207      1.0  0.75627  0.86714  0.07461  1.0000
  F   F208      1.0  0.75610  0.86818  0.56670  1.0000
  F   F209      1.0  0.06856  0.48172  0.17559  1.0000
  F   F210      1.0  0.06384  0.48144  0.69151  1.0000
  F   F211      1.0  0.06075  0.98266  0.20355  1.0000
  F   F212      1.0  0.06827  0.98098  0.67416  1.0000
  F   F213      1.0  0.31576  0.47991  0.18996  1.0000
  F   F214      1.0  0.31708  0.47872  0.68132  1.0000
  F   F215      1.0  0.31126  0.98587  0.19788  1.0000
  F   F216      1.0  0.31739  0.98111  0.68877  1.0000
  F   F217      1.0  0.56802  0.49663  0.17005  1.0000
  F   F218      1.0  0.56486  0.48493  0.67741  1.0000
  F   F219      1.0  0.57715  0.99087  0.15493  1.0000
  F   F220      1.0  0.57760  0.97831  0.66364  1.0000
  F   F221      1.0  0.81738  0.48135  0.17807  1.0000
  F   F222      1.0  0.81630  0.49419  0.67748  1.0000
  F   F223      1.0  0.81810  0.98773  0.18550  1.0000
  F   F224      1.0  0.81662  0.97487  0.68061  1.0000
  F   F225      1.0  0.24097  0.13914  0.43400  1.0000
  F   F226      1.0  0.24344  0.13224  0.94027  1.0000
  F   F227      1.0  0.24041  0.63103  0.42364  1.0000
  F   F228      1.0  0.24025  0.62543  0.93901  1.0000
  F   F229      1.0  0.49457  0.12691  0.42488  1.0000
  F   F230      1.0  0.48983  0.14686  0.92425  1.0000
  F   F231      1.0  0.48667  0.64534  0.43387  1.0000
  F   F232      1.0  0.49728  0.63918  0.90912  1.0000
  F   F233      1.0  0.74407  0.15009  0.42467  1.0000
  F   F234      1.0  0.74703  0.15162  0.92113  1.0000
  F   F235      1.0  0.74344  0.66100  0.40648  1.0000
  F   F236      1.0  0.73666  0.63231  0.94139  1.0000
  F   F237      1.0  0.98588  0.13210  0.43137  1.0000
  F   F238      1.0  0.99297  0.13192  0.93012  1.0000
  F   F239      1.0  0.99602  0.62753  0.42993  1.0000
  F   F240      1.0  0.99006  0.63325  0.93886  1.0000
  F   F241      1.0  0.18091  0.00380  0.33447  1.0000
  F   F242      1.0  0.17111  0.01100  0.84901  1.0000
  F   F243      1.0  0.17918  0.50476  0.33388  1.0000
  F   F244      1.0  0.17993  0.51664  0.82133  1.0000
  F   F245      1.0  0.43618  0.01606  0.31596  1.0000
  F   F246      1.0  0.43058  0.01653  0.82329  1.0000
  F   F247      1.0  0.42726  0.51295  0.33464  1.0000
  F   F248      1.0  0.43064  0.51342  0.83298  1.0000
  F   F249      1.0  0.68019  0.02132  0.31298  1.0000
  F   F250      1.0  0.68658  0.01774  0.82149  1.0000
  F   F251      1.0  0.68292  0.52005  0.31700  1.0000
  F   F252      1.0  0.68709  0.51392  0.81863  1.0000
  F   F253      1.0  0.92738  0.01785  0.32099  1.0000
  F   F254      1.0  0.93517  0.01287  0.82994  1.0000
  F   F255      1.0  0.93878  0.51422  0.31601  1.0000
  F   F256      1.0  0.93100  0.52432  0.81766  1.0000
  F   F257      1.0  0.00300  0.26313  0.98315  1.0000
  F   F258      1.0  0.00185  0.24011  0.50303  1.0000
  F   F259      1.0  0.99980  0.76240  0.99478  1.0000
  F   F260      1.0  0.00271  0.76620  0.48290  1.0000
  F   F261      1.0  0.24865  0.24585  0.01150  1.0000
  F   F262      1.0  0.24683  0.24835  0.51585  1.0000
  F   F263      1.0  0.24916  0.74516  0.99988  1.0000
  F   F264      1.0  0.24680  0.74407  0.50577  1.0000
  F   F265      1.0  0.50311  0.24936  0.00156  1.0000
  F   F266      1.0  0.49754  0.23580  0.50480  1.0000
  F   F267      1.0  0.50263  0.73910  0.00326  1.0000
  F   F268      1.0  0.50105  0.75170  0.49679  1.0000
  F   F269      1.0  0.75667  0.26690  0.98607  1.0000
  F   F270      1.0  0.75421  0.26043  0.49877  1.0000
  F   F271      1.0  0.74856  0.74821  0.99940  1.0000
  F   F272      1.0  0.75553  0.74023  0.50820  1.0000
  F   F273      1.0  0.13367  0.99808  0.23168  1.0000
  F   F274      1.0  0.12238  0.99872  0.75853  1.0000
  F   F275      1.0  0.13069  0.49739  0.23816  1.0000
  F   F276      1.0  0.12391  0.49086  0.75106  1.0000
  F   F277      1.0  0.37538  0.00924  0.25360  1.0000
  F   F278      1.0  0.37450  0.99263  0.75807  1.0000
  F   F279      1.0  0.37312  0.49496  0.25169  1.0000
  F   F280      1.0  0.38288  0.50111  0.74502  1.0000
  F   F281      1.0  0.61896  0.01185  0.25957  1.0000
  F   F282      1.0  0.62229  0.00966  0.75949  1.0000
  F   F283      1.0  0.62108  0.49678  0.26039  1.0000
  F   F284      1.0  0.61919  0.49688  0.76579  1.0000
  F   F285      1.0  0.88100  0.00478  0.23253  1.0000
  F   F286      1.0  0.87524  0.00307  0.74285  1.0000
  F   F287      1.0  0.86936  0.49155  0.26021  1.0000
  F   F288      1.0  0.86950  0.49859  0.76729  1.0000
  F   F289      1.0  0.04908  0.02720  0.00906  1.0000
  F   F290      1.0  0.03375  0.02458  0.53518  1.0000
  F   F291      1.0  0.04143  0.51733  0.02808  1.0000
  F   F292      1.0  0.05240  0.52082  0.51876  1.0000
  F   F293      1.0  0.30051  0.02057  0.01343  1.0000
  F   F294      1.0  0.29340  0.02749  0.52875  1.0000
  F   F295      1.0  0.29622  0.53212  0.01927  1.0000
  F   F296      1.0  0.29273  0.53167  0.53006  1.0000
  F   F297      1.0  0.53675  0.04562  0.02458  1.0000
  F   F298      1.0  0.54408  0.03215  0.52239  1.0000
  F   F299      1.0  0.53561  0.53506  0.02841  1.0000
  F   F300      1.0  0.55052  0.52495  0.50858  1.0000
  F   F301      1.0  0.79624  0.03866  0.02734  1.0000
  F   F302      1.0  0.78701  0.02999  0.53132  1.0000
  F   F303      1.0  0.78626  0.53584  0.04062  1.0000
  F   F304      1.0  0.79067  0.53533  0.51892  1.0000
  F   F305      1.0  0.23475  0.41581  0.21749  1.0000
  F   F306      1.0  0.23410  0.41544  0.72925  1.0000
  F   F307      1.0  0.23500  0.91614  0.22620  1.0000
  F   F308      1.0  0.23043  0.92445  0.73308  1.0000
  F   F309      1.0  0.48622  0.41131  0.22590  1.0000
  F   F310      1.0  0.47889  0.41724  0.72452  1.0000
  F   F311      1.0  0.48704  0.90444  0.23235  1.0000
  F   F312      1.0  0.49531  0.91643  0.72170  1.0000
  F   F313      1.0  0.73737  0.39806  0.23467  1.0000
  F   F314      1.0  0.74369  0.40208  0.72682  1.0000
  F   F315      1.0  0.73760  0.91817  0.22365  1.0000
  F   F316      1.0  0.72927  0.91515  0.72553  1.0000
  F   F317      1.0  0.98700  0.41572  0.22407  1.0000
  F   F318      1.0  0.97929  0.42454  0.72589  1.0000
  F   F319      1.0  0.98125  0.93023  0.22321  1.0000
  F   F320      1.0  0.97606  0.90977  0.73041  1.0000
  F   F321      1.0  0.19710  0.47328  0.50024  1.0000
  F   F322      1.0  0.19755  0.47130  0.97455  1.0000
  F   F323      1.0  0.20814  0.96820  0.47942  1.0000
  F   F324      1.0  0.21173  0.96645  0.97459  1.0000
  F   F325      1.0  0.45290  0.47610  0.48419  1.0000
  F   F326      1.0  0.45665  0.47537  0.98492  1.0000
  F   F327      1.0  0.45914  0.96662  0.47131  1.0000
  F   F328      1.0  0.45850  0.97162  0.97381  1.0000
  F   F329      1.0  0.71101  0.47732  0.46646  1.0000
  F   F330      1.0  0.70335  0.47130  0.99048  1.0000
  F   F331      1.0  0.70807  0.98772  0.48271  1.0000
  F   F332      1.0  0.70546  0.97960  0.97175  1.0000
  F   F333      1.0  0.96046  0.46231  0.48839  1.0000
  F   F334      1.0  0.97232  0.47057  0.95492  1.0000
  F   F335      1.0  0.95334  0.96055  0.48552  1.0000
  F   F336      1.0  0.96441  0.96142  0.98125  1.0000
  F   F337      1.0  0.01293  0.09995  0.27660  1.0000
  F   F338      1.0  0.02106  0.08460  0.77142  1.0000
  F   F339      1.0  0.01250  0.59849  0.26969  1.0000
  F   F340      1.0  0.01082  0.61883  0.76014  1.0000
  F   F341      1.0  0.26022  0.08876  0.28363  1.0000
  F   F342      1.0  0.26367  0.09852  0.77304  1.0000
  F   F343      1.0  0.26409  0.58360  0.27203  1.0000
  F   F344      1.0  0.26658  0.58274  0.76702  1.0000
  F   F345      1.0  0.51832  0.07776  0.26005  1.0000
  F   F346      1.0  0.51567  0.08380  0.76857  1.0000
  F   F347      1.0  0.51767  0.59312  0.27630  1.0000
  F   F348      1.0  0.51866  0.58510  0.77026  1.0000
  F   F349      1.0  0.75933  0.08640  0.26999  1.0000
  F   F350      1.0  0.76707  0.08423  0.77406  1.0000
  F   F351      1.0  0.76523  0.58405  0.27171  1.0000
  F   F352      1.0  0.76598  0.57533  0.78283  1.0000
  F   F353      1.0  0.10328  0.40299  0.44648  1.0000
  F   F354      1.0  0.10441  0.41149  0.96049  1.0000
  F   F355      1.0  0.10358  0.90608  0.44825  1.0000
  F   F356      1.0  0.09654  0.89470  0.96446  1.0000
  F   F357      1.0  0.35270  0.39395  0.46040  1.0000
  F   F358      1.0  0.34890  0.41064  0.95949  1.0000
  F   F359      1.0  0.35051  0.91424  0.45430  1.0000
  F   F360      1.0  0.35240  0.87894  0.97437  1.0000
  F   F361      1.0  0.60743  0.41127  0.45717  1.0000
  F   F362      1.0  0.59662  0.41375  0.95605  1.0000
  F   F363      1.0  0.60513  0.91092  0.45576  1.0000
  F   F364      1.0  0.59372  0.92040  0.96026  1.0000
  F   F365      1.0  0.85890  0.42176  0.45330  1.0000
  F   F366      1.0  0.85696  0.41518  0.97151  1.0000
  F   F367      1.0  0.84881  0.91259  0.45166  1.0000
  F   F368      1.0  0.84589  0.90714  0.96997  1.0000
  F   F369      1.0  0.04141  0.28169  0.29000  1.0000
  F   F370      1.0  0.04094  0.30936  0.78621  1.0000
  F   F371      1.0  0.05345  0.79624  0.27863  1.0000
  F   F372      1.0  0.03975  0.80007  0.78865  1.0000
  F   F373      1.0  0.29263  0.29036  0.28553  1.0000
  F   F374      1.0  0.29614  0.29362  0.79522  1.0000
  F   F375      1.0  0.29609  0.79682  0.28619  1.0000
  F   F376      1.0  0.29679  0.80942  0.77766  1.0000
  F   F377      1.0  0.54922  0.29569  0.29274  1.0000
  F   F378      1.0  0.54104  0.30753  0.78763  1.0000
  F   F379      1.0  0.54911  0.80314  0.28172  1.0000
  F   F380      1.0  0.55486  0.79982  0.77984  1.0000
  F   F381      1.0  0.80186  0.29408  0.29230  1.0000
  F   F382      1.0  0.80716  0.30098  0.78231  1.0000
  F   F383      1.0  0.79658  0.80228  0.27708  1.0000
  F   F384      1.0  0.79415  0.78783  0.79429  1.0000
