data_image0
_chemical_formula_structural       Hf96F384
_chemical_formula_sum              "Hf96 F384"
_cell_length_a       31.0442
_cell_length_b       15.5209
_cell_length_c       15.5105
_cell_angle_alpha    63.342
_cell_angle_beta     63.342
_cell_angle_gamma    80.1625

_space_group_name_H-M_alt    "P 1"
_space_group_IT_number       1

loop_
  _space_group_symop_operation_xyz
  'x, y, z'

loop_
  _atom_site_type_symbol
  _atom_site_label
  _atom_site_symmetry_multiplicity
  _atom_site_fract_x
  _atom_site_fract_y
  _atom_site_fract_z
  _atom_site_occupancy
  Hf  Hf1       1.0  0.19440  0.09928  0.38305  1.0000
  Hf  Hf2       1.0  0.19556  0.10118  0.87910  1.0000
  Hf  Hf3       1.0  0.19516  0.60656  0.36889  1.0000
  Hf  Hf4       1.0  0.19438  0.60491  0.87733  1.0000
  Hf  Hf5       1.0  0.44843  0.11357  0.36795  1.0000
  Hf  Hf6       1.0  0.44643  0.10035  0.88189  1.0000
  Hf  Hf7       1.0  0.44722  0.60410  0.37899  1.0000
  Hf  Hf8       1.0  0.44471  0.60551  0.87175  1.0000
  Hf  Hf9       1.0  0.69876  0.10514  0.37303  1.0000
  Hf  Hf10      1.0  0.69926  0.11082  0.86996  1.0000
  Hf  Hf11      1.0  0.69761  0.60842  0.36492  1.0000
  Hf  Hf12      1.0  0.69719  0.60694  0.87436  1.0000
  Hf  Hf13      1.0  0.94679  0.11443  0.37600  1.0000
  Hf  Hf14      1.0  0.94309  0.10944  0.88594  1.0000
  Hf  Hf15      1.0  0.94828  0.60999  0.37935  1.0000
  Hf  Hf16      1.0  0.95055  0.61244  0.86378  1.0000
  Hf  Hf17      1.0  0.05270  0.38650  0.13544  1.0000
  Hf  Hf18      1.0  0.05303  0.39108  0.62499  1.0000
  Hf  Hf19      1.0  0.05258  0.89581  0.11993  1.0000
  Hf  Hf20      1.0  0.05415  0.88855  0.61796  1.0000
  Hf  Hf21      1.0  0.30284  0.39194  0.12094  1.0000
  Hf  Hf22      1.0  0.30697  0.40060  0.61993  1.0000
  Hf  Hf23      1.0  0.30383  0.89246  0.12852  1.0000
  Hf  Hf24      1.0  0.30021  0.88168  0.62887  1.0000
  Hf  Hf25      1.0  0.55195  0.40428  0.11997  1.0000
  Hf  Hf26      1.0  0.55682  0.38557  0.62810  1.0000
  Hf  Hf27      1.0  0.55222  0.89513  0.13114  1.0000
  Hf  Hf28      1.0  0.55449  0.89651  0.62502  1.0000
  Hf  Hf29      1.0  0.80431  0.39997  0.12845  1.0000
  Hf  Hf30      1.0  0.80689  0.39408  0.60835  1.0000
  Hf  Hf31      1.0  0.80426  0.89488  0.11845  1.0000
  Hf  Hf32      1.0  0.79894  0.89689  0.63080  1.0000
  Hf  Hf33      1.0  0.05631  0.18245  0.41647  1.0000
  Hf  Hf34      1.0  0.05431  0.18575  0.91857  1.0000
  Hf  Hf35      1.0  0.05789  0.69220  0.40799  1.0000
  Hf  Hf36      1.0  0.05697  0.69356  0.91392  1.0000
  Hf  Hf37      1.0  0.30734  0.18821  0.41531  1.0000
  Hf  Hf38      1.0  0.30768  0.17004  0.91734  1.0000
  Hf  Hf39      1.0  0.30617  0.67689  0.41547  1.0000
  Hf  Hf40      1.0  0.30237  0.68101  0.92102  1.0000
  Hf  Hf41      1.0  0.55707  0.18863  0.41206  1.0000
  Hf  Hf42      1.0  0.55619  0.19088  0.92025  1.0000
  Hf  Hf43      1.0  0.55334  0.68358  0.42466  1.0000
  Hf  Hf44      1.0  0.55242  0.67514  0.92143  1.0000
  Hf  Hf45      1.0  0.80871  0.18273  0.41753  1.0000
  Hf  Hf46      1.0  0.80437  0.18051  0.91708  1.0000
  Hf  Hf47      1.0  0.80613  0.68498  0.40705  1.0000
  Hf  Hf48      1.0  0.80543  0.67567  0.91711  1.0000
  Hf  Hf49      1.0  0.15633  0.37585  0.34603  1.0000
  Hf  Hf50      1.0  0.16295  0.38432  0.83243  1.0000
  Hf  Hf51      1.0  0.16050  0.88808  0.33226  1.0000
  Hf  Hf52      1.0  0.16080  0.89181  0.83069  1.0000
  Hf  Hf53      1.0  0.41124  0.39140  0.33542  1.0000
  Hf  Hf54      1.0  0.40929  0.38022  0.83859  1.0000
  Hf  Hf55      1.0  0.40823  0.88247  0.33689  1.0000
  Hf  Hf56      1.0  0.40757  0.88866  0.83538  1.0000
  Hf  Hf57      1.0  0.65798  0.38816  0.33084  1.0000
  Hf  Hf58      1.0  0.66016  0.38942  0.82629  1.0000
  Hf  Hf59      1.0  0.66022  0.88676  0.33660  1.0000
  Hf  Hf60      1.0  0.65425  0.88058  0.84653  1.0000
  Hf  Hf61      1.0  0.91189  0.38996  0.33481  1.0000
  Hf  Hf62      1.0  0.90924  0.38875  0.83476  1.0000
  Hf  Hf63      1.0  0.91062  0.89463  0.33287  1.0000
  Hf  Hf64      1.0  0.90512  0.89080  0.83273  1.0000
  Hf  Hf65      1.0  0.19531  0.32459  0.07681  1.0000
  Hf  Hf66      1.0  0.19097  0.31725  0.58884  1.0000
  Hf  Hf67      1.0  0.19034  0.81432  0.09465  1.0000
  Hf  Hf68      1.0  0.19200  0.81467  0.58734  1.0000
  Hf  Hf69      1.0  0.44721  0.32465  0.07815  1.0000
  Hf  Hf70      1.0  0.44628  0.31069  0.58259  1.0000
  Hf  Hf71      1.0  0.43863  0.80836  0.09695  1.0000
  Hf  Hf72      1.0  0.44542  0.83122  0.57806  1.0000
  Hf  Hf73      1.0  0.68953  0.31703  0.08398  1.0000
  Hf  Hf74      1.0  0.69851  0.31876  0.57410  1.0000
  Hf  Hf75      1.0  0.69588  0.82207  0.08373  1.0000
  Hf  Hf76      1.0  0.69193  0.81414  0.58693  1.0000
  Hf  Hf77      1.0  0.94780  0.32736  0.07848  1.0000
  Hf  Hf78      1.0  0.94198  0.31479  0.59096  1.0000
  Hf  Hf79      1.0  0.94016  0.81393  0.09037  1.0000
  Hf  Hf80      1.0  0.94209  0.82166  0.58234  1.0000
  Hf  Hf81      1.0  0.08983  0.11362  0.16656  1.0000
  Hf  Hf82      1.0  0.09080  0.10886  0.66511  1.0000
  Hf  Hf83      1.0  0.09168  0.61635  0.16147  1.0000
  Hf  Hf84      1.0  0.09580  0.60840  0.67015  1.0000
  Hf  Hf85      1.0  0.34270  0.10907  0.17060  1.0000
  Hf  Hf86      1.0  0.34199  0.11412  0.65790  1.0000
  Hf  Hf87      1.0  0.34108  0.61322  0.15892  1.0000
  Hf  Hf88      1.0  0.34369  0.61444  0.66501  1.0000
  Hf  Hf89      1.0  0.59453  0.11361  0.17016  1.0000
  Hf  Hf90      1.0  0.59286  0.10759  0.66970  1.0000
  Hf  Hf91      1.0  0.59437  0.61826  0.15947  1.0000
  Hf  Hf92      1.0  0.58892  0.61210  0.66839  1.0000
  Hf  Hf93      1.0  0.84507  0.12155  0.15820  1.0000
  Hf  Hf94      1.0  0.84154  0.11098  0.66884  1.0000
  Hf  Hf95      1.0  0.84200  0.61224  0.16113  1.0000
  Hf  Hf96      1.0  0.84097  0.61411  0.66140  1.0000
  F   F1        1.0  0.07951  0.12200  0.31127  1.0000
  F   F2        1.0  0.07501  0.11112  0.81971  1.0000
  F   F3        1.0  0.08308  0.63744  0.29766  1.0000
  F   F4        1.0  0.08774  0.64931  0.78801  1.0000
  F   F5        1.0  0.33602  0.12449  0.29471  1.0000
  F   F6        1.0  0.32931  0.12973  0.79045  1.0000
  F   F7        1.0  0.32917  0.61732  0.31576  1.0000
  F   F8        1.0  0.33321  0.62544  0.80868  1.0000
  F   F9        1.0  0.58129  0.13265  0.30411  1.0000
  F   F10       1.0  0.58001  0.11941  0.80750  1.0000
  F   F11       1.0  0.57871  0.65020  0.30071  1.0000
  F   F12       1.0  0.56896  0.60772  0.81223  1.0000
  F   F13       1.0  0.82828  0.12701  0.30564  1.0000
  F   F14       1.0  0.82714  0.10954  0.82286  1.0000
  F   F15       1.0  0.83154  0.62800  0.29279  1.0000
  F   F16       1.0  0.83670  0.64834  0.78365  1.0000
  F   F17       1.0  0.18125  0.32332  0.45518  1.0000
  F   F18       1.0  0.19503  0.35217  0.92801  1.0000
  F   F19       1.0  0.18822  0.85638  0.44111  1.0000
  F   F20       1.0  0.19053  0.83543  0.94628  1.0000
  F   F21       1.0  0.43891  0.35152  0.44371  1.0000
  F   F22       1.0  0.44102  0.34659  0.94001  1.0000
  F   F23       1.0  0.43193  0.83405  0.45701  1.0000
  F   F24       1.0  0.43076  0.83785  0.95283  1.0000
  F   F25       1.0  0.69321  0.35167  0.43225  1.0000
  F   F26       1.0  0.67644  0.33142  0.95658  1.0000
  F   F27       1.0  0.68507  0.83683  0.45363  1.0000
  F   F28       1.0  0.68333  0.83363  0.95233  1.0000
  F   F29       1.0  0.93514  0.33324  0.45391  1.0000
  F   F30       1.0  0.93318  0.35315  0.94659  1.0000
  F   F31       1.0  0.93887  0.85475  0.44854  1.0000
  F   F32       1.0  0.93707  0.84219  0.94938  1.0000
  F   F33       1.0  0.17363  0.38659  0.18142  1.0000
  F   F34       1.0  0.16883  0.37476  0.70078  1.0000
  F   F35       1.0  0.17230  0.88455  0.19033  1.0000
  F   F36       1.0  0.16063  0.84624  0.70955  1.0000
  F   F37       1.0  0.42181  0.37665  0.19303  1.0000
  F   F38       1.0  0.42093  0.35549  0.70190  1.0000
  F   F39       1.0  0.41825  0.86963  0.20031  1.0000
  F   F40       1.0  0.41797  0.86897  0.70284  1.0000
  F   F41       1.0  0.66829  0.38687  0.19232  1.0000
  F   F42       1.0  0.66781  0.36634  0.69025  1.0000
  F   F43       1.0  0.67061  0.88100  0.18865  1.0000
  F   F44       1.0  0.66798  0.85157  0.71005  1.0000
  F   F45       1.0  0.92863  0.38071  0.19142  1.0000
  F   F46       1.0  0.92341  0.38467  0.68430  1.0000
  F   F47       1.0  0.92060  0.87951  0.20823  1.0000
  F   F48       1.0  0.92200  0.86286  0.70008  1.0000
  F   F49       1.0  0.05898  0.14715  0.06009  1.0000
  F   F50       1.0  0.05890  0.14746  0.55798  1.0000
  F   F51       1.0  0.05509  0.64261  0.07050  1.0000
  F   F52       1.0  0.07328  0.66806  0.54521  1.0000
  F   F53       1.0  0.32145  0.15338  0.04666  1.0000
  F   F54       1.0  0.31112  0.15020  0.55231  1.0000
  F   F55       1.0  0.31517  0.65774  0.05186  1.0000
  F   F56       1.0  0.31403  0.64517  0.55457  1.0000
  F   F57       1.0  0.56816  0.15895  0.05124  1.0000
  F   F58       1.0  0.56484  0.16695  0.55356  1.0000
  F   F59       1.0  0.56901  0.66135  0.04614  1.0000
  F   F60       1.0  0.55261  0.66620  0.56374  1.0000
  F   F61       1.0  0.82044  0.17609  0.04297  1.0000
  F   F62       1.0  0.80802  0.14493  0.55916  1.0000
  F   F63       1.0  0.81646  0.64598  0.04658  1.0000
  F   F64       1.0  0.82022  0.66448  0.53991  1.0000
  F   F65       1.0  0.19595  0.19642  0.20932  1.0000
  F   F66       1.0  0.19440  0.19714  0.71327  1.0000
  F   F67       1.0  0.20014  0.69639  0.21338  1.0000
  F   F68       1.0  0.20155  0.69819  0.71508  1.0000
  F   F69       1.0  0.45530  0.20656  0.20770  1.0000
  F   F70       1.0  0.45450  0.19667  0.71865  1.0000
  F   F71       1.0  0.44656  0.69189  0.21322  1.0000
  F   F72       1.0  0.44762  0.71218  0.70832  1.0000
  F   F73       1.0  0.69870  0.20899  0.21056  1.0000
  F   F74       1.0  0.71230  0.20771  0.69443  1.0000
  F   F75       1.0  0.70135  0.70849  0.21049  1.0000
  F   F76       1.0  0.70536  0.68410  0.71723  1.0000
  F   F77       1.0  0.95210  0.20535  0.20271  1.0000
  F   F78       1.0  0.95529  0.20931  0.72441  1.0000
  F   F79       1.0  0.95336  0.70463  0.22555  1.0000
  F   F80       1.0  0.95700  0.70335  0.70586  1.0000
  F   F81       1.0  0.14732  0.09988  0.03001  1.0000
  F   F82       1.0  0.15019  0.10000  0.52479  1.0000
  F   F83       1.0  0.14625  0.59310  0.03715  1.0000
  F   F84       1.0  0.14538  0.57861  0.54975  1.0000
  F   F85       1.0  0.39847  0.08654  0.05456  1.0000
  F   F86       1.0  0.40033  0.10646  0.53062  1.0000
  F   F87       1.0  0.39850  0.57205  0.04673  1.0000
  F   F88       1.0  0.39679  0.60385  0.53113  1.0000
  F   F89       1.0  0.64871  0.09581  0.02389  1.0000
  F   F90       1.0  0.64748  0.08341  0.53835  1.0000
  F   F91       1.0  0.64797  0.59631  0.03481  1.0000
  F   F92       1.0  0.64318  0.60765  0.54706  1.0000
  F   F93       1.0  0.90537  0.10355  0.03543  1.0000
  F   F94       1.0  0.89560  0.12056  0.52508  1.0000
  F   F95       1.0  0.90197  0.60577  0.02118  1.0000
  F   F96       1.0  0.89930  0.58061  0.54585  1.0000
  F   F97       1.0  0.14056  0.20707  0.12598  1.0000
  F   F98       1.0  0.14747  0.18831  0.62488  1.0000
  F   F99       1.0  0.15299  0.69056  0.13132  1.0000
  F   F100      1.0  0.15637  0.68536  0.62321  1.0000
  F   F101      1.0  0.40152  0.20828  0.11666  1.0000
  F   F102      1.0  0.41270  0.18766  0.62390  1.0000
  F   F103      1.0  0.40497  0.68523  0.13036  1.0000
  F   F104      1.0  0.39984  0.68389  0.63345  1.0000
  F   F105      1.0  0.65642  0.18456  0.13069  1.0000
  F   F106      1.0  0.65005  0.19726  0.61250  1.0000
  F   F107      1.0  0.65287  0.69266  0.12339  1.0000
  F   F108      1.0  0.64416  0.69669  0.64747  1.0000
  F   F109      1.0  0.89604  0.20315  0.12379  1.0000
  F   F110      1.0  0.89878  0.19782  0.64434  1.0000
  F   F111      1.0  0.90243  0.69440  0.11956  1.0000
  F   F112      1.0  0.90297  0.69903  0.61002  1.0000
  F   F113      1.0  0.09946  0.28801  0.38758  1.0000
  F   F114      1.0  0.09613  0.30486  0.86899  1.0000
  F   F115      1.0  0.09545  0.81314  0.35784  1.0000
  F   F116      1.0  0.10001  0.79885  0.89095  1.0000
  F   F117      1.0  0.34420  0.30607  0.38230  1.0000
  F   F118      1.0  0.34473  0.29131  0.86569  1.0000
  F   F119      1.0  0.34621  0.79369  0.38762  1.0000
  F   F120      1.0  0.34529  0.80510  0.89029  1.0000
  F   F121      1.0  0.59823  0.30832  0.37505  1.0000
  F   F122      1.0  0.59536  0.31019  0.89147  1.0000
  F   F123      1.0  0.59809  0.80282  0.37088  1.0000
  F   F124      1.0  0.59629  0.80142  0.87570  1.0000
  F   F125      1.0  0.85812  0.29128  0.39550  1.0000
  F   F126      1.0  0.85310  0.30000  0.86423  1.0000
  F   F127      1.0  0.84336  0.79740  0.36311  1.0000
  F   F128      1.0  0.84736  0.80728  0.87645  1.0000
  F   F129      1.0  0.05147  0.23881  0.16589  1.0000
  F   F130      1.0  0.06411  0.24301  0.64405  1.0000
  F   F131      1.0  0.06440  0.75903  0.12366  1.0000
  F   F132      1.0  0.05641  0.75195  0.64629  1.0000
  F   F133      1.0  0.30892  0.24762  0.13633  1.0000
  F   F134      1.0  0.33222  0.25457  0.60372  1.0000
  F   F135      1.0  0.31710  0.74414  0.14117  1.0000
  F   F136      1.0  0.30787  0.74445  0.64596  1.0000
  F   F137      1.0  0.57126  0.25042  0.13380  1.0000
  F   F138      1.0  0.56048  0.24682  0.65248  1.0000
  F   F139      1.0  0.56291  0.74305  0.15343  1.0000
  F   F140      1.0  0.56676  0.75575  0.63480  1.0000
  F   F141      1.0  0.81114  0.25148  0.15901  1.0000
  F   F142      1.0  0.82471  0.25236  0.61319  1.0000
  F   F143      1.0  0.81514  0.74520  0.13019  1.0000
  F   F144      1.0  0.81186  0.75883  0.63615  1.0000
  F   F145      1.0  0.12373  0.37203  0.10884  1.0000
  F   F146      1.0  0.12320  0.36386  0.61382  1.0000
  F   F147      1.0  0.12276  0.86215  0.11178  1.0000
  F   F148      1.0  0.12052  0.85911  0.60726  1.0000
  F   F149      1.0  0.37406  0.37797  0.09887  1.0000
  F   F150      1.0  0.37643  0.35353  0.61453  1.0000
  F   F151      1.0  0.36934  0.86120  0.12378  1.0000
  F   F152      1.0  0.36960  0.83916  0.63600  1.0000
  F   F153      1.0  0.62177  0.37746  0.11467  1.0000
  F   F154      1.0  0.62696  0.37009  0.60485  1.0000
  F   F155      1.0  0.62446  0.86426  0.11627  1.0000
  F   F156      1.0  0.62624  0.88984  0.60310  1.0000
  F   F157      1.0  0.87604  0.38498  0.10014  1.0000
  F   F158      1.0  0.87222  0.35788  0.61572  1.0000
  F   F159      1.0  0.87369  0.86692  0.11639  1.0000
  F   F160      1.0  0.86402  0.86636  0.62651  1.0000
  F   F161      1.0  0.18828  0.24819  0.35042  1.0000
  F   F162      1.0  0.19366  0.24842  0.84990  1.0000
  F   F163      1.0  0.17868  0.74896  0.36027  1.0000
  F   F164      1.0  0.18253  0.75852  0.84581  1.0000
  F   F165      1.0  0.43688  0.26047  0.34699  1.0000
  F   F166      1.0  0.42913  0.23716  0.87245  1.0000
  F   F167      1.0  0.44197  0.75585  0.34815  1.0000
  F   F168      1.0  0.42968  0.74170  0.87213  1.0000
  F   F169      1.0  0.69032  0.25181  0.34599  1.0000
  F   F170      1.0  0.68759  0.24145  0.86519  1.0000
  F   F171      1.0  0.68482  0.74877  0.35068  1.0000
  F   F172      1.0  0.68252  0.74516  0.87279  1.0000
  F   F173      1.0  0.94929  0.26517  0.33343  1.0000
  F   F174      1.0  0.93568  0.24996  0.86212  1.0000
  F   F175      1.0  0.92631  0.74521  0.38410  1.0000
  F   F176      1.0  0.94043  0.75892  0.84175  1.0000
  F   F177      1.0  0.12572  0.11466  0.39719  1.0000
  F   F178      1.0  0.12451  0.13877  0.88881  1.0000
  F   F179      1.0  0.12530  0.62761  0.39561  1.0000
  F   F180      1.0  0.12181  0.63060  0.90452  1.0000
  F   F181      1.0  0.37424  0.12040  0.39593  1.0000
  F   F182      1.0  0.37307  0.10071  0.91201  1.0000
  F   F183      1.0  0.37412  0.61925  0.40003  1.0000
  F   F184      1.0  0.37267  0.60444  0.91465  1.0000
  F   F185      1.0  0.62727  0.13376  0.38838  1.0000
  F   F186      1.0  0.62952  0.16100  0.86917  1.0000
  F   F187      1.0  0.62404  0.63464  0.40553  1.0000
  F   F188      1.0  0.62114  0.63664  0.88400  1.0000
  F   F189      1.0  0.87935  0.13615  0.38217  1.0000
  F   F190      1.0  0.87718  0.11570  0.89878  1.0000
  F   F191      1.0  0.87602  0.61338  0.39708  1.0000
  F   F192      1.0  0.87702  0.64181  0.87699  1.0000
  F   F193      1.0  0.01331  0.36318  0.06945  1.0000
  F   F194      1.0  0.00699  0.36875  0.56822  1.0000
  F   F195      1.0  0.00405  0.85797  0.07258  1.0000
  F   F196      1.0  0.00841  0.87207  0.54572  1.0000
  F   F197      1.0  0.25800  0.36126  0.06117  1.0000
  F   F198      1.0  0.26080  0.34819  0.58873  1.0000
  F   F199      1.0  0.25715  0.85214  0.08538  1.0000
  F   F200      1.0  0.25383  0.86294  0.57391  1.0000
  F   F201      1.0  0.50822  0.36244  0.07076  1.0000
  F   F202      1.0  0.51018  0.35572  0.57075  1.0000
  F   F203      1.0  0.50256  0.85432  0.09507  1.0000
  F   F204      1.0  0.51034  0.87378  0.55902  1.0000
  F   F205      1.0  0.75100  0.35270  0.08554  1.0000
  F   F206      1.0  0.75895  0.36077  0.56197  1.0000
  F   F207      1.0  0.75886  0.86733  0.06358  1.0000
  F   F208      1.0  0.75442  0.86935  0.57829  1.0000
  F   F209      1.0  0.06919  0.48238  0.17759  1.0000
  F   F210      1.0  0.07318  0.48722  0.66706  1.0000
  F   F211      1.0  0.07085  0.98333  0.16888  1.0000
  F   F212      1.0  0.07563  0.97971  0.66575  1.0000
  F   F213      1.0  0.31840  0.48361  0.16515  1.0000
  F   F214      1.0  0.31686  0.47367  0.68192  1.0000
  F   F215      1.0  0.32201  0.97910  0.17202  1.0000
  F   F216      1.0  0.32063  0.98184  0.66717  1.0000
  F   F217      1.0  0.56729  0.48708  0.17616  1.0000
  F   F218      1.0  0.56908  0.48629  0.66732  1.0000
  F   F219      1.0  0.57092  0.99380  0.17066  1.0000
  F   F220      1.0  0.56712  0.97393  0.69630  1.0000
  F   F221      1.0  0.81814  0.47962  0.19023  1.0000
  F   F222      1.0  0.82203  0.48026  0.66881  1.0000
  F   F223      1.0  0.82674  0.99751  0.14967  1.0000
  F   F224      1.0  0.82622  0.99020  0.66445  1.0000
  F   F225      1.0  0.24538  0.13955  0.42290  1.0000
  F   F226      1.0  0.23826  0.12451  0.93684  1.0000
  F   F227      1.0  0.23661  0.63582  0.41749  1.0000
  F   F228      1.0  0.23815  0.64810  0.91984  1.0000
  F   F229      1.0  0.49565  0.13557  0.42976  1.0000
  F   F230      1.0  0.48627  0.13906  0.93458  1.0000
  F   F231      1.0  0.48964  0.63174  0.44458  1.0000
  F   F232      1.0  0.48639  0.63519  0.93362  1.0000
  F   F233      1.0  0.74416  0.13667  0.41573  1.0000
  F   F234      1.0  0.74336  0.12489  0.93646  1.0000
  F   F235      1.0  0.74187  0.64401  0.41438  1.0000
  F   F236      1.0  0.74115  0.61769  0.94251  1.0000
  F   F237      1.0  0.98929  0.13410  0.43862  1.0000
  F   F238      1.0  0.99292  0.14041  0.92764  1.0000
  F   F239      1.0  0.99438  0.62260  0.44327  1.0000
  F   F240      1.0  0.99796  0.64530  0.91437  1.0000
  F   F241      1.0  0.17830  0.01318  0.32743  1.0000
  F   F242      1.0  0.17926  0.01514  0.82998  1.0000
  F   F243      1.0  0.17958  0.51412  0.32145  1.0000
  F   F244      1.0  0.17559  0.52099  0.82631  1.0000
  F   F245      1.0  0.42976  0.00833  0.33255  1.0000
  F   F246      1.0  0.43992  0.01012  0.82237  1.0000
  F   F247      1.0  0.43591  0.51571  0.31668  1.0000
  F   F248      1.0  0.43250  0.51237  0.81734  1.0000
  F   F249      1.0  0.68399  0.01720  0.31808  1.0000
  F   F250      1.0  0.67819  0.01790  0.83443  1.0000
  F   F251      1.0  0.67880  0.52587  0.31254  1.0000
  F   F252      1.0  0.68600  0.51007  0.81472  1.0000
  F   F253      1.0  0.93626  0.01678  0.31148  1.0000
  F   F254      1.0  0.93424  0.00690  0.81933  1.0000
  F   F255      1.0  0.93271  0.51966  0.31510  1.0000
  F   F256      1.0  0.93269  0.52707  0.80868  1.0000
  F   F257      1.0  0.99883  0.25824  0.99978  1.0000
  F   F258      1.0  0.00043  0.24233  0.50815  1.0000
  F   F259      1.0  0.99937  0.74848  0.00814  1.0000
  F   F260      1.0  0.00012  0.73582  0.50564  1.0000
  F   F261      1.0  0.24832  0.23671  0.00327  1.0000
  F   F262      1.0  0.25066  0.26581  0.49379  1.0000
  F   F263      1.0  0.25183  0.75574  0.99588  1.0000
  F   F264      1.0  0.24956  0.75083  0.49488  1.0000
  F   F265      1.0  0.50388  0.25407  0.00181  1.0000
  F   F266      1.0  0.50710  0.25759  0.48472  1.0000
  F   F267      1.0  0.50507  0.76147  0.98618  1.0000
  F   F268      1.0  0.49651  0.77036  0.48708  1.0000
  F   F269      1.0  0.75199  0.25101  0.00387  1.0000
  F   F270      1.0  0.75009  0.24885  0.49685  1.0000
  F   F271      1.0  0.75199  0.74233  0.00084  1.0000
  F   F272      1.0  0.74465  0.73183  0.51151  1.0000
  F   F273      1.0  0.13074  0.00492  0.23585  1.0000
  F   F274      1.0  0.13451  0.00392  0.73009  1.0000
  F   F275      1.0  0.11825  0.49079  0.25158  1.0000
  F   F276      1.0  0.11394  0.49303  0.77612  1.0000
  F   F277      1.0  0.36951  0.98152  0.26414  1.0000
  F   F278      1.0  0.37740  0.00378  0.74953  1.0000
  F   F279      1.0  0.37345  0.50269  0.25419  1.0000
  F   F280      1.0  0.37866  0.49054  0.74097  1.0000
  F   F281      1.0  0.62889  0.99075  0.25541  1.0000
  F   F282      1.0  0.63186  0.99899  0.74913  1.0000
  F   F283      1.0  0.61241  0.50183  0.26986  1.0000
  F   F284      1.0  0.62811  0.49592  0.73350  1.0000
  F   F285      1.0  0.87144  0.99971  0.25106  1.0000
  F   F286      1.0  0.88444  0.01002  0.73213  1.0000
  F   F287      1.0  0.87373  0.48829  0.25085  1.0000
  F   F288      1.0  0.86326  0.48882  0.76248  1.0000
  F   F289      1.0  0.03747  0.03176  0.03070  1.0000
  F   F290      1.0  0.04398  0.02602  0.51972  1.0000
  F   F291      1.0  0.04800  0.52462  0.02049  1.0000
  F   F292      1.0  0.05457  0.52823  0.51327  1.0000
  F   F293      1.0  0.28674  0.02630  0.03506  1.0000
  F   F294      1.0  0.29278  0.01845  0.51414  1.0000
  F   F295      1.0  0.28121  0.54068  0.02838  1.0000
  F   F296      1.0  0.28751  0.52812  0.52650  1.0000
  F   F297      1.0  0.53500  0.04342  0.02817  1.0000
  F   F298      1.0  0.54850  0.03365  0.52420  1.0000
  F   F299      1.0  0.54293  0.53364  0.02600  1.0000
  F   F300      1.0  0.54528  0.52340  0.51497  1.0000
  F   F301      1.0  0.78744  0.04200  0.02979  1.0000
  F   F302      1.0  0.80315  0.01995  0.50241  1.0000
  F   F303      1.0  0.79701  0.52847  0.00837  1.0000
  F   F304      1.0  0.78965  0.53489  0.52329  1.0000
  F   F305      1.0  0.23653  0.40718  0.23002  1.0000
  F   F306      1.0  0.23267  0.43983  0.71686  1.0000
  F   F307      1.0  0.23482  0.91071  0.22731  1.0000
  F   F308      1.0  0.23371  0.91096  0.72692  1.0000
  F   F309      1.0  0.48169  0.43357  0.21419  1.0000
  F   F310      1.0  0.48540  0.40430  0.73418  1.0000
  F   F311      1.0  0.48674  0.92632  0.22889  1.0000
  F   F312      1.0  0.48508  0.91149  0.72959  1.0000
  F   F313      1.0  0.73734  0.41817  0.22512  1.0000
  F   F314      1.0  0.73674  0.40031  0.71506  1.0000
  F   F315      1.0  0.73394  0.91771  0.22411  1.0000
  F   F316      1.0  0.72926  0.90998  0.73050  1.0000
  F   F317      1.0  0.98745  0.42232  0.22987  1.0000
  F   F318      1.0  0.98516  0.40423  0.73649  1.0000
  F   F319      1.0  0.98609  0.92806  0.21469  1.0000
  F   F320      1.0  0.98612  0.91413  0.71932  1.0000
  F   F321      1.0  0.20495  0.45536  0.47828  1.0000
  F   F322      1.0  0.20523  0.47866  0.97468  1.0000
  F   F323      1.0  0.19953  0.96823  0.49839  1.0000
  F   F324      1.0  0.19807  0.96448  0.00091  1.0000
  F   F325      1.0  0.45278  0.47235  0.48432  1.0000
  F   F326      1.0  0.46195  0.47276  0.96713  1.0000
  F   F327      1.0  0.44443  0.97892  0.49232  1.0000
  F   F328      1.0  0.45331  0.95577  0.99115  1.0000
  F   F329      1.0  0.70978  0.47961  0.46320  1.0000
  F   F330      1.0  0.70027  0.46385  0.98106  1.0000
  F   F331      1.0  0.70424  0.96510  0.47924  1.0000
  F   F332      1.0  0.70928  0.97170  0.97704  1.0000
  F   F333      1.0  0.96109  0.46923  0.46409  1.0000
  F   F334      1.0  0.95472  0.47420  0.97353  1.0000
  F   F335      1.0  0.94290  0.98365  0.49948  1.0000
  F   F336      1.0  0.94999  0.96994  0.99111  1.0000
  F   F337      1.0  0.01654  0.05883  0.29208  1.0000
  F   F338      1.0  0.01362  0.07905  0.77999  1.0000
  F   F339      1.0  0.01518  0.58225  0.28589  1.0000
  F   F340      1.0  0.02048  0.58015  0.77753  1.0000
  F   F341      1.0  0.26353  0.07801  0.28043  1.0000
  F   F342      1.0  0.26256  0.09157  0.76011  1.0000
  F   F343      1.0  0.26237  0.59866  0.25170  1.0000
  F   F344      1.0  0.26505  0.57840  0.78370  1.0000
  F   F345      1.0  0.51665  0.07778  0.28394  1.0000
  F   F346      1.0  0.51379  0.06935  0.78963  1.0000
  F   F347      1.0  0.51329  0.58784  0.26996  1.0000
  F   F348      1.0  0.50955  0.58879  0.76192  1.0000
  F   F349      1.0  0.76468  0.08331  0.26380  1.0000
  F   F350      1.0  0.76682  0.08519  0.76346  1.0000
  F   F351      1.0  0.76298  0.59447  0.26737  1.0000
  F   F352      1.0  0.76949  0.58992  0.78289  1.0000
  F   F353      1.0  0.10010  0.39115  0.46557  1.0000
  F   F354      1.0  0.10678  0.38253  0.97603  1.0000
  F   F355      1.0  0.09980  0.90863  0.44915  1.0000
  F   F356      1.0  0.09807  0.93020  0.94840  1.0000
  F   F357      1.0  0.35399  0.42389  0.46002  1.0000
  F   F358      1.0  0.35031  0.40519  0.95664  1.0000
  F   F359      1.0  0.34674  0.89766  0.47596  1.0000
  F   F360      1.0  0.34818  0.92178  0.97260  1.0000
  F   F361      1.0  0.60595  0.39715  0.46662  1.0000
  F   F362      1.0  0.59815  0.43217  0.96356  1.0000
  F   F363      1.0  0.60378  0.89893  0.47220  1.0000
  F   F364      1.0  0.59905  0.90943  0.96576  1.0000
  F   F365      1.0  0.84857  0.40959  0.46148  1.0000
  F   F366      1.0  0.84269  0.40163  0.96037  1.0000
  F   F367      1.0  0.85219  0.88958  0.45520  1.0000
  F   F368      1.0  0.84544  0.90895  0.96174  1.0000
  F   F369      1.0  0.04727  0.29742  0.29590  1.0000
  F   F370      1.0  0.04372  0.29134  0.78633  1.0000
  F   F371      1.0  0.04661  0.80552  0.27395  1.0000
  F   F372      1.0  0.05136  0.81516  0.78567  1.0000
  F   F373      1.0  0.30385  0.29446  0.27978  1.0000
  F   F374      1.0  0.28771  0.29165  0.78441  1.0000
  F   F375      1.0  0.29501  0.78667  0.29494  1.0000
  F   F376      1.0  0.29048  0.79384  0.79620  1.0000
  F   F377      1.0  0.54141  0.29346  0.28544  1.0000
  F   F378      1.0  0.54779  0.28884  0.78790  1.0000
  F   F379      1.0  0.54071  0.80118  0.28873  1.0000
  F   F380      1.0  0.55170  0.79138  0.78239  1.0000
  F   F381      1.0  0.79955  0.30198  0.29305  1.0000
  F   F382      1.0  0.79711  0.28705  0.78217  1.0000
  F   F383      1.0  0.79506  0.80590  0.27869  1.0000
  F   F384      1.0  0.78831  0.78108  0.79598  1.0000
