data_image0
_chemical_formula_structural       Hf96F384
_chemical_formula_sum              "Hf96 F384"
_cell_length_a       31.0494
_cell_length_b       15.5261
_cell_length_c       15.5182
_cell_angle_alpha    63.342
_cell_angle_beta     63.342
_cell_angle_gamma    80.1625

_space_group_name_H-M_alt    "P 1"
_space_group_IT_number       1

loop_
  _space_group_symop_operation_xyz
  'x, y, z'

loop_
  _atom_site_type_symbol
  _atom_site_label
  _atom_site_symmetry_multiplicity
  _atom_site_fract_x
  _atom_site_fract_y
  _atom_site_fract_z
  _atom_site_occupancy
  Hf  Hf1       1.0  0.19812  0.10932  0.37242  1.0000
  Hf  Hf2       1.0  0.19459  0.11196  0.87453  1.0000
  Hf  Hf3       1.0  0.20006  0.60742  0.37334  1.0000
  Hf  Hf4       1.0  0.19860  0.60762  0.87366  1.0000
  Hf  Hf5       1.0  0.44662  0.11013  0.37515  1.0000
  Hf  Hf6       1.0  0.44905  0.10477  0.87318  1.0000
  Hf  Hf7       1.0  0.44567  0.61022  0.38112  1.0000
  Hf  Hf8       1.0  0.44574  0.60507  0.88846  1.0000
  Hf  Hf9       1.0  0.69563  0.11258  0.36728  1.0000
  Hf  Hf10      1.0  0.69611  0.10343  0.87537  1.0000
  Hf  Hf11      1.0  0.69788  0.61576  0.36511  1.0000
  Hf  Hf12      1.0  0.70010  0.61562  0.86367  1.0000
  Hf  Hf13      1.0  0.94136  0.10450  0.38499  1.0000
  Hf  Hf14      1.0  0.94712  0.11500  0.86737  1.0000
  Hf  Hf15      1.0  0.94510  0.60391  0.37547  1.0000
  Hf  Hf16      1.0  0.94431  0.61063  0.88182  1.0000
  Hf  Hf17      1.0  0.05355  0.39557  0.12291  1.0000
  Hf  Hf18      1.0  0.05388  0.39092  0.61387  1.0000
  Hf  Hf19      1.0  0.05368  0.88532  0.13116  1.0000
  Hf  Hf20      1.0  0.05296  0.88967  0.62813  1.0000
  Hf  Hf21      1.0  0.30128  0.38401  0.13342  1.0000
  Hf  Hf22      1.0  0.30514  0.39532  0.62836  1.0000
  Hf  Hf23      1.0  0.30128  0.89456  0.12704  1.0000
  Hf  Hf24      1.0  0.30657  0.89592  0.62520  1.0000
  Hf  Hf25      1.0  0.55170  0.38642  0.13469  1.0000
  Hf  Hf26      1.0  0.55190  0.39481  0.62489  1.0000
  Hf  Hf27      1.0  0.55338  0.88887  0.13242  1.0000
  Hf  Hf28      1.0  0.54460  0.88923  0.65147  1.0000
  Hf  Hf29      1.0  0.80407  0.40011  0.11402  1.0000
  Hf  Hf30      1.0  0.80401  0.39182  0.62542  1.0000
  Hf  Hf31      1.0  0.80291  0.88973  0.12556  1.0000
  Hf  Hf32      1.0  0.80823  0.89752  0.60689  1.0000
  Hf  Hf33      1.0  0.05497  0.18149  0.41628  1.0000
  Hf  Hf34      1.0  0.05130  0.17393  0.92871  1.0000
  Hf  Hf35      1.0  0.05555  0.68226  0.41870  1.0000
  Hf  Hf36      1.0  0.05615  0.68283  0.91618  1.0000
  Hf  Hf37      1.0  0.30670  0.18849  0.41143  1.0000
  Hf  Hf38      1.0  0.30752  0.18491  0.91459  1.0000
  Hf  Hf39      1.0  0.30510  0.68683  0.42394  1.0000
  Hf  Hf40      1.0  0.30676  0.68473  0.91188  1.0000
  Hf  Hf41      1.0  0.55723  0.17393  0.41444  1.0000
  Hf  Hf42      1.0  0.55616  0.19198  0.91436  1.0000
  Hf  Hf43      1.0  0.55386  0.67954  0.41905  1.0000
  Hf  Hf44      1.0  0.55555  0.69067  0.92046  1.0000
  Hf  Hf45      1.0  0.80326  0.18754  0.41954  1.0000
  Hf  Hf46      1.0  0.80689  0.18224  0.91196  1.0000
  Hf  Hf47      1.0  0.80356  0.67645  0.41915  1.0000
  Hf  Hf48      1.0  0.80776  0.68934  0.91256  1.0000
  Hf  Hf49      1.0  0.15919  0.39079  0.33359  1.0000
  Hf  Hf50      1.0  0.15745  0.39257  0.83179  1.0000
  Hf  Hf51      1.0  0.15996  0.88568  0.34045  1.0000
  Hf  Hf52      1.0  0.16177  0.89250  0.83126  1.0000
  Hf  Hf53      1.0  0.41291  0.39034  0.33772  1.0000
  Hf  Hf54      1.0  0.40820  0.39021  0.83128  1.0000
  Hf  Hf55      1.0  0.40959  0.89396  0.33201  1.0000
  Hf  Hf56      1.0  0.40390  0.88773  0.83884  1.0000
  Hf  Hf57      1.0  0.65864  0.39128  0.33176  1.0000
  Hf  Hf58      1.0  0.66088  0.38981  0.82452  1.0000
  Hf  Hf59      1.0  0.66249  0.89147  0.32163  1.0000
  Hf  Hf60      1.0  0.65792  0.88603  0.83026  1.0000
  Hf  Hf61      1.0  0.90554  0.38746  0.32937  1.0000
  Hf  Hf62      1.0  0.90595  0.38480  0.83397  1.0000
  Hf  Hf63      1.0  0.90550  0.88431  0.32921  1.0000
  Hf  Hf64      1.0  0.90913  0.88771  0.83546  1.0000
  Hf  Hf65      1.0  0.19469  0.31206  0.08767  1.0000
  Hf  Hf66      1.0  0.19526  0.32360  0.57976  1.0000
  Hf  Hf67      1.0  0.19452  0.80627  0.09179  1.0000
  Hf  Hf68      1.0  0.19544  0.81342  0.59035  1.0000
  Hf  Hf69      1.0  0.44339  0.31341  0.09046  1.0000
  Hf  Hf70      1.0  0.44626  0.31238  0.58473  1.0000
  Hf  Hf71      1.0  0.44274  0.81277  0.09267  1.0000
  Hf  Hf72      1.0  0.44427  0.81397  0.59003  1.0000
  Hf  Hf73      1.0  0.69589  0.31571  0.08120  1.0000
  Hf  Hf74      1.0  0.69351  0.32621  0.58297  1.0000
  Hf  Hf75      1.0  0.69515  0.81656  0.08172  1.0000
  Hf  Hf76      1.0  0.69616  0.81807  0.57257  1.0000
  Hf  Hf77      1.0  0.94289  0.31607  0.08198  1.0000
  Hf  Hf78      1.0  0.94630  0.32013  0.56980  1.0000
  Hf  Hf79      1.0  0.94272  0.81519  0.08729  1.0000
  Hf  Hf80      1.0  0.94377  0.82021  0.58421  1.0000
  Hf  Hf81      1.0  0.09192  0.10816  0.16907  1.0000
  Hf  Hf82      1.0  0.09085  0.10128  0.67149  1.0000
  Hf  Hf83      1.0  0.09244  0.59975  0.17171  1.0000
  Hf  Hf84      1.0  0.09395  0.61115  0.66359  1.0000
  Hf  Hf85      1.0  0.34009  0.10477  0.16638  1.0000
  Hf  Hf86      1.0  0.33752  0.11230  0.66970  1.0000
  Hf  Hf87      1.0  0.34544  0.61070  0.16472  1.0000
  Hf  Hf88      1.0  0.34441  0.61399  0.66433  1.0000
  Hf  Hf89      1.0  0.59762  0.11728  0.15387  1.0000
  Hf  Hf90      1.0  0.59232  0.11777  0.66407  1.0000
  Hf  Hf91      1.0  0.58870  0.61323  0.17007  1.0000
  Hf  Hf92      1.0  0.59049  0.61771  0.66029  1.0000
  Hf  Hf93      1.0  0.84120  0.11186  0.16157  1.0000
  Hf  Hf94      1.0  0.83784  0.11171  0.67061  1.0000
  Hf  Hf95      1.0  0.83779  0.61294  0.16478  1.0000
  Hf  Hf96      1.0  0.84397  0.61147  0.66727  1.0000
  F   F1        1.0  0.07882  0.10713  0.31063  1.0000
  F   F2        1.0  0.07550  0.13351  0.79912  1.0000
  F   F3        1.0  0.08122  0.62840  0.30821  1.0000
  F   F4        1.0  0.08060  0.63106  0.80307  1.0000
  F   F5        1.0  0.32973  0.13396  0.30367  1.0000
  F   F6        1.0  0.33016  0.14320  0.79366  1.0000
  F   F7        1.0  0.32939  0.64523  0.30071  1.0000
  F   F8        1.0  0.32569  0.61305  0.81414  1.0000
  F   F9        1.0  0.57708  0.11939  0.30238  1.0000
  F   F10       1.0  0.57904  0.12984  0.80686  1.0000
  F   F11       1.0  0.57968  0.62580  0.30917  1.0000
  F   F12       1.0  0.58143  0.64985  0.79821  1.0000
  F   F13       1.0  0.82416  0.12780  0.30773  1.0000
  F   F14       1.0  0.81723  0.12177  0.80925  1.0000
  F   F15       1.0  0.82760  0.61651  0.31099  1.0000
  F   F16       1.0  0.83325  0.62122  0.80413  1.0000
  F   F17       1.0  0.18910  0.33759  0.45096  1.0000
  F   F18       1.0  0.18469  0.33210  0.94456  1.0000
  F   F19       1.0  0.19077  0.83172  0.45673  1.0000
  F   F20       1.0  0.19466  0.83750  0.94201  1.0000
  F   F21       1.0  0.43927  0.35128  0.44735  1.0000
  F   F22       1.0  0.43871  0.33345  0.94557  1.0000
  F   F23       1.0  0.42218  0.83080  0.46439  1.0000
  F   F24       1.0  0.42734  0.84180  0.96102  1.0000
  F   F25       1.0  0.69134  0.33854  0.44758  1.0000
  F   F26       1.0  0.69671  0.33900  0.93640  1.0000
  F   F27       1.0  0.69238  0.84786  0.42714  1.0000
  F   F28       1.0  0.67825  0.83303  0.95409  1.0000
  F   F29       1.0  0.93061  0.33805  0.44709  1.0000
  F   F30       1.0  0.92979  0.33928  0.94990  1.0000
  F   F31       1.0  0.93368  0.83301  0.44257  1.0000
  F   F32       1.0  0.93359  0.82951  0.94806  1.0000
  F   F33       1.0  0.16681  0.36311  0.19792  1.0000
  F   F34       1.0  0.16758  0.38442  0.69070  1.0000
  F   F35       1.0  0.17665  0.86169  0.20009  1.0000
  F   F36       1.0  0.17585  0.88249  0.69102  1.0000
  F   F37       1.0  0.42832  0.38012  0.19572  1.0000
  F   F38       1.0  0.42213  0.36400  0.70433  1.0000
  F   F39       1.0  0.42130  0.86436  0.20250  1.0000
  F   F40       1.0  0.41881  0.85681  0.70919  1.0000
  F   F41       1.0  0.66837  0.36307  0.19877  1.0000
  F   F42       1.0  0.66635  0.38848  0.69061  1.0000
  F   F43       1.0  0.67652  0.88702  0.17318  1.0000
  F   F44       1.0  0.67687  0.87304  0.68580  1.0000
  F   F45       1.0  0.92086  0.37443  0.18346  1.0000
  F   F46       1.0  0.91797  0.37874  0.67911  1.0000
  F   F47       1.0  0.92070  0.88553  0.18274  1.0000
  F   F48       1.0  0.92192  0.87266  0.69984  1.0000
  F   F49       1.0  0.05727  0.13422  0.07095  1.0000
  F   F50       1.0  0.07097  0.15498  0.53678  1.0000
  F   F51       1.0  0.06877  0.64580  0.05131  1.0000
  F   F52       1.0  0.06254  0.66005  0.55192  1.0000
  F   F53       1.0  0.31054  0.15376  0.06034  1.0000
  F   F54       1.0  0.32741  0.17079  0.53975  1.0000
  F   F55       1.0  0.32492  0.67085  0.04281  1.0000
  F   F56       1.0  0.31516  0.65897  0.55784  1.0000
  F   F57       1.0  0.56101  0.15254  0.05666  1.0000
  F   F58       1.0  0.56072  0.14752  0.55614  1.0000
  F   F59       1.0  0.56324  0.66790  0.05516  1.0000
  F   F60       1.0  0.56206  0.65997  0.55407  1.0000
  F   F61       1.0  0.82088  0.15630  0.03513  1.0000
  F   F62       1.0  0.81751  0.16706  0.55022  1.0000
  F   F63       1.0  0.81912  0.67530  0.04023  1.0000
  F   F64       1.0  0.80918  0.65986  0.55323  1.0000
  F   F65       1.0  0.20780  0.20118  0.21441  1.0000
  F   F66       1.0  0.19890  0.20280  0.71900  1.0000
  F   F67       1.0  0.21401  0.69482  0.21229  1.0000
  F   F68       1.0  0.20464  0.70238  0.72272  1.0000
  F   F69       1.0  0.45783  0.19962  0.21042  1.0000
  F   F70       1.0  0.45094  0.19662  0.70513  1.0000
  F   F71       1.0  0.45308  0.69027  0.21689  1.0000
  F   F72       1.0  0.45010  0.70375  0.73409  1.0000
  F   F73       1.0  0.71035  0.20976  0.20814  1.0000
  F   F74       1.0  0.69903  0.21147  0.72047  1.0000
  F   F75       1.0  0.70822  0.69755  0.20465  1.0000
  F   F76       1.0  0.70929  0.70680  0.69950  1.0000
  F   F77       1.0  0.94551  0.20009  0.21760  1.0000
  F   F78       1.0  0.95938  0.19698  0.71326  1.0000
  F   F79       1.0  0.94990  0.69968  0.20262  1.0000
  F   F80       1.0  0.94369  0.70800  0.71909  1.0000
  F   F81       1.0  0.14533  0.11373  0.03314  1.0000
  F   F82       1.0  0.14603  0.08487  0.53495  1.0000
  F   F83       1.0  0.14986  0.57685  0.03750  1.0000
  F   F84       1.0  0.14839  0.57700  0.55062  1.0000
  F   F85       1.0  0.39717  0.07959  0.04779  1.0000
  F   F86       1.0  0.40134  0.07236  0.53062  1.0000
  F   F87       1.0  0.40297  0.58677  0.04783  1.0000
  F   F88       1.0  0.39848  0.61576  0.53369  1.0000
  F   F89       1.0  0.65003  0.08662  0.03395  1.0000
  F   F90       1.0  0.64087  0.09290  0.53190  1.0000
  F   F91       1.0  0.64431  0.60538  0.04708  1.0000
  F   F92       1.0  0.64774  0.59793  0.54461  1.0000
  F   F93       1.0  0.90088  0.08581  0.01989  1.0000
  F   F94       1.0  0.90461  0.09168  0.54433  1.0000
  F   F95       1.0  0.90143  0.58555  0.03973  1.0000
  F   F96       1.0  0.90067  0.58422  0.52723  1.0000
  F   F97       1.0  0.15371  0.20097  0.12101  1.0000
  F   F98       1.0  0.14801  0.17396  0.62913  1.0000
  F   F99       1.0  0.15921  0.68371  0.12095  1.0000
  F   F100      1.0  0.15868  0.68522  0.63019  1.0000
  F   F101      1.0  0.39709  0.20272  0.11345  1.0000
  F   F102      1.0  0.39737  0.18406  0.61388  1.0000
  F   F103      1.0  0.39906  0.69640  0.13019  1.0000
  F   F104      1.0  0.40460  0.69279  0.64390  1.0000
  F   F105      1.0  0.65279  0.20363  0.11269  1.0000
  F   F106      1.0  0.65089  0.20225  0.61282  1.0000
  F   F107      1.0  0.65228  0.70067  0.13527  1.0000
  F   F108      1.0  0.65923  0.69331  0.62007  1.0000
  F   F109      1.0  0.90075  0.18874  0.11314  1.0000
  F   F110      1.0  0.89536  0.20431  0.64113  1.0000
  F   F111      1.0  0.89256  0.69656  0.12401  1.0000
  F   F112      1.0  0.90618  0.68802  0.62188  1.0000
  F   F113      1.0  0.09571  0.31088  0.37783  1.0000
  F   F114      1.0  0.09138  0.29412  0.86536  1.0000
  F   F115      1.0  0.10270  0.81050  0.36948  1.0000
  F   F116      1.0  0.09160  0.79935  0.85762  1.0000
  F   F117      1.0  0.35035  0.31259  0.36959  1.0000
  F   F118      1.0  0.35067  0.30478  0.88618  1.0000
  F   F119      1.0  0.35129  0.80130  0.37996  1.0000
  F   F120      1.0  0.34678  0.80161  0.87744  1.0000
  F   F121      1.0  0.59234  0.29304  0.39892  1.0000
  F   F122      1.0  0.59914  0.31687  0.86169  1.0000
  F   F123      1.0  0.60789  0.79561  0.35874  1.0000
  F   F124      1.0  0.59634  0.81556  0.85174  1.0000
  F   F125      1.0  0.85215  0.30294  0.35150  1.0000
  F   F126      1.0  0.84973  0.30772  0.87604  1.0000
  F   F127      1.0  0.84510  0.80842  0.37428  1.0000
  F   F128      1.0  0.85091  0.80186  0.87277  1.0000
  F   F129      1.0  0.06012  0.24310  0.15077  1.0000
  F   F130      1.0  0.06501  0.25373  0.62747  1.0000
  F   F131      1.0  0.06505  0.74757  0.13300  1.0000
  F   F132      1.0  0.07237  0.75070  0.63222  1.0000
  F   F133      1.0  0.31318  0.24989  0.14881  1.0000
  F   F134      1.0  0.31289  0.26149  0.64361  1.0000
  F   F135      1.0  0.30790  0.75290  0.15897  1.0000
  F   F136      1.0  0.32097  0.75577  0.64269  1.0000
  F   F137      1.0  0.56605  0.25700  0.13565  1.0000
  F   F138      1.0  0.56582  0.25240  0.63238  1.0000
  F   F139      1.0  0.56696  0.74718  0.15244  1.0000
  F   F140      1.0  0.57129  0.75963  0.63420  1.0000
  F   F141      1.0  0.80809  0.25149  0.15076  1.0000
  F   F142      1.0  0.81384  0.25975  0.63863  1.0000
  F   F143      1.0  0.80315  0.74563  0.16236  1.0000
  F   F144      1.0  0.81888  0.74960  0.62689  1.0000
  F   F145      1.0  0.12153  0.37828  0.10437  1.0000
  F   F146      1.0  0.12356  0.34211  0.61905  1.0000
  F   F147      1.0  0.12596  0.85639  0.11241  1.0000
  F   F148      1.0  0.12677  0.86831  0.61143  1.0000
  F   F149      1.0  0.37807  0.36851  0.11104  1.0000
  F   F150      1.0  0.37660  0.35528  0.61514  1.0000
  F   F151      1.0  0.37416  0.87242  0.11283  1.0000
  F   F152      1.0  0.37815  0.88450  0.60074  1.0000
  F   F153      1.0  0.62222  0.37458  0.10200  1.0000
  F   F154      1.0  0.62176  0.35551  0.62494  1.0000
  F   F155      1.0  0.62456  0.87669  0.11291  1.0000
  F   F156      1.0  0.61788  0.86177  0.63155  1.0000
  F   F157      1.0  0.87026  0.35821  0.11392  1.0000
  F   F158      1.0  0.87587  0.38973  0.59187  1.0000
  F   F159      1.0  0.87268  0.85616  0.10830  1.0000
  F   F160      1.0  0.87704  0.87050  0.60564  1.0000
  F   F161      1.0  0.18265  0.24730  0.36174  1.0000
  F   F162      1.0  0.18119  0.25252  0.85254  1.0000
  F   F163      1.0  0.18870  0.74598  0.36314  1.0000
  F   F164      1.0  0.17901  0.75540  0.87387  1.0000
  F   F165      1.0  0.44398  0.24803  0.36711  1.0000
  F   F166      1.0  0.43923  0.23751  0.85620  1.0000
  F   F167      1.0  0.43490  0.75149  0.36051  1.0000
  F   F168      1.0  0.42642  0.74156  0.88704  1.0000
  F   F169      1.0  0.68285  0.24834  0.35473  1.0000
  F   F170      1.0  0.68074  0.25323  0.86820  1.0000
  F   F171      1.0  0.68739  0.75358  0.34626  1.0000
  F   F172      1.0  0.68901  0.75464  0.83485  1.0000
  F   F173      1.0  0.93343  0.25036  0.35750  1.0000
  F   F174      1.0  0.93322  0.25553  0.85436  1.0000
  F   F175      1.0  0.94182  0.75027  0.33829  1.0000
  F   F176      1.0  0.93471  0.75186  0.85198  1.0000
  F   F177      1.0  0.13123  0.13658  0.36837  1.0000
  F   F178      1.0  0.12459  0.11950  0.88969  1.0000
  F   F179      1.0  0.12950  0.62850  0.39335  1.0000
  F   F180      1.0  0.12475  0.62082  0.89768  1.0000
  F   F181      1.0  0.38089  0.14038  0.37336  1.0000
  F   F182      1.0  0.37326  0.12700  0.90262  1.0000
  F   F183      1.0  0.37366  0.61892  0.40878  1.0000
  F   F184      1.0  0.37448  0.62154  0.89779  1.0000
  F   F185      1.0  0.62829  0.13506  0.36406  1.0000
  F   F186      1.0  0.62784  0.13842  0.87944  1.0000
  F   F187      1.0  0.62616  0.61304  0.39878  1.0000
  F   F188      1.0  0.62621  0.64209  0.89284  1.0000
  F   F189      1.0  0.87049  0.13036  0.41096  1.0000
  F   F190      1.0  0.87709  0.15856  0.85493  1.0000
  F   F191      1.0  0.87295  0.64159  0.39920  1.0000
  F   F192      1.0  0.87377  0.62720  0.89848  1.0000
  F   F193      1.0  0.01375  0.35973  0.05740  1.0000
  F   F194      1.0  0.00568  0.37462  0.56657  1.0000
  F   F195      1.0  0.00697  0.85577  0.08965  1.0000
  F   F196      1.0  0.00423  0.84635  0.60248  1.0000
  F   F197      1.0  0.26379  0.37042  0.06139  1.0000
  F   F198      1.0  0.25603  0.37274  0.57163  1.0000
  F   F199      1.0  0.25779  0.85794  0.05995  1.0000
  F   F200      1.0  0.25486  0.85194  0.59140  1.0000
  F   F201      1.0  0.51411  0.35992  0.06770  1.0000
  F   F202      1.0  0.50859  0.37049  0.56807  1.0000
  F   F203      1.0  0.50830  0.84620  0.09149  1.0000
  F   F204      1.0  0.50255  0.85627  0.60469  1.0000
  F   F205      1.0  0.76149  0.36107  0.05553  1.0000
  F   F206      1.0  0.75508  0.37274  0.57525  1.0000
  F   F207      1.0  0.75771  0.86219  0.07718  1.0000
  F   F208      1.0  0.76671  0.86293  0.55314  1.0000
  F   F209      1.0  0.06515  0.47652  0.19416  1.0000
  F   F210      1.0  0.06861  0.48010  0.67174  1.0000
  F   F211      1.0  0.07862  0.98439  0.17416  1.0000
  F   F212      1.0  0.07092  0.98677  0.65436  1.0000
  F   F213      1.0  0.32542  0.47896  0.16766  1.0000
  F   F214      1.0  0.32761  0.48726  0.67151  1.0000
  F   F215      1.0  0.31695  0.97866  0.17800  1.0000
  F   F216      1.0  0.32024  0.98947  0.66957  1.0000
  F   F217      1.0  0.56845  0.48647  0.18563  1.0000
  F   F218      1.0  0.56814  0.48628  0.66469  1.0000
  F   F219      1.0  0.57121  0.98475  0.17609  1.0000
  F   F220      1.0  0.56246  0.97954  0.69288  1.0000
  F   F221      1.0  0.82201  0.49428  0.15039  1.0000
  F   F222      1.0  0.81658  0.48707  0.67984  1.0000
  F   F223      1.0  0.82370  0.98663  0.15796  1.0000
  F   F224      1.0  0.82328  0.98339  0.66604  1.0000
  F   F225      1.0  0.24516  0.13769  0.42534  1.0000
  F   F226      1.0  0.24614  0.15032  0.91197  1.0000
  F   F227      1.0  0.23632  0.62568  0.44480  1.0000
  F   F228      1.0  0.24370  0.64947  0.90808  1.0000
  F   F229      1.0  0.49283  0.12948  0.43652  1.0000
  F   F230      1.0  0.49223  0.13686  0.92251  1.0000
  F   F231      1.0  0.49654  0.63865  0.42679  1.0000
  F   F232      1.0  0.49140  0.64161  0.93961  1.0000
  F   F233      1.0  0.73452  0.14670  0.42771  1.0000
  F   F234      1.0  0.74012  0.14086  0.92790  1.0000
  F   F235      1.0  0.73815  0.63229  0.41986  1.0000
  F   F236      1.0  0.74386  0.65035  0.91778  1.0000
  F   F237      1.0  0.99284  0.14573  0.42432  1.0000
  F   F238      1.0  0.99159  0.12188  0.93017  1.0000
  F   F239      1.0  0.98999  0.63565  0.42657  1.0000
  F   F240      1.0  0.98338  0.63962  0.93695  1.0000
  F   F241      1.0  0.18720  0.00673  0.33645  1.0000
  F   F242      1.0  0.18030  0.01595  0.81951  1.0000
  F   F243      1.0  0.17859  0.51398  0.32735  1.0000
  F   F244      1.0  0.18165  0.51123  0.82189  1.0000
  F   F245      1.0  0.42771  0.01088  0.34521  1.0000
  F   F246      1.0  0.42928  0.02080  0.82775  1.0000
  F   F247      1.0  0.43366  0.51560  0.32529  1.0000
  F   F248      1.0  0.43187  0.50666  0.84078  1.0000
  F   F249      1.0  0.68632  0.02470  0.30652  1.0000
  F   F250      1.0  0.68105  0.00651  0.82877  1.0000
  F   F251      1.0  0.68685  0.51274  0.31133  1.0000
  F   F252      1.0  0.68033  0.52108  0.81913  1.0000
  F   F253      1.0  0.93056  0.01063  0.32290  1.0000
  F   F254      1.0  0.92118  0.01216  0.85888  1.0000
  F   F255      1.0  0.92250  0.51095  0.33749  1.0000
  F   F256      1.0  0.92973  0.51773  0.82809  1.0000
  F   F257      1.0  0.99473  0.24356  0.00046  1.0000
  F   F258      1.0  0.00493  0.25345  0.50764  1.0000
  F   F259      1.0  0.00135  0.74633  0.99461  1.0000
  F   F260      1.0  0.00335  0.76527  0.48592  1.0000
  F   F261      1.0  0.25404  0.26240  0.99369  1.0000
  F   F262      1.0  0.24683  0.23014  0.53235  1.0000
  F   F263      1.0  0.24770  0.71404  0.01835  1.0000
  F   F264      1.0  0.25046  0.72932  0.51851  1.0000
  F   F265      1.0  0.50171  0.24386  0.00075  1.0000
  F   F266      1.0  0.49757  0.24591  0.50855  1.0000
  F   F267      1.0  0.49804  0.75453  0.99729  1.0000
  F   F268      1.0  0.50269  0.76169  0.49125  1.0000
  F   F269      1.0  0.75271  0.23071  0.01659  1.0000
  F   F270      1.0  0.74834  0.24567  0.51529  1.0000
  F   F271      1.0  0.75590  0.78778  0.97259  1.0000
  F   F272      1.0  0.74823  0.74159  0.50249  1.0000
  F   F273      1.0  0.13056  0.99287  0.25512  1.0000
  F   F274      1.0  0.11691  0.99415  0.77433  1.0000
  F   F275      1.0  0.12488  0.50008  0.25803  1.0000
  F   F276      1.0  0.11075  0.49169  0.76868  1.0000
  F   F277      1.0  0.38252  0.00593  0.23757  1.0000
  F   F278      1.0  0.36780  0.99802  0.75359  1.0000
  F   F279      1.0  0.37595  0.50454  0.25296  1.0000
  F   F280      1.0  0.38525  0.50714  0.73719  1.0000
  F   F281      1.0  0.62728  0.00542  0.24089  1.0000
  F   F282      1.0  0.63099  0.00558  0.74029  1.0000
  F   F283      1.0  0.62353  0.50183  0.24965  1.0000
  F   F284      1.0  0.61242  0.50594  0.75996  1.0000
  F   F285      1.0  0.87013  0.00679  0.24635  1.0000
  F   F286      1.0  0.87725  0.01646  0.74976  1.0000
  F   F287      1.0  0.87378  0.49350  0.24878  1.0000
  F   F288      1.0  0.87881  0.49810  0.74272  1.0000
  F   F289      1.0  0.04220  0.02067  0.02256  1.0000
  F   F290      1.0  0.03814  0.03105  0.51667  1.0000
  F   F291      1.0  0.03691  0.52676  0.03151  1.0000
  F   F292      1.0  0.04371  0.53607  0.51183  1.0000
  F   F293      1.0  0.28312  0.03823  0.03011  1.0000
  F   F294      1.0  0.29171  0.03649  0.52998  1.0000
  F   F295      1.0  0.28862  0.54077  0.03537  1.0000
  F   F296      1.0  0.29628  0.53678  0.52118  1.0000
  F   F297      1.0  0.54613  0.01682  0.02573  1.0000
  F   F298      1.0  0.54967  0.02122  0.51299  1.0000
  F   F299      1.0  0.54701  0.53002  0.01890  1.0000
  F   F300      1.0  0.53855  0.53775  0.52207  1.0000
  F   F301      1.0  0.80171  0.02373  0.01693  1.0000
  F   F302      1.0  0.79283  0.03539  0.50964  1.0000
  F   F303      1.0  0.78627  0.53555  0.02865  1.0000
  F   F304      1.0  0.78716  0.52616  0.53101  1.0000
  F   F305      1.0  0.23189  0.41089  0.23476  1.0000
  F   F306      1.0  0.23893  0.42937  0.71361  1.0000
  F   F307      1.0  0.23439  0.91845  0.22131  1.0000
  F   F308      1.0  0.23543  0.90703  0.73777  1.0000
  F   F309      1.0  0.48966  0.41643  0.23255  1.0000
  F   F310      1.0  0.48111  0.42081  0.72186  1.0000
  F   F311      1.0  0.48117  0.91528  0.23704  1.0000
  F   F312      1.0  0.47990  0.92390  0.73248  1.0000
  F   F313      1.0  0.73309  0.41006  0.21897  1.0000
  F   F314      1.0  0.73246  0.41971  0.73006  1.0000
  F   F315      1.0  0.73881  0.91607  0.22566  1.0000
  F   F316      1.0  0.74494  0.92762  0.69912  1.0000
  F   F317      1.0  0.98097  0.41416  0.22614  1.0000
  F   F318      1.0  0.97653  0.42709  0.71178  1.0000
  F   F319      1.0  0.98802  0.92157  0.21285  1.0000
  F   F320      1.0  0.98294  0.92610  0.72928  1.0000
  F   F321      1.0  0.20629  0.46636  0.48101  1.0000
  F   F322      1.0  0.20471  0.46277  0.97441  1.0000
  F   F323      1.0  0.21535  0.97175  0.46723  1.0000
  F   F324      1.0  0.19888  0.98268  0.98594  1.0000
  F   F325      1.0  0.44753  0.47213  0.49415  1.0000
  F   F326      1.0  0.45870  0.46062  0.98840  1.0000
  F   F327      1.0  0.46504  0.95149  0.48323  1.0000
  F   F328      1.0  0.46649  0.95977  0.97535  1.0000
  F   F329      1.0  0.70044  0.47643  0.48130  1.0000
  F   F330      1.0  0.70390  0.48273  0.97302  1.0000
  F   F331      1.0  0.69933  0.96454  0.47473  1.0000
  F   F332      1.0  0.70599  0.96470  0.97057  1.0000
  F   F333      1.0  0.95955  0.46286  0.46108  1.0000
  F   F334      1.0  0.96027  0.46412  0.95930  1.0000
  F   F335      1.0  0.96365  0.96658  0.48102  1.0000
  F   F336      1.0  0.96586  0.95996  0.96788  1.0000
  F   F337      1.0  0.00709  0.07362  0.29234  1.0000
  F   F338      1.0  0.01352  0.08726  0.75548  1.0000
  F   F339      1.0  0.01733  0.59904  0.26377  1.0000
  F   F340      1.0  0.02123  0.59353  0.77431  1.0000
  F   F341      1.0  0.26989  0.08571  0.26789  1.0000
  F   F342      1.0  0.26141  0.06907  0.78091  1.0000
  F   F343      1.0  0.27046  0.56502  0.27977  1.0000
  F   F344      1.0  0.26565  0.59589  0.75700  1.0000
  F   F345      1.0  0.51394  0.08949  0.28118  1.0000
  F   F346      1.0  0.51755  0.10237  0.76536  1.0000
  F   F347      1.0  0.51101  0.58661  0.28397  1.0000
  F   F348      1.0  0.51356  0.58434  0.77797  1.0000
  F   F349      1.0  0.76496  0.07596  0.26147  1.0000
  F   F350      1.0  0.76302  0.08697  0.76374  1.0000
  F   F351      1.0  0.76927  0.56847  0.27011  1.0000
  F   F352      1.0  0.76767  0.59296  0.76653  1.0000
  F   F353      1.0  0.10520  0.40297  0.46601  1.0000
  F   F354      1.0  0.10023  0.39635  0.96255  1.0000
  F   F355      1.0  0.10310  0.90138  0.45964  1.0000
  F   F356      1.0  0.09962  0.88544  0.97083  1.0000
  F   F357      1.0  0.35131  0.40822  0.46207  1.0000
  F   F358      1.0  0.35608  0.42686  0.96321  1.0000
  F   F359      1.0  0.34216  0.91677  0.46815  1.0000
  F   F360      1.0  0.34874  0.91449  0.95816  1.0000
  F   F361      1.0  0.60285  0.41396  0.46048  1.0000
  F   F362      1.0  0.60706  0.40954  0.94694  1.0000
  F   F363      1.0  0.61002  0.89846  0.45414  1.0000
  F   F364      1.0  0.60029  0.89169  0.95893  1.0000
  F   F365      1.0  0.84572  0.40306  0.45002  1.0000
  F   F366      1.0  0.84733  0.41468  0.95565  1.0000
  F   F367      1.0  0.85582  0.92193  0.44812  1.0000
  F   F368      1.0  0.84927  0.88624  0.97431  1.0000
  F   F369      1.0  0.04533  0.30111  0.28924  1.0000
  F   F370      1.0  0.03585  0.29892  0.77978  1.0000
  F   F371      1.0  0.04935  0.80280  0.28155  1.0000
  F   F372      1.0  0.03618  0.79759  0.77900  1.0000
  F   F373      1.0  0.29011  0.29804  0.30135  1.0000
  F   F374      1.0  0.29686  0.31578  0.79882  1.0000
  F   F375      1.0  0.29572  0.81039  0.30619  1.0000
  F   F376      1.0  0.29142  0.80041  0.79757  1.0000
  F   F377      1.0  0.54386  0.28825  0.29060  1.0000
  F   F378      1.0  0.54287  0.29752  0.78837  1.0000
  F   F379      1.0  0.54400  0.79964  0.28981  1.0000
  F   F380      1.0  0.53950  0.79941  0.79601  1.0000
  F   F381      1.0  0.78548  0.30587  0.30312  1.0000
  F   F382      1.0  0.80536  0.29739  0.78742  1.0000
  F   F383      1.0  0.79276  0.79692  0.29628  1.0000
  F   F384      1.0  0.80006  0.79329  0.77927  1.0000
