data_image0
_chemical_formula_structural       Hf96F384
_chemical_formula_sum              "Hf96 F384"
_cell_length_a       31.0129
_cell_length_b       15.5058
_cell_length_c       15.4978
_cell_angle_alpha    63.342
_cell_angle_beta     63.342
_cell_angle_gamma    80.1625

_space_group_name_H-M_alt    "P 1"
_space_group_IT_number       1

loop_
  _space_group_symop_operation_xyz
  'x, y, z'

loop_
  _atom_site_type_symbol
  _atom_site_label
  _atom_site_symmetry_multiplicity
  _atom_site_fract_x
  _atom_site_fract_y
  _atom_site_fract_z
  _atom_site_occupancy
  Hf  Hf1       1.0  0.19945  0.10562  0.37081  1.0000
  Hf  Hf2       1.0  0.19871  0.11112  0.86952  1.0000
  Hf  Hf3       1.0  0.19478  0.60084  0.38000  1.0000
  Hf  Hf4       1.0  0.19559  0.61136  0.87609  1.0000
  Hf  Hf5       1.0  0.44619  0.10665  0.37900  1.0000
  Hf  Hf6       1.0  0.44842  0.11140  0.87544  1.0000
  Hf  Hf7       1.0  0.44937  0.61305  0.37389  1.0000
  Hf  Hf8       1.0  0.44498  0.60760  0.87783  1.0000
  Hf  Hf9       1.0  0.69668  0.11234  0.37270  1.0000
  Hf  Hf10      1.0  0.69599  0.11061  0.87127  1.0000
  Hf  Hf11      1.0  0.69657  0.60834  0.37756  1.0000
  Hf  Hf12      1.0  0.69480  0.60636  0.87454  1.0000
  Hf  Hf13      1.0  0.94398  0.10445  0.37486  1.0000
  Hf  Hf14      1.0  0.94541  0.10137  0.87749  1.0000
  Hf  Hf15      1.0  0.94249  0.60257  0.37891  1.0000
  Hf  Hf16      1.0  0.94400  0.60784  0.87475  1.0000
  Hf  Hf17      1.0  0.05216  0.38707  0.12654  1.0000
  Hf  Hf18      1.0  0.05972  0.38381  0.62125  1.0000
  Hf  Hf19      1.0  0.05275  0.89109  0.12485  1.0000
  Hf  Hf20      1.0  0.05632  0.89419  0.62274  1.0000
  Hf  Hf21      1.0  0.30574  0.39418  0.12089  1.0000
  Hf  Hf22      1.0  0.30491  0.38868  0.62157  1.0000
  Hf  Hf23      1.0  0.30565  0.89368  0.12648  1.0000
  Hf  Hf24      1.0  0.30534  0.89468  0.61947  1.0000
  Hf  Hf25      1.0  0.55350  0.39622  0.12298  1.0000
  Hf  Hf26      1.0  0.55852  0.39632  0.61832  1.0000
  Hf  Hf27      1.0  0.55100  0.89142  0.11972  1.0000
  Hf  Hf28      1.0  0.55118  0.89627  0.62704  1.0000
  Hf  Hf29      1.0  0.80467  0.40083  0.11452  1.0000
  Hf  Hf30      1.0  0.80484  0.40086  0.62081  1.0000
  Hf  Hf31      1.0  0.79857  0.89197  0.12673  1.0000
  Hf  Hf32      1.0  0.80245  0.89441  0.63368  1.0000
  Hf  Hf33      1.0  0.05594  0.17893  0.41871  1.0000
  Hf  Hf34      1.0  0.05436  0.17781  0.92202  1.0000
  Hf  Hf35      1.0  0.04883  0.67256  0.42512  1.0000
  Hf  Hf36      1.0  0.05436  0.68459  0.91416  1.0000
  Hf  Hf37      1.0  0.30712  0.18946  0.41434  1.0000
  Hf  Hf38      1.0  0.30294  0.18814  0.92133  1.0000
  Hf  Hf39      1.0  0.30860  0.68230  0.41518  1.0000
  Hf  Hf40      1.0  0.31000  0.69037  0.90525  1.0000
  Hf  Hf41      1.0  0.55558  0.18476  0.41547  1.0000
  Hf  Hf42      1.0  0.55705  0.18470  0.90882  1.0000
  Hf  Hf43      1.0  0.55520  0.68395  0.42525  1.0000
  Hf  Hf44      1.0  0.55482  0.68714  0.91856  1.0000
  Hf  Hf45      1.0  0.80660  0.18452  0.41424  1.0000
  Hf  Hf46      1.0  0.80780  0.17860  0.91574  1.0000
  Hf  Hf47      1.0  0.80378  0.69070  0.40993  1.0000
  Hf  Hf48      1.0  0.80206  0.68367  0.92477  1.0000
  Hf  Hf49      1.0  0.15776  0.38010  0.33839  1.0000
  Hf  Hf50      1.0  0.15855  0.38800  0.83372  1.0000
  Hf  Hf51      1.0  0.16079  0.88853  0.32990  1.0000
  Hf  Hf52      1.0  0.15781  0.87985  0.84161  1.0000
  Hf  Hf53      1.0  0.40920  0.39272  0.33478  1.0000
  Hf  Hf54      1.0  0.41157  0.39097  0.83385  1.0000
  Hf  Hf55      1.0  0.40789  0.88595  0.33525  1.0000
  Hf  Hf56      1.0  0.40587  0.88850  0.84322  1.0000
  Hf  Hf57      1.0  0.65989  0.39213  0.32887  1.0000
  Hf  Hf58      1.0  0.65772  0.38382  0.83412  1.0000
  Hf  Hf59      1.0  0.65406  0.88932  0.34068  1.0000
  Hf  Hf60      1.0  0.65963  0.89127  0.83058  1.0000
  Hf  Hf61      1.0  0.90900  0.38233  0.33492  1.0000
  Hf  Hf62      1.0  0.90726  0.38825  0.82887  1.0000
  Hf  Hf63      1.0  0.91075  0.89058  0.32555  1.0000
  Hf  Hf64      1.0  0.90781  0.88756  0.83159  1.0000
  Hf  Hf65      1.0  0.19130  0.31608  0.08700  1.0000
  Hf  Hf66      1.0  0.19892  0.31716  0.58155  1.0000
  Hf  Hf67      1.0  0.19267  0.80524  0.09392  1.0000
  Hf  Hf68      1.0  0.19189  0.81744  0.58726  1.0000
  Hf  Hf69      1.0  0.44848  0.31450  0.07999  1.0000
  Hf  Hf70      1.0  0.44502  0.31291  0.58886  1.0000
  Hf  Hf71      1.0  0.44005  0.80905  0.09031  1.0000
  Hf  Hf72      1.0  0.44436  0.81858  0.58347  1.0000
  Hf  Hf73      1.0  0.69741  0.31878  0.08077  1.0000
  Hf  Hf74      1.0  0.69871  0.32161  0.57678  1.0000
  Hf  Hf75      1.0  0.68634  0.81845  0.09023  1.0000
  Hf  Hf76      1.0  0.69362  0.81308  0.58294  1.0000
  Hf  Hf77      1.0  0.94187  0.31672  0.08502  1.0000
  Hf  Hf78      1.0  0.94500  0.31463  0.58111  1.0000
  Hf  Hf79      1.0  0.94061  0.81551  0.09019  1.0000
  Hf  Hf80      1.0  0.94405  0.82572  0.57494  1.0000
  Hf  Hf81      1.0  0.09185  0.11058  0.16772  1.0000
  Hf  Hf82      1.0  0.09560  0.10534  0.66688  1.0000
  Hf  Hf83      1.0  0.09276  0.60554  0.16710  1.0000
  Hf  Hf84      1.0  0.09077  0.60556  0.66624  1.0000
  Hf  Hf85      1.0  0.34177  0.11642  0.16178  1.0000
  Hf  Hf86      1.0  0.34141  0.11612  0.66387  1.0000
  Hf  Hf87      1.0  0.34118  0.61014  0.16628  1.0000
  Hf  Hf88      1.0  0.34423  0.60878  0.66769  1.0000
  Hf  Hf89      1.0  0.58959  0.11428  0.16598  1.0000
  Hf  Hf90      1.0  0.59474  0.11259  0.66273  1.0000
  Hf  Hf91      1.0  0.59065  0.60983  0.16906  1.0000
  Hf  Hf92      1.0  0.59055  0.61401  0.67081  1.0000
  Hf  Hf93      1.0  0.83562  0.10988  0.17222  1.0000
  Hf  Hf94      1.0  0.84263  0.11862  0.66172  1.0000
  Hf  Hf95      1.0  0.84139  0.61397  0.16669  1.0000
  Hf  Hf96      1.0  0.83948  0.61804  0.66528  1.0000
  F   F1        1.0  0.07491  0.11514  0.31616  1.0000
  F   F2        1.0  0.08135  0.11708  0.80436  1.0000
  F   F3        1.0  0.07313  0.60940  0.31452  1.0000
  F   F4        1.0  0.07961  0.63700  0.80241  1.0000
  F   F5        1.0  0.33357  0.12153  0.31266  1.0000
  F   F6        1.0  0.32555  0.12305  0.80975  1.0000
  F   F7        1.0  0.33067  0.63583  0.28993  1.0000
  F   F8        1.0  0.32966  0.61607  0.80444  1.0000
  F   F9        1.0  0.57267  0.11750  0.31831  1.0000
  F   F10       1.0  0.58272  0.14009  0.79065  1.0000
  F   F11       1.0  0.57526  0.60781  0.31494  1.0000
  F   F12       1.0  0.57967  0.63633  0.80439  1.0000
  F   F13       1.0  0.82460  0.12633  0.30254  1.0000
  F   F14       1.0  0.82874  0.12549  0.80176  1.0000
  F   F15       1.0  0.83200  0.63555  0.29654  1.0000
  F   F16       1.0  0.82625  0.64349  0.79837  1.0000
  F   F17       1.0  0.18895  0.34077  0.44141  1.0000
  F   F18       1.0  0.18542  0.34447  0.95518  1.0000
  F   F19       1.0  0.19449  0.85137  0.42849  1.0000
  F   F20       1.0  0.18515  0.83780  0.95265  1.0000
  F   F21       1.0  0.44343  0.35072  0.43928  1.0000
  F   F22       1.0  0.43067  0.33050  0.95598  1.0000
  F   F23       1.0  0.43834  0.83569  0.44725  1.0000
  F   F24       1.0  0.44088  0.84419  0.94371  1.0000
  F   F25       1.0  0.68648  0.32823  0.44985  1.0000
  F   F26       1.0  0.67829  0.32571  0.95721  1.0000
  F   F27       1.0  0.68071  0.83418  0.45349  1.0000
  F   F28       1.0  0.68257  0.84353  0.94448  1.0000
  F   F29       1.0  0.94027  0.32853  0.44601  1.0000
  F   F30       1.0  0.93312  0.34392  0.94807  1.0000
  F   F31       1.0  0.93478  0.85021  0.44117  1.0000
  F   F32       1.0  0.93353  0.83940  0.94655  1.0000
  F   F33       1.0  0.16317  0.34752  0.21440  1.0000
  F   F34       1.0  0.17271  0.37292  0.70104  1.0000
  F   F35       1.0  0.17680  0.88268  0.18526  1.0000
  F   F36       1.0  0.17213  0.86435  0.69975  1.0000
  F   F37       1.0  0.42309  0.36840  0.19886  1.0000
  F   F38       1.0  0.42009  0.35679  0.70674  1.0000
  F   F39       1.0  0.42228  0.87226  0.19637  1.0000
  F   F40       1.0  0.42319  0.86537  0.70339  1.0000
  F   F41       1.0  0.66991  0.36777  0.19503  1.0000
  F   F42       1.0  0.67082  0.37267  0.69767  1.0000
  F   F43       1.0  0.66520  0.88973  0.18707  1.0000
  F   F44       1.0  0.67014  0.87267  0.70071  1.0000
  F   F45       1.0  0.91975  0.37467  0.19586  1.0000
  F   F46       1.0  0.92334  0.39546  0.68055  1.0000
  F   F47       1.0  0.92570  0.89998  0.17822  1.0000
  F   F48       1.0  0.92161  0.87905  0.69450  1.0000
  F   F49       1.0  0.06022  0.17202  0.04724  1.0000
  F   F50       1.0  0.06498  0.14327  0.56292  1.0000
  F   F51       1.0  0.05974  0.64860  0.05491  1.0000
  F   F52       1.0  0.05952  0.65283  0.55340  1.0000
  F   F53       1.0  0.31689  0.17431  0.04413  1.0000
  F   F54       1.0  0.31366  0.16331  0.55522  1.0000
  F   F55       1.0  0.31949  0.66898  0.04572  1.0000
  F   F56       1.0  0.31434  0.66902  0.54913  1.0000
  F   F57       1.0  0.56266  0.15958  0.05256  1.0000
  F   F58       1.0  0.56143  0.16405  0.55095  1.0000
  F   F59       1.0  0.55812  0.65454  0.06111  1.0000
  F   F60       1.0  0.56446  0.66092  0.55813  1.0000
  F   F61       1.0  0.81349  0.15153  0.05000  1.0000
  F   F62       1.0  0.81794  0.15394  0.55282  1.0000
  F   F63       1.0  0.81457  0.66164  0.05289  1.0000
  F   F64       1.0  0.81937  0.66914  0.54326  1.0000
  F   F65       1.0  0.21037  0.19689  0.20725  1.0000
  F   F66       1.0  0.20993  0.21707  0.71711  1.0000
  F   F67       1.0  0.20709  0.70604  0.20958  1.0000
  F   F68       1.0  0.20516  0.69933  0.71122  1.0000
  F   F69       1.0  0.46190  0.20383  0.20724  1.0000
  F   F70       1.0  0.45138  0.19717  0.70828  1.0000
  F   F71       1.0  0.45366  0.69425  0.20679  1.0000
  F   F72       1.0  0.45742  0.71096  0.71282  1.0000
  F   F73       1.0  0.71086  0.20593  0.20232  1.0000
  F   F74       1.0  0.70340  0.19488  0.71856  1.0000
  F   F75       1.0  0.69825  0.70589  0.21191  1.0000
  F   F76       1.0  0.69356  0.69153  0.71754  1.0000
  F   F77       1.0  0.95692  0.20281  0.21075  1.0000
  F   F78       1.0  0.95457  0.20085  0.70306  1.0000
  F   F79       1.0  0.95061  0.70063  0.21081  1.0000
  F   F80       1.0  0.94666  0.70590  0.71049  1.0000
  F   F81       1.0  0.14926  0.11599  0.03555  1.0000
  F   F82       1.0  0.15002  0.09203  0.54094  1.0000
  F   F83       1.0  0.15331  0.60465  0.03566  1.0000
  F   F84       1.0  0.14761  0.57168  0.54081  1.0000
  F   F85       1.0  0.40177  0.10505  0.03132  1.0000
  F   F86       1.0  0.39825  0.08962  0.54742  1.0000
  F   F87       1.0  0.39907  0.57814  0.03950  1.0000
  F   F88       1.0  0.40251  0.60924  0.53520  1.0000
  F   F89       1.0  0.64874  0.08950  0.04595  1.0000
  F   F90       1.0  0.65008  0.10042  0.53573  1.0000
  F   F91       1.0  0.65252  0.59094  0.04126  1.0000
  F   F92       1.0  0.65343  0.59959  0.53800  1.0000
  F   F93       1.0  0.89629  0.08997  0.04934  1.0000
  F   F94       1.0  0.89372  0.08433  0.53638  1.0000
  F   F95       1.0  0.89685  0.57829  0.04717  1.0000
  F   F96       1.0  0.89681  0.58945  0.54039  1.0000
  F   F97       1.0  0.15445  0.18943  0.14703  1.0000
  F   F98       1.0  0.16322  0.19217  0.62013  1.0000
  F   F99       1.0  0.14846  0.70073  0.13649  1.0000
  F   F100      1.0  0.15093  0.69145  0.61626  1.0000
  F   F101      1.0  0.40352  0.18334  0.13990  1.0000
  F   F102      1.0  0.40268  0.19874  0.62725  1.0000
  F   F103      1.0  0.40082  0.68596  0.11854  1.0000
  F   F104      1.0  0.39822  0.69782  0.62516  1.0000
  F   F105      1.0  0.64678  0.19305  0.13841  1.0000
  F   F106      1.0  0.65709  0.19429  0.63319  1.0000
  F   F107      1.0  0.64215  0.70163  0.12837  1.0000
  F   F108      1.0  0.64626  0.70004  0.62693  1.0000
  F   F109      1.0  0.89499  0.19915  0.14111  1.0000
  F   F110      1.0  0.90427  0.19536  0.61035  1.0000
  F   F111      1.0  0.90204  0.68918  0.11983  1.0000
  F   F112      1.0  0.89894  0.70850  0.61966  1.0000
  F   F113      1.0  0.09732  0.30717  0.38898  1.0000
  F   F114      1.0  0.09629  0.29607  0.86117  1.0000
  F   F115      1.0  0.10457  0.81036  0.37715  1.0000
  F   F116      1.0  0.09543  0.80071  0.87630  1.0000
  F   F117      1.0  0.35068  0.29815  0.36945  1.0000
  F   F118      1.0  0.34835  0.30872  0.87234  1.0000
  F   F119      1.0  0.35014  0.80932  0.36268  1.0000
  F   F120      1.0  0.34526  0.80756  0.88337  1.0000
  F   F121      1.0  0.60201  0.29829  0.38779  1.0000
  F   F122      1.0  0.59832  0.30066  0.86476  1.0000
  F   F123      1.0  0.59619  0.81183  0.37256  1.0000
  F   F124      1.0  0.59625  0.80626  0.88612  1.0000
  F   F125      1.0  0.85236  0.30463  0.37127  1.0000
  F   F126      1.0  0.84962  0.30039  0.87185  1.0000
  F   F127      1.0  0.84650  0.81715  0.35603  1.0000
  F   F128      1.0  0.85047  0.80254  0.87385  1.0000
  F   F129      1.0  0.06896  0.24683  0.13352  1.0000
  F   F130      1.0  0.07851  0.24553  0.62600  1.0000
  F   F131      1.0  0.07073  0.74715  0.12371  1.0000
  F   F132      1.0  0.06777  0.75404  0.63326  1.0000
  F   F133      1.0  0.31776  0.24825  0.15178  1.0000
  F   F134      1.0  0.31310  0.25003  0.64733  1.0000
  F   F135      1.0  0.32120  0.75739  0.12829  1.0000
  F   F136      1.0  0.31269  0.74655  0.65708  1.0000
  F   F137      1.0  0.55652  0.23746  0.16458  1.0000
  F   F138      1.0  0.57917  0.26313  0.62093  1.0000
  F   F139      1.0  0.55497  0.74446  0.15614  1.0000
  F   F140      1.0  0.56383  0.75658  0.64008  1.0000
  F   F141      1.0  0.81012  0.25139  0.14272  1.0000
  F   F142      1.0  0.81260  0.25871  0.64645  1.0000
  F   F143      1.0  0.81373  0.75431  0.13871  1.0000
  F   F144      1.0  0.80944  0.75267  0.64680  1.0000
  F   F145      1.0  0.12327  0.37857  0.10745  1.0000
  F   F146      1.0  0.12770  0.35459  0.62448  1.0000
  F   F147      1.0  0.12461  0.87479  0.09984  1.0000
  F   F148      1.0  0.12176  0.85883  0.62546  1.0000
  F   F149      1.0  0.38225  0.35536  0.11422  1.0000
  F   F150      1.0  0.37494  0.37631  0.59846  1.0000
  F   F151      1.0  0.37279  0.86669  0.11563  1.0000
  F   F152      1.0  0.37341  0.88237  0.60635  1.0000
  F   F153      1.0  0.62451  0.37156  0.10336  1.0000
  F   F154      1.0  0.63060  0.38399  0.59984  1.0000
  F   F155      1.0  0.61974  0.87453  0.10379  1.0000
  F   F156      1.0  0.62180  0.86931  0.61274  1.0000
  F   F157      1.0  0.87164  0.38549  0.10621  1.0000
  F   F158      1.0  0.87780  0.37235  0.60258  1.0000
  F   F159      1.0  0.87089  0.85493  0.12889  1.0000
  F   F160      1.0  0.87302  0.87510  0.60202  1.0000
  F   F161      1.0  0.18896  0.24283  0.35922  1.0000
  F   F162      1.0  0.17862  0.25486  0.86650  1.0000
  F   F163      1.0  0.18640  0.74838  0.35430  1.0000
  F   F164      1.0  0.18013  0.74713  0.86557  1.0000
  F   F165      1.0  0.43406  0.25332  0.36335  1.0000
  F   F166      1.0  0.44472  0.25441  0.84076  1.0000
  F   F167      1.0  0.43401  0.74521  0.35905  1.0000
  F   F168      1.0  0.42773  0.74207  0.87220  1.0000
  F   F169      1.0  0.68584  0.24882  0.35777  1.0000
  F   F170      1.0  0.68763  0.24921  0.85939  1.0000
  F   F171      1.0  0.68543  0.75414  0.35537  1.0000
  F   F172      1.0  0.68333  0.74745  0.85141  1.0000
  F   F173      1.0  0.93073  0.23672  0.37356  1.0000
  F   F174      1.0  0.93958  0.25066  0.85033  1.0000
  F   F175      1.0  0.93409  0.74687  0.36123  1.0000
  F   F176      1.0  0.93304  0.74086  0.86027  1.0000
  F   F177      1.0  0.13127  0.12331  0.38098  1.0000
  F   F178      1.0  0.12846  0.12617  0.88942  1.0000
  F   F179      1.0  0.12336  0.63205  0.39707  1.0000
  F   F180      1.0  0.12281  0.63304  0.88781  1.0000
  F   F181      1.0  0.37956  0.12877  0.38835  1.0000
  F   F182      1.0  0.37959  0.13568  0.88782  1.0000
  F   F183      1.0  0.37699  0.62832  0.38811  1.0000
  F   F184      1.0  0.37417  0.62712  0.88654  1.0000
  F   F185      1.0  0.62889  0.13943  0.37453  1.0000
  F   F186      1.0  0.62478  0.13575  0.88905  1.0000
  F   F187      1.0  0.62891  0.64688  0.38183  1.0000
  F   F188      1.0  0.62170  0.61902  0.91499  1.0000
  F   F189      1.0  0.87321  0.13389  0.38263  1.0000
  F   F190      1.0  0.87425  0.11656  0.89889  1.0000
  F   F191      1.0  0.87712  0.64223  0.38106  1.0000
  F   F192      1.0  0.87286  0.62464  0.89838  1.0000
  F   F193      1.0  0.00718  0.34529  0.08351  1.0000
  F   F194      1.0  0.01104  0.34261  0.58076  1.0000
  F   F195      1.0  0.00643  0.87013  0.06509  1.0000
  F   F196      1.0  0.00912  0.85764  0.57386  1.0000
  F   F197      1.0  0.25923  0.37178  0.06335  1.0000
  F   F198      1.0  0.26256  0.37371  0.56588  1.0000
  F   F199      1.0  0.25813  0.85672  0.07000  1.0000
  F   F200      1.0  0.26046  0.86365  0.56448  1.0000
  F   F201      1.0  0.50795  0.36856  0.07330  1.0000
  F   F202      1.0  0.51347  0.36505  0.57451  1.0000
  F   F203      1.0  0.50692  0.85422  0.06884  1.0000
  F   F204      1.0  0.50725  0.86680  0.56898  1.0000
  F   F205      1.0  0.76008  0.36917  0.05775  1.0000
  F   F206      1.0  0.75626  0.37315  0.57509  1.0000
  F   F207      1.0  0.74857  0.85218  0.09252  1.0000
  F   F208      1.0  0.75293  0.87593  0.56609  1.0000
  F   F209      1.0  0.06700  0.48652  0.18882  1.0000
  F   F210      1.0  0.07432  0.48457  0.65901  1.0000
  F   F211      1.0  0.07179  0.98837  0.16709  1.0000
  F   F212      1.0  0.06940  0.97633  0.68038  1.0000
  F   F213      1.0  0.32147  0.47932  0.17154  1.0000
  F   F214      1.0  0.32009  0.48676  0.66878  1.0000
  F   F215      1.0  0.32387  0.99565  0.15538  1.0000
  F   F216      1.0  0.31928  0.99057  0.68061  1.0000
  F   F217      1.0  0.57266  0.47741  0.18728  1.0000
  F   F218      1.0  0.57422  0.48965  0.66965  1.0000
  F   F219      1.0  0.56714  0.98549  0.16463  1.0000
  F   F220      1.0  0.56798  0.98672  0.68609  1.0000
  F   F221      1.0  0.80901  0.49246  0.18201  1.0000
  F   F222      1.0  0.81539  0.48593  0.68227  1.0000
  F   F223      1.0  0.81764  0.98197  0.17612  1.0000
  F   F224      1.0  0.82184  0.98383  0.68204  1.0000
  F   F225      1.0  0.23829  0.14055  0.43794  1.0000
  F   F226      1.0  0.23687  0.15925  0.91921  1.0000
  F   F227      1.0  0.24130  0.62678  0.43064  1.0000
  F   F228      1.0  0.24737  0.64047  0.90792  1.0000
  F   F229      1.0  0.48727  0.13961  0.43470  1.0000
  F   F230      1.0  0.49581  0.13610  0.91878  1.0000
  F   F231      1.0  0.49546  0.63729  0.42785  1.0000
  F   F232      1.0  0.49096  0.63046  0.93232  1.0000
  F   F233      1.0  0.74366  0.13383  0.43301  1.0000
  F   F234      1.0  0.74621  0.14566  0.91250  1.0000
  F   F235      1.0  0.74398  0.63876  0.43386  1.0000
  F   F236      1.0  0.74162  0.63815  0.92179  1.0000
  F   F237      1.0  0.99267  0.14166  0.42769  1.0000
  F   F238      1.0  0.99068  0.13180  0.93134  1.0000
  F   F239      1.0  0.98426  0.64054  0.43426  1.0000
  F   F240      1.0  0.98935  0.62892  0.93384  1.0000
  F   F241      1.0  0.18352  0.01179  0.32616  1.0000
  F   F242      1.0  0.18582  0.01012  0.82298  1.0000
  F   F243      1.0  0.18704  0.51506  0.31913  1.0000
  F   F244      1.0  0.17363  0.50660  0.84713  1.0000
  F   F245      1.0  0.42873  0.01068  0.31660  1.0000
  F   F246      1.0  0.43144  0.01859  0.82656  1.0000
  F   F247      1.0  0.43022  0.51154  0.33306  1.0000
  F   F248      1.0  0.43066  0.51539  0.82773  1.0000
  F   F249      1.0  0.67507  0.00812  0.33871  1.0000
  F   F250      1.0  0.67492  0.02179  0.83482  1.0000
  F   F251      1.0  0.68188  0.50855  0.32531  1.0000
  F   F252      1.0  0.68121  0.50929  0.82550  1.0000
  F   F253      1.0  0.93319  0.01962  0.31421  1.0000
  F   F254      1.0  0.93334  0.01338  0.82107  1.0000
  F   F255      1.0  0.93242  0.51473  0.32013  1.0000
  F   F256      1.0  0.93306  0.51431  0.82187  1.0000
  F   F257      1.0  0.99573  0.25676  0.98906  1.0000
  F   F258      1.0  0.00385  0.25306  0.48613  1.0000
  F   F259      1.0  0.99615  0.75384  0.00196  1.0000
  F   F260      1.0  0.99650  0.75773  0.48781  1.0000
  F   F261      1.0  0.25264  0.26318  0.99462  1.0000
  F   F262      1.0  0.25255  0.26231  0.49101  1.0000
  F   F263      1.0  0.24592  0.72757  0.01982  1.0000
  F   F264      1.0  0.24932  0.74624  0.50508  1.0000
  F   F265      1.0  0.50206  0.25372  0.98823  1.0000
  F   F266      1.0  0.50199  0.26419  0.49087  1.0000
  F   F267      1.0  0.49681  0.74434  0.00148  1.0000
  F   F268      1.0  0.49802  0.73086  0.51970  1.0000
  F   F269      1.0  0.75393  0.25890  0.98382  1.0000
  F   F270      1.0  0.76042  0.26542  0.49459  1.0000
  F   F271      1.0  0.74185  0.74429  0.00512  1.0000
  F   F272      1.0  0.75050  0.74903  0.51000  1.0000
  F   F273      1.0  0.12507  0.00031  0.24374  1.0000
  F   F274      1.0  0.13486  0.99872  0.73419  1.0000
  F   F275      1.0  0.13590  0.49494  0.23595  1.0000
  F   F276      1.0  0.11784  0.49640  0.75884  1.0000
  F   F277      1.0  0.37184  0.00738  0.24030  1.0000
  F   F278      1.0  0.37608  0.99939  0.75541  1.0000
  F   F279      1.0  0.37523  0.49572  0.25555  1.0000
  F   F280      1.0  0.38228  0.49921  0.73493  1.0000
  F   F281      1.0  0.61770  0.99768  0.25862  1.0000
  F   F282      1.0  0.62632  0.00561  0.75031  1.0000
  F   F283      1.0  0.63780  0.50368  0.23544  1.0000
  F   F284      1.0  0.62079  0.49860  0.76701  1.0000
  F   F285      1.0  0.87072  0.99954  0.24565  1.0000
  F   F286      1.0  0.87578  0.00296  0.74606  1.0000
  F   F287      1.0  0.87693  0.50270  0.25271  1.0000
  F   F288      1.0  0.87411  0.50529  0.74632  1.0000
  F   F289      1.0  0.04257  0.02425  0.02494  1.0000
  F   F290      1.0  0.04144  0.03036  0.52540  1.0000
  F   F291      1.0  0.04675  0.51518  0.02887  1.0000
  F   F292      1.0  0.04222  0.51798  0.52601  1.0000
  F   F293      1.0  0.29430  0.03472  0.01783  1.0000
  F   F294      1.0  0.29413  0.03156  0.53415  1.0000
  F   F295      1.0  0.29452  0.53962  0.03165  1.0000
  F   F296      1.0  0.29658  0.53636  0.51793  1.0000
  F   F297      1.0  0.54590  0.03667  0.01179  1.0000
  F   F298      1.0  0.54539  0.03462  0.52178  1.0000
  F   F299      1.0  0.54779  0.52674  0.01913  1.0000
  F   F300      1.0  0.54619  0.54179  0.52572  1.0000
  F   F301      1.0  0.78840  0.01872  0.02564  1.0000
  F   F302      1.0  0.79081  0.02819  0.53528  1.0000
  F   F303      1.0  0.78971  0.53949  0.01643  1.0000
  F   F304      1.0  0.79853  0.54045  0.52205  1.0000
  F   F305      1.0  0.23436  0.40794  0.21650  1.0000
  F   F306      1.0  0.23244  0.41399  0.73817  1.0000
  F   F307      1.0  0.23583  0.90917  0.22592  1.0000
  F   F308      1.0  0.23845  0.89303  0.73434  1.0000
  F   F309      1.0  0.48731  0.40910  0.22747  1.0000
  F   F310      1.0  0.48664  0.42259  0.72592  1.0000
  F   F311      1.0  0.48815  0.90719  0.22848  1.0000
  F   F312      1.0  0.48739  0.92992  0.71843  1.0000
  F   F313      1.0  0.73511  0.41094  0.21555  1.0000
  F   F314      1.0  0.73728  0.40410  0.72805  1.0000
  F   F315      1.0  0.72953  0.92408  0.23084  1.0000
  F   F316      1.0  0.73558  0.90924  0.73574  1.0000
  F   F317      1.0  0.98560  0.38877  0.23912  1.0000
  F   F318      1.0  0.99141  0.40419  0.73026  1.0000
  F   F319      1.0  0.98848  0.89775  0.24390  1.0000
  F   F320      1.0  0.98616  0.91437  0.72409  1.0000
  F   F321      1.0  0.20899  0.46146  0.47509  1.0000
  F   F322      1.0  0.20476  0.47572  0.98598  1.0000
  F   F323      1.0  0.20787  0.97324  0.48869  1.0000
  F   F324      1.0  0.20142  0.98708  0.98341  1.0000
  F   F325      1.0  0.46335  0.47984  0.47676  1.0000
  F   F326      1.0  0.46386  0.46338  0.96850  1.0000
  F   F327      1.0  0.44962  0.96669  0.48954  1.0000
  F   F328      1.0  0.44647  0.97351  0.98515  1.0000
  F   F329      1.0  0.71089  0.47009  0.46472  1.0000
  F   F330      1.0  0.71266  0.46673  0.96090  1.0000
  F   F331      1.0  0.70158  0.97352  0.48139  1.0000
  F   F332      1.0  0.70841  0.96528  0.98131  1.0000
  F   F333      1.0  0.96157  0.46393  0.47453  1.0000
  F   F334      1.0  0.95666  0.46952  0.98057  1.0000
  F   F335      1.0  0.95740  0.97146  0.48505  1.0000
  F   F336      1.0  0.95505  0.96540  0.98131  1.0000
  F   F337      1.0  0.01336  0.08175  0.27598  1.0000
  F   F338      1.0  0.01558  0.08694  0.77124  1.0000
  F   F339      1.0  0.01041  0.59818  0.26846  1.0000
  F   F340      1.0  0.01629  0.58202  0.76800  1.0000
  F   F341      1.0  0.27004  0.07869  0.27608  1.0000
  F   F342      1.0  0.26887  0.08610  0.77487  1.0000
  F   F343      1.0  0.26811  0.58965  0.26245  1.0000
  F   F344      1.0  0.26117  0.59372  0.75849  1.0000
  F   F345      1.0  0.50962  0.06710  0.28922  1.0000
  F   F346      1.0  0.51660  0.10808  0.75408  1.0000
  F   F347      1.0  0.51058  0.58341  0.26831  1.0000
  F   F348      1.0  0.51271  0.59675  0.77090  1.0000
  F   F349      1.0  0.76178  0.08623  0.27321  1.0000
  F   F350      1.0  0.76371  0.07930  0.77565  1.0000
  F   F351      1.0  0.76451  0.59808  0.27013  1.0000
  F   F352      1.0  0.76522  0.58020  0.77138  1.0000
  F   F353      1.0  0.10400  0.41228  0.46303  1.0000
  F   F354      1.0  0.09899  0.39143  0.95962  1.0000
  F   F355      1.0  0.10393  0.90584  0.46128  1.0000
  F   F356      1.0  0.10219  0.90435  0.95551  1.0000
  F   F357      1.0  0.35019  0.40296  0.46080  1.0000
  F   F358      1.0  0.35221  0.40824  0.96598  1.0000
  F   F359      1.0  0.34658  0.89128  0.46582  1.0000
  F   F360      1.0  0.35656  0.90958  0.96654  1.0000
  F   F361      1.0  0.60337  0.41960  0.46208  1.0000
  F   F362      1.0  0.59755  0.39281  0.97174  1.0000
  F   F363      1.0  0.59781  0.91009  0.46856  1.0000
  F   F364      1.0  0.60047  0.91543  0.95301  1.0000
  F   F365      1.0  0.84966  0.40754  0.46631  1.0000
  F   F366      1.0  0.85269  0.40404  0.95424  1.0000
  F   F367      1.0  0.85386  0.90866  0.44967  1.0000
  F   F368      1.0  0.85342  0.91110  0.96141  1.0000
  F   F369      1.0  0.05146  0.28809  0.28188  1.0000
  F   F370      1.0  0.05206  0.27467  0.78016  1.0000
  F   F371      1.0  0.05232  0.78296  0.28961  1.0000
  F   F372      1.0  0.04074  0.79923  0.78710  1.0000
  F   F373      1.0  0.29099  0.30342  0.29143  1.0000
  F   F374      1.0  0.29530  0.30575  0.79169  1.0000
  F   F375      1.0  0.29763  0.79546  0.28478  1.0000
  F   F376      1.0  0.30736  0.80398  0.77947  1.0000
  F   F377      1.0  0.54650  0.29539  0.29451  1.0000
  F   F378      1.0  0.55127  0.30115  0.77352  1.0000
  F   F379      1.0  0.54989  0.79585  0.28959  1.0000
  F   F380      1.0  0.54443  0.80597  0.79469  1.0000
  F   F381      1.0  0.80051  0.29915  0.28298  1.0000
  F   F382      1.0  0.80239  0.29515  0.78511  1.0000
  F   F383      1.0  0.78890  0.79441  0.28918  1.0000
  F   F384      1.0  0.79691  0.80328  0.79385  1.0000
