data_image0
_chemical_formula_structural       Hf96F384
_chemical_formula_sum              "Hf96 F384"
_cell_length_a       31.053
_cell_length_b       15.5229
_cell_length_c       15.5163
_cell_angle_alpha    63.342
_cell_angle_beta     63.342
_cell_angle_gamma    80.1625

_space_group_name_H-M_alt    "P 1"
_space_group_IT_number       1

loop_
  _space_group_symop_operation_xyz
  'x, y, z'

loop_
  _atom_site_type_symbol
  _atom_site_label
  _atom_site_symmetry_multiplicity
  _atom_site_fract_x
  _atom_site_fract_y
  _atom_site_fract_z
  _atom_site_occupancy
  Hf  Hf1       1.0  0.19567  0.09672  0.37533  1.0000
  Hf  Hf2       1.0  0.19504  0.10239  0.87786  1.0000
  Hf  Hf3       1.0  0.19730  0.60805  0.37762  1.0000
  Hf  Hf4       1.0  0.19679  0.60723  0.87294  1.0000
  Hf  Hf5       1.0  0.44510  0.10316  0.38075  1.0000
  Hf  Hf6       1.0  0.44496  0.11151  0.86803  1.0000
  Hf  Hf7       1.0  0.44620  0.60629  0.37375  1.0000
  Hf  Hf8       1.0  0.44658  0.60520  0.87389  1.0000
  Hf  Hf9       1.0  0.69801  0.11124  0.36747  1.0000
  Hf  Hf10      1.0  0.69910  0.10825  0.87608  1.0000
  Hf  Hf11      1.0  0.69697  0.60520  0.38285  1.0000
  Hf  Hf12      1.0  0.69674  0.61165  0.87502  1.0000
  Hf  Hf13      1.0  0.94583  0.11083  0.37668  1.0000
  Hf  Hf14      1.0  0.94870  0.11422  0.86652  1.0000
  Hf  Hf15      1.0  0.94955  0.61251  0.36423  1.0000
  Hf  Hf16      1.0  0.94333  0.61186  0.87805  1.0000
  Hf  Hf17      1.0  0.04878  0.39773  0.13095  1.0000
  Hf  Hf18      1.0  0.05801  0.38883  0.62388  1.0000
  Hf  Hf19      1.0  0.05523  0.89827  0.11422  1.0000
  Hf  Hf20      1.0  0.05494  0.89010  0.62912  1.0000
  Hf  Hf21      1.0  0.30147  0.38687  0.13338  1.0000
  Hf  Hf22      1.0  0.29979  0.39502  0.63280  1.0000
  Hf  Hf23      1.0  0.30460  0.89581  0.12513  1.0000
  Hf  Hf24      1.0  0.30222  0.88807  0.63500  1.0000
  Hf  Hf25      1.0  0.55239  0.38972  0.12656  1.0000
  Hf  Hf26      1.0  0.55021  0.38756  0.62188  1.0000
  Hf  Hf27      1.0  0.55477  0.89708  0.12092  1.0000
  Hf  Hf28      1.0  0.55349  0.89308  0.61652  1.0000
  Hf  Hf29      1.0  0.80292  0.38990  0.13158  1.0000
  Hf  Hf30      1.0  0.80876  0.39587  0.62436  1.0000
  Hf  Hf31      1.0  0.79818  0.89735  0.13649  1.0000
  Hf  Hf32      1.0  0.80252  0.89802  0.62576  1.0000
  Hf  Hf33      1.0  0.05632  0.18599  0.41305  1.0000
  Hf  Hf34      1.0  0.05789  0.17801  0.90850  1.0000
  Hf  Hf35      1.0  0.05794  0.68974  0.41093  1.0000
  Hf  Hf36      1.0  0.05386  0.68204  0.92510  1.0000
  Hf  Hf37      1.0  0.31008  0.17858  0.41548  1.0000
  Hf  Hf38      1.0  0.30345  0.17667  0.91907  1.0000
  Hf  Hf39      1.0  0.30690  0.68030  0.41763  1.0000
  Hf  Hf40      1.0  0.30449  0.68034  0.92438  1.0000
  Hf  Hf41      1.0  0.55692  0.18805  0.41497  1.0000
  Hf  Hf42      1.0  0.55698  0.18250  0.91235  1.0000
  Hf  Hf43      1.0  0.55435  0.67677  0.41733  1.0000
  Hf  Hf44      1.0  0.55896  0.68978  0.90582  1.0000
  Hf  Hf45      1.0  0.80646  0.18025  0.41501  1.0000
  Hf  Hf46      1.0  0.80988  0.19007  0.91315  1.0000
  Hf  Hf47      1.0  0.80367  0.69798  0.41070  1.0000
  Hf  Hf48      1.0  0.80696  0.67809  0.91838  1.0000
  Hf  Hf49      1.0  0.15658  0.37931  0.33877  1.0000
  Hf  Hf50      1.0  0.15904  0.38103  0.83248  1.0000
  Hf  Hf51      1.0  0.15788  0.88134  0.34133  1.0000
  Hf  Hf52      1.0  0.16089  0.88572  0.82901  1.0000
  Hf  Hf53      1.0  0.40413  0.38823  0.33854  1.0000
  Hf  Hf54      1.0  0.40836  0.38623  0.83484  1.0000
  Hf  Hf55      1.0  0.40625  0.87618  0.34082  1.0000
  Hf  Hf56      1.0  0.41127  0.89342  0.83138  1.0000
  Hf  Hf57      1.0  0.65787  0.39350  0.33450  1.0000
  Hf  Hf58      1.0  0.66018  0.38744  0.83747  1.0000
  Hf  Hf59      1.0  0.65652  0.88374  0.33477  1.0000
  Hf  Hf60      1.0  0.65898  0.89260  0.83254  1.0000
  Hf  Hf61      1.0  0.90852  0.39375  0.32966  1.0000
  Hf  Hf62      1.0  0.91111  0.39001  0.83082  1.0000
  Hf  Hf63      1.0  0.91066  0.88997  0.32732  1.0000
  Hf  Hf64      1.0  0.90621  0.89370  0.83369  1.0000
  Hf  Hf65      1.0  0.19152  0.31792  0.08608  1.0000
  Hf  Hf66      1.0  0.19489  0.31685  0.57998  1.0000
  Hf  Hf67      1.0  0.19172  0.81181  0.09035  1.0000
  Hf  Hf68      1.0  0.19637  0.81412  0.58851  1.0000
  Hf  Hf69      1.0  0.44038  0.31830  0.09087  1.0000
  Hf  Hf70      1.0  0.43790  0.30702  0.58986  1.0000
  Hf  Hf71      1.0  0.44260  0.81892  0.08378  1.0000
  Hf  Hf72      1.0  0.44426  0.81256  0.58378  1.0000
  Hf  Hf73      1.0  0.69300  0.31978  0.08719  1.0000
  Hf  Hf74      1.0  0.69353  0.31615  0.58583  1.0000
  Hf  Hf75      1.0  0.69432  0.82088  0.08724  1.0000
  Hf  Hf76      1.0  0.69042  0.81876  0.59093  1.0000
  Hf  Hf77      1.0  0.94600  0.31977  0.08108  1.0000
  Hf  Hf78      1.0  0.94792  0.31800  0.57117  1.0000
  Hf  Hf79      1.0  0.94487  0.82502  0.07474  1.0000
  Hf  Hf80      1.0  0.94656  0.82931  0.57333  1.0000
  Hf  Hf81      1.0  0.08996  0.11266  0.16358  1.0000
  Hf  Hf82      1.0  0.09127  0.11302  0.65939  1.0000
  Hf  Hf83      1.0  0.09141  0.61292  0.16293  1.0000
  Hf  Hf84      1.0  0.09346  0.61538  0.66259  1.0000
  Hf  Hf85      1.0  0.34182  0.10391  0.17079  1.0000
  Hf  Hf86      1.0  0.34171  0.10519  0.66668  1.0000
  Hf  Hf87      1.0  0.34133  0.61472  0.16315  1.0000
  Hf  Hf88      1.0  0.34227  0.60764  0.67265  1.0000
  Hf  Hf89      1.0  0.59405  0.10976  0.16387  1.0000
  Hf  Hf90      1.0  0.58877  0.10921  0.67203  1.0000
  Hf  Hf91      1.0  0.59196  0.61077  0.16399  1.0000
  Hf  Hf92      1.0  0.58726  0.59716  0.67344  1.0000
  Hf  Hf93      1.0  0.84674  0.12381  0.15548  1.0000
  Hf  Hf94      1.0  0.84351  0.11745  0.65995  1.0000
  Hf  Hf95      1.0  0.83900  0.61551  0.17183  1.0000
  Hf  Hf96      1.0  0.84186  0.61908  0.65651  1.0000
  F   F1        1.0  0.07248  0.12915  0.31164  1.0000
  F   F2        1.0  0.07857  0.10365  0.80753  1.0000
  F   F3        1.0  0.07047  0.63427  0.30174  1.0000
  F   F4        1.0  0.08475  0.64112  0.79595  1.0000
  F   F5        1.0  0.33451  0.12941  0.30563  1.0000
  F   F6        1.0  0.32183  0.12924  0.80436  1.0000
  F   F7        1.0  0.32606  0.62041  0.30804  1.0000
  F   F8        1.0  0.32730  0.62975  0.80409  1.0000
  F   F9        1.0  0.57743  0.12605  0.30737  1.0000
  F   F10       1.0  0.57543  0.11880  0.80697  1.0000
  F   F11       1.0  0.58126  0.62928  0.30266  1.0000
  F   F12       1.0  0.57547  0.62015  0.80375  1.0000
  F   F13       1.0  0.83018  0.13253  0.30065  1.0000
  F   F14       1.0  0.83316  0.15564  0.78784  1.0000
  F   F15       1.0  0.83245  0.64688  0.29185  1.0000
  F   F16       1.0  0.83170  0.64125  0.79089  1.0000
  F   F17       1.0  0.19048  0.34833  0.44192  1.0000
  F   F18       1.0  0.18309  0.34157  0.94244  1.0000
  F   F19       1.0  0.18884  0.83372  0.44820  1.0000
  F   F20       1.0  0.17859  0.82333  0.95516  1.0000
  F   F21       1.0  0.43336  0.33664  0.44935  1.0000
  F   F22       1.0  0.42974  0.33699  0.95556  1.0000
  F   F23       1.0  0.43481  0.83071  0.45857  1.0000
  F   F24       1.0  0.43031  0.83126  0.95015  1.0000
  F   F25       1.0  0.67742  0.32529  0.46650  1.0000
  F   F26       1.0  0.67938  0.33882  0.96073  1.0000
  F   F27       1.0  0.67878  0.83381  0.45780  1.0000
  F   F28       1.0  0.69294  0.85231  0.95075  1.0000
  F   F29       1.0  0.94228  0.34839  0.43659  1.0000
  F   F30       1.0  0.93419  0.32304  0.96160  1.0000
  F   F31       1.0  0.93897  0.83986  0.45038  1.0000
  F   F32       1.0  0.93572  0.84644  0.95092  1.0000
  F   F33       1.0  0.16506  0.37060  0.21089  1.0000
  F   F34       1.0  0.17836  0.38588  0.68037  1.0000
  F   F35       1.0  0.17359  0.86859  0.19705  1.0000
  F   F36       1.0  0.17787  0.86499  0.69760  1.0000
  F   F37       1.0  0.42369  0.39090  0.18877  1.0000
  F   F38       1.0  0.41287  0.35854  0.71048  1.0000
  F   F39       1.0  0.42384  0.87482  0.19532  1.0000
  F   F40       1.0  0.42192  0.88830  0.68880  1.0000
  F   F41       1.0  0.67485  0.38824  0.18386  1.0000
  F   F42       1.0  0.67531  0.37175  0.70104  1.0000
  F   F43       1.0  0.66810  0.88072  0.19812  1.0000
  F   F44       1.0  0.67397  0.85615  0.71045  1.0000
  F   F45       1.0  0.92229  0.37676  0.19389  1.0000
  F   F46       1.0  0.92355  0.38294  0.68608  1.0000
  F   F47       1.0  0.91707  0.86589  0.19651  1.0000
  F   F48       1.0  0.91882  0.87945  0.69098  1.0000
  F   F49       1.0  0.06256  0.16262  0.05670  1.0000
  F   F50       1.0  0.06190  0.15592  0.55775  1.0000
  F   F51       1.0  0.05536  0.65806  0.06658  1.0000
  F   F52       1.0  0.06222  0.64951  0.56676  1.0000
  F   F53       1.0  0.32069  0.15161  0.04965  1.0000
  F   F54       1.0  0.31585  0.14004  0.56105  1.0000
  F   F55       1.0  0.31223  0.64460  0.06866  1.0000
  F   F56       1.0  0.32308  0.66601  0.54746  1.0000
  F   F57       1.0  0.57124  0.15675  0.05307  1.0000
  F   F58       1.0  0.56677  0.16185  0.55160  1.0000
  F   F59       1.0  0.57262  0.67270  0.03523  1.0000
  F   F60       1.0  0.55627  0.65092  0.56083  1.0000
  F   F61       1.0  0.81427  0.14684  0.05678  1.0000
  F   F62       1.0  0.81410  0.16047  0.55759  1.0000
  F   F63       1.0  0.81555  0.66199  0.05863  1.0000
  F   F64       1.0  0.80616  0.66329  0.55046  1.0000
  F   F65       1.0  0.20457  0.20797  0.21258  1.0000
  F   F66       1.0  0.20044  0.18915  0.70740  1.0000
  F   F67       1.0  0.21239  0.70724  0.20968  1.0000
  F   F68       1.0  0.20172  0.69314  0.71598  1.0000
  F   F69       1.0  0.44741  0.20689  0.21871  1.0000
  F   F70       1.0  0.45252  0.20114  0.70785  1.0000
  F   F71       1.0  0.44250  0.69407  0.22198  1.0000
  F   F72       1.0  0.45188  0.70278  0.69954  1.0000
  F   F73       1.0  0.70151  0.21200  0.20936  1.0000
  F   F74       1.0  0.70928  0.20295  0.71270  1.0000
  F   F75       1.0  0.69849  0.70346  0.21389  1.0000
  F   F76       1.0  0.71502  0.70939  0.70917  1.0000
  F   F77       1.0  0.95823  0.21607  0.20716  1.0000
  F   F78       1.0  0.95311  0.20886  0.70280  1.0000
  F   F79       1.0  0.95646  0.70337  0.21047  1.0000
  F   F80       1.0  0.95203  0.69341  0.72289  1.0000
  F   F81       1.0  0.15000  0.09364  0.03776  1.0000
  F   F82       1.0  0.15149  0.07963  0.53710  1.0000
  F   F83       1.0  0.14908  0.60128  0.04789  1.0000
  F   F84       1.0  0.15706  0.59454  0.52485  1.0000
  F   F85       1.0  0.39675  0.08256  0.03516  1.0000
  F   F86       1.0  0.40374  0.08355  0.53658  1.0000
  F   F87       1.0  0.39969  0.58990  0.03016  1.0000
  F   F88       1.0  0.40115  0.56935  0.53700  1.0000
  F   F89       1.0  0.64681  0.07959  0.04012  1.0000
  F   F90       1.0  0.65146  0.09668  0.52904  1.0000
  F   F91       1.0  0.64994  0.57576  0.03783  1.0000
  F   F92       1.0  0.65088  0.60859  0.54578  1.0000
  F   F93       1.0  0.90160  0.10379  0.03494  1.0000
  F   F94       1.0  0.90584  0.07853  0.53178  1.0000
  F   F95       1.0  0.89699  0.60212  0.04427  1.0000
  F   F96       1.0  0.90059  0.59064  0.53732  1.0000
  F   F97       1.0  0.14786  0.20066  0.12807  1.0000
  F   F98       1.0  0.14703  0.19265  0.60470  1.0000
  F   F99       1.0  0.15554  0.68470  0.14343  1.0000
  F   F100      1.0  0.14928  0.69830  0.61854  1.0000
  F   F101      1.0  0.40402  0.18535  0.11865  1.0000
  F   F102      1.0  0.40449  0.18807  0.62582  1.0000
  F   F103      1.0  0.40175  0.68863  0.11606  1.0000
  F   F104      1.0  0.39777  0.68359  0.63728  1.0000
  F   F105      1.0  0.65592  0.18071  0.12328  1.0000
  F   F106      1.0  0.65041  0.19378  0.63076  1.0000
  F   F107      1.0  0.64828  0.68979  0.12586  1.0000
  F   F108      1.0  0.65219  0.70450  0.64985  1.0000
  F   F109      1.0  0.90010  0.20128  0.13610  1.0000
  F   F110      1.0  0.90051  0.19825  0.60062  1.0000
  F   F111      1.0  0.90879  0.70198  0.11891  1.0000
  F   F112      1.0  0.90581  0.70688  0.61344  1.0000
  F   F113      1.0  0.09302  0.30351  0.38141  1.0000
  F   F114      1.0  0.09726  0.30113  0.87465  1.0000
  F   F115      1.0  0.09422  0.80951  0.38073  1.0000
  F   F116      1.0  0.10519  0.80136  0.86496  1.0000
  F   F117      1.0  0.34736  0.29647  0.37081  1.0000
  F   F118      1.0  0.33662  0.29891  0.89091  1.0000
  F   F119      1.0  0.35347  0.79168  0.36489  1.0000
  F   F120      1.0  0.35130  0.80340  0.89381  1.0000
  F   F121      1.0  0.59965  0.31520  0.36652  1.0000
  F   F122      1.0  0.60032  0.29810  0.87071  1.0000
  F   F123      1.0  0.60581  0.79444  0.37094  1.0000
  F   F124      1.0  0.59432  0.81724  0.86946  1.0000
  F   F125      1.0  0.85069  0.31143  0.35172  1.0000
  F   F126      1.0  0.85185  0.30875  0.87704  1.0000
  F   F127      1.0  0.85142  0.80914  0.37555  1.0000
  F   F128      1.0  0.84866  0.79183  0.87148  1.0000
  F   F129      1.0  0.06349  0.25595  0.14540  1.0000
  F   F130      1.0  0.06133  0.24583  0.65782  1.0000
  F   F131      1.0  0.07018  0.75737  0.12781  1.0000
  F   F132      1.0  0.07347  0.75703  0.61775  1.0000
  F   F133      1.0  0.31663  0.24778  0.14609  1.0000
  F   F134      1.0  0.31923  0.24805  0.64251  1.0000
  F   F135      1.0  0.31266  0.75173  0.14150  1.0000
  F   F136      1.0  0.31358  0.75129  0.65469  1.0000
  F   F137      1.0  0.56469  0.24698  0.14982  1.0000
  F   F138      1.0  0.56236  0.24719  0.64562  1.0000
  F   F139      1.0  0.55844  0.75752  0.16062  1.0000
  F   F140      1.0  0.57090  0.75090  0.63338  1.0000
  F   F141      1.0  0.82741  0.26921  0.11734  1.0000
  F   F142      1.0  0.80821  0.25518  0.64582  1.0000
  F   F143      1.0  0.80546  0.75747  0.16489  1.0000
  F   F144      1.0  0.82634  0.75843  0.61764  1.0000
  F   F145      1.0  0.12102  0.35653  0.12923  1.0000
  F   F146      1.0  0.12127  0.33486  0.64183  1.0000
  F   F147      1.0  0.12287  0.86192  0.11294  1.0000
  F   F148      1.0  0.12922  0.87170  0.61146  1.0000
  F   F149      1.0  0.37334  0.34971  0.13078  1.0000
  F   F150      1.0  0.37351  0.36812  0.60632  1.0000
  F   F151      1.0  0.36848  0.84926  0.13391  1.0000
  F   F152      1.0  0.37432  0.87666  0.60301  1.0000
  F   F153      1.0  0.62356  0.36272  0.11927  1.0000
  F   F154      1.0  0.62517  0.37479  0.60674  1.0000
  F   F155      1.0  0.62359  0.86838  0.11393  1.0000
  F   F156      1.0  0.62974  0.89981  0.59201  1.0000
  F   F157      1.0  0.87514  0.37739  0.10895  1.0000
  F   F158      1.0  0.87469  0.34834  0.61049  1.0000
  F   F159      1.0  0.87075  0.88766  0.09899  1.0000
  F   F160      1.0  0.87474  0.90160  0.59900  1.0000
  F   F161      1.0  0.17946  0.24179  0.37172  1.0000
  F   F162      1.0  0.19021  0.24965  0.83991  1.0000
  F   F163      1.0  0.17568  0.74111  0.37499  1.0000
  F   F164      1.0  0.19818  0.75311  0.83399  1.0000
  F   F165      1.0  0.43272  0.25043  0.35978  1.0000
  F   F166      1.0  0.43260  0.24906  0.85408  1.0000
  F   F167      1.0  0.43159  0.74405  0.36354  1.0000
  F   F168      1.0  0.44355  0.74413  0.83494  1.0000
  F   F169      1.0  0.68789  0.25965  0.34604  1.0000
  F   F170      1.0  0.68915  0.24186  0.86457  1.0000
  F   F171      1.0  0.69785  0.74968  0.34096  1.0000
  F   F172      1.0  0.67618  0.74669  0.88414  1.0000
  F   F173      1.0  0.93239  0.25392  0.36201  1.0000
  F   F174      1.0  0.93890  0.25557  0.84494  1.0000
  F   F175      1.0  0.93778  0.75473  0.35964  1.0000
  F   F176      1.0  0.92689  0.75579  0.86960  1.0000
  F   F177      1.0  0.12605  0.14422  0.38044  1.0000
  F   F178      1.0  0.12602  0.12739  0.89700  1.0000
  F   F179      1.0  0.12756  0.64648  0.37233  1.0000
  F   F180      1.0  0.12569  0.61466  0.91178  1.0000
  F   F181      1.0  0.37734  0.11451  0.39585  1.0000
  F   F182      1.0  0.37755  0.13397  0.86837  1.0000
  F   F183      1.0  0.37124  0.61291  0.40674  1.0000
  F   F184      1.0  0.37208  0.62877  0.89512  1.0000
  F   F185      1.0  0.62369  0.14026  0.38279  1.0000
  F   F186      1.0  0.62734  0.13525  0.88303  1.0000
  F   F187      1.0  0.62289  0.62115  0.41984  1.0000
  F   F188      1.0  0.62979  0.66111  0.85675  1.0000
  F   F189      1.0  0.87458  0.13383  0.39233  1.0000
  F   F190      1.0  0.87855  0.12156  0.89975  1.0000
  F   F191      1.0  0.87768  0.64258  0.38131  1.0000
  F   F192      1.0  0.87211  0.60406  0.91427  1.0000
  F   F193      1.0  0.01013  0.36408  0.07452  1.0000
  F   F194      1.0  0.01160  0.35120  0.58193  1.0000
  F   F195      1.0  0.01313  0.87413  0.05510  1.0000
  F   F196      1.0  0.00729  0.86774  0.57480  1.0000
  F   F197      1.0  0.25383  0.36680  0.08341  1.0000
  F   F198      1.0  0.25802  0.33492  0.59461  1.0000
  F   F199      1.0  0.26188  0.85912  0.07512  1.0000
  F   F200      1.0  0.25519  0.84814  0.59064  1.0000
  F   F201      1.0  0.50912  0.36953  0.06524  1.0000
  F   F202      1.0  0.50530  0.35911  0.57013  1.0000
  F   F203      1.0  0.50310  0.84262  0.08774  1.0000
  F   F204      1.0  0.50574  0.85270  0.57387  1.0000
  F   F205      1.0  0.76081  0.36142  0.07218  1.0000
  F   F206      1.0  0.75533  0.36939  0.55601  1.0000
  F   F207      1.0  0.75446  0.86049  0.07701  1.0000
  F   F208      1.0  0.75813  0.87418  0.56592  1.0000
  F   F209      1.0  0.07491  0.48951  0.16928  1.0000
  F   F210      1.0  0.07311  0.48175  0.66565  1.0000
  F   F211      1.0  0.07750  0.98421  0.15633  1.0000
  F   F212      1.0  0.06658  0.98428  0.66902  1.0000
  F   F213      1.0  0.32742  0.48087  0.15363  1.0000
  F   F214      1.0  0.31453  0.48947  0.67883  1.0000
  F   F215      1.0  0.31604  0.98243  0.19205  1.0000
  F   F216      1.0  0.31550  0.98000  0.69340  1.0000
  F   F217      1.0  0.57142  0.49380  0.15556  1.0000
  F   F218      1.0  0.55870  0.48006  0.68472  1.0000
  F   F219      1.0  0.56412  0.98243  0.18197  1.0000
  F   F220      1.0  0.57107  0.99052  0.67327  1.0000
  F   F221      1.0  0.81476  0.48696  0.18463  1.0000
  F   F222      1.0  0.82150  0.48990  0.67097  1.0000
  F   F223      1.0  0.81229  0.98536  0.19268  1.0000
  F   F224      1.0  0.80873  0.98108  0.70139  1.0000
  F   F225      1.0  0.24613  0.12922  0.42138  1.0000
  F   F226      1.0  0.23672  0.13001  0.93968  1.0000
  F   F227      1.0  0.24245  0.63297  0.43693  1.0000
  F   F228      1.0  0.24126  0.63924  0.93650  1.0000
  F   F229      1.0  0.49311  0.13731  0.41801  1.0000
  F   F230      1.0  0.49139  0.13590  0.92492  1.0000
  F   F231      1.0  0.49392  0.63926  0.41144  1.0000
  F   F232      1.0  0.49075  0.64053  0.91658  1.0000
  F   F233      1.0  0.74508  0.12994  0.42091  1.0000
  F   F234      1.0  0.74817  0.13799  0.93557  1.0000
  F   F235      1.0  0.74805  0.61603  0.42780  1.0000
  F   F236      1.0  0.74520  0.63656  0.91517  1.0000
  F   F237      1.0  0.99131  0.14435  0.42191  1.0000
  F   F238      1.0  0.99441  0.14494  0.91534  1.0000
  F   F239      1.0  0.99294  0.63921  0.42624  1.0000
  F   F240      1.0  0.98598  0.65625  0.91982  1.0000
  F   F241      1.0  0.18178  0.00597  0.33088  1.0000
  F   F242      1.0  0.18154  0.01194  0.82440  1.0000
  F   F243      1.0  0.17566  0.51158  0.35342  1.0000
  F   F244      1.0  0.18355  0.52110  0.81952  1.0000
  F   F245      1.0  0.43514  0.00610  0.33169  1.0000
  F   F246      1.0  0.43607  0.01721  0.80997  1.0000
  F   F247      1.0  0.42687  0.52134  0.32133  1.0000
  F   F248      1.0  0.42535  0.51717  0.82088  1.0000
  F   F249      1.0  0.67388  0.01137  0.32597  1.0000
  F   F250      1.0  0.68372  0.01757  0.82143  1.0000
  F   F251      1.0  0.68080  0.51316  0.33661  1.0000
  F   F252      1.0  0.67690  0.51410  0.83810  1.0000
  F   F253      1.0  0.92952  0.02710  0.31296  1.0000
  F   F254      1.0  0.93735  0.01465  0.80552  1.0000
  F   F255      1.0  0.93202  0.50655  0.33220  1.0000
  F   F256      1.0  0.94474  0.50568  0.82646  1.0000
  F   F257      1.0  0.00185  0.24587  0.00065  1.0000
  F   F258      1.0  0.99962  0.23786  0.50698  1.0000
  F   F259      1.0  0.99450  0.74463  0.99947  1.0000
  F   F260      1.0  0.00293  0.74971  0.50132  1.0000
  F   F261      1.0  0.24944  0.24323  0.00596  1.0000
  F   F262      1.0  0.24761  0.23618  0.50634  1.0000
  F   F263      1.0  0.25269  0.76139  0.98484  1.0000
  F   F264      1.0  0.24535  0.72524  0.52307  1.0000
  F   F265      1.0  0.50408  0.25168  0.99823  1.0000
  F   F266      1.0  0.49582  0.24088  0.50514  1.0000
  F   F267      1.0  0.49793  0.73601  0.01174  1.0000
  F   F268      1.0  0.49781  0.74680  0.49938  1.0000
  F   F269      1.0  0.74943  0.25545  0.00317  1.0000
  F   F270      1.0  0.74787  0.25154  0.50176  1.0000
  F   F271      1.0  0.74649  0.72397  0.01843  1.0000
  F   F272      1.0  0.74265  0.74829  0.50086  1.0000
  F   F273      1.0  0.12629  0.01078  0.24158  1.0000
  F   F274      1.0  0.12718  0.99162  0.73835  1.0000
  F   F275      1.0  0.12386  0.50746  0.26410  1.0000
  F   F276      1.0  0.12339  0.49902  0.76051  1.0000
  F   F277      1.0  0.37645  0.99208  0.25740  1.0000
  F   F278      1.0  0.37619  0.00731  0.74966  1.0000
  F   F279      1.0  0.37190  0.50105  0.24987  1.0000
  F   F280      1.0  0.36983  0.48597  0.75478  1.0000
  F   F281      1.0  0.61884  0.99033  0.25754  1.0000
  F   F282      1.0  0.63495  0.00017  0.73665  1.0000
  F   F283      1.0  0.61939  0.50145  0.26326  1.0000
  F   F284      1.0  0.62740  0.49625  0.75129  1.0000
  F   F285      1.0  0.87722  0.00695  0.23601  1.0000
  F   F286      1.0  0.86624  0.99585  0.76377  1.0000
  F   F287      1.0  0.87420  0.50115  0.24959  1.0000
  F   F288      1.0  0.88449  0.51016  0.74100  1.0000
  F   F289      1.0  0.04005  0.03984  0.02634  1.0000
  F   F290      1.0  0.04441  0.04343  0.51632  1.0000
  F   F291      1.0  0.03835  0.53627  0.00870  1.0000
  F   F292      1.0  0.05057  0.52133  0.50969  1.0000
  F   F293      1.0  0.28851  0.03286  0.02339  1.0000
  F   F294      1.0  0.30049  0.01251  0.51900  1.0000
  F   F295      1.0  0.29037  0.53256  0.02647  1.0000
  F   F296      1.0  0.28380  0.52838  0.53335  1.0000
  F   F297      1.0  0.53707  0.03872  0.03128  1.0000
  F   F298      1.0  0.54538  0.02571  0.52262  1.0000
  F   F299      1.0  0.54617  0.54575  0.01346  1.0000
  F   F300      1.0  0.54913  0.53046  0.50466  1.0000
  F   F301      1.0  0.79848  0.03322  0.00630  1.0000
  F   F302      1.0  0.79409  0.03850  0.52315  1.0000
  F   F303      1.0  0.79014  0.53922  0.02927  1.0000
  F   F304      1.0  0.80006  0.52229  0.51045  1.0000
  F   F305      1.0  0.23608  0.41649  0.22835  1.0000
  F   F306      1.0  0.23034  0.42578  0.72681  1.0000
  F   F307      1.0  0.23329  0.91366  0.22734  1.0000
  F   F308      1.0  0.23436  0.91999  0.73115  1.0000
  F   F309      1.0  0.48560  0.40145  0.24517  1.0000
  F   F310      1.0  0.48066  0.40651  0.72494  1.0000
  F   F311      1.0  0.48655  0.90464  0.23148  1.0000
  F   F312      1.0  0.48680  0.90494  0.73699  1.0000
  F   F313      1.0  0.73496  0.41021  0.23745  1.0000
  F   F314      1.0  0.73727  0.41630  0.72667  1.0000
  F   F315      1.0  0.73205  0.92017  0.22789  1.0000
  F   F316      1.0  0.73204  0.92321  0.72107  1.0000
  F   F317      1.0  0.98876  0.44300  0.22557  1.0000
  F   F318      1.0  0.98461  0.41030  0.72291  1.0000
  F   F319      1.0  0.98598  0.91745  0.21857  1.0000
  F   F320      1.0  0.98831  0.89896  0.73700  1.0000
  F   F321      1.0  0.21021  0.46148  0.48680  1.0000
  F   F322      1.0  0.20168  0.47303  0.99249  1.0000
  F   F323      1.0  0.21716  0.96176  0.46490  1.0000
  F   F324      1.0  0.20682  0.95972  0.97876  1.0000
  F   F325      1.0  0.45467  0.46355  0.47055  1.0000
  F   F326      1.0  0.45692  0.46263  0.97019  1.0000
  F   F327      1.0  0.46338  0.96676  0.47486  1.0000
  F   F328      1.0  0.45925  0.96274  0.96356  1.0000
  F   F329      1.0  0.70047  0.46979  0.49684  1.0000
  F   F330      1.0  0.70733  0.46326  0.98022  1.0000
  F   F331      1.0  0.71188  0.97948  0.45390  1.0000
  F   F332      1.0  0.71093  0.97962  0.97733  1.0000
  F   F333      1.0  0.95993  0.46875  0.48551  1.0000
  F   F334      1.0  0.95579  0.47458  0.98803  1.0000
  F   F335      1.0  0.96209  0.97346  0.46099  1.0000
  F   F336      1.0  0.95604  0.97314  0.97092  1.0000
  F   F337      1.0  0.01608  0.07975  0.27332  1.0000
  F   F338      1.0  0.01800  0.09269  0.76695  1.0000
  F   F339      1.0  0.01382  0.58531  0.26992  1.0000
  F   F340      1.0  0.02080  0.58857  0.77134  1.0000
  F   F341      1.0  0.26575  0.09000  0.26633  1.0000
  F   F342      1.0  0.26253  0.08606  0.77215  1.0000
  F   F343      1.0  0.26630  0.58106  0.27789  1.0000
  F   F344      1.0  0.26535  0.59253  0.77700  1.0000
  F   F345      1.0  0.51540  0.07285  0.27650  1.0000
  F   F346      1.0  0.51307  0.07984  0.76781  1.0000
  F   F347      1.0  0.51921  0.57391  0.27351  1.0000
  F   F348      1.0  0.51111  0.58907  0.76438  1.0000
  F   F349      1.0  0.76392  0.11080  0.25177  1.0000
  F   F350      1.0  0.77065  0.09718  0.78198  1.0000
  F   F351      1.0  0.76370  0.57767  0.27496  1.0000
  F   F352      1.0  0.76510  0.58094  0.77398  1.0000
  F   F353      1.0  0.10073  0.39928  0.46296  1.0000
  F   F354      1.0  0.10143  0.39976  0.96028  1.0000
  F   F355      1.0  0.09935  0.91077  0.45171  1.0000
  F   F356      1.0  0.09759  0.91874  0.95192  1.0000
  F   F357      1.0  0.34854  0.40409  0.46370  1.0000
  F   F358      1.0  0.35061  0.39427  0.97169  1.0000
  F   F359      1.0  0.34583  0.89495  0.45631  1.0000
  F   F360      1.0  0.35578  0.92293  0.96102  1.0000
  F   F361      1.0  0.60073  0.40471  0.46213  1.0000
  F   F362      1.0  0.59696  0.39888  0.96647  1.0000
  F   F363      1.0  0.59564  0.91321  0.46532  1.0000
  F   F364      1.0  0.60360  0.92080  0.96599  1.0000
  F   F365      1.0  0.85458  0.40290  0.46047  1.0000
  F   F366      1.0  0.85621  0.41537  0.94962  1.0000
  F   F367      1.0  0.85505  0.92075  0.43712  1.0000
  F   F368      1.0  0.84606  0.88968  0.96219  1.0000
  F   F369      1.0  0.04089  0.29959  0.29364  1.0000
  F   F370      1.0  0.04493  0.30105  0.79877  1.0000
  F   F371      1.0  0.04557  0.80433  0.28728  1.0000
  F   F372      1.0  0.05015  0.79780  0.79681  1.0000
  F   F373      1.0  0.29296  0.29368  0.29598  1.0000
  F   F374      1.0  0.29359  0.29815  0.79312  1.0000
  F   F375      1.0  0.29063  0.79714  0.29062  1.0000
  F   F376      1.0  0.30677  0.79951  0.79224  1.0000
  F   F377      1.0  0.54382  0.29882  0.29421  1.0000
  F   F378      1.0  0.55008  0.29459  0.78476  1.0000
  F   F379      1.0  0.54847  0.80384  0.29189  1.0000
  F   F380      1.0  0.54999  0.79543  0.77235  1.0000
  F   F381      1.0  0.78702  0.28893  0.28086  1.0000
  F   F382      1.0  0.79937  0.31691  0.78526  1.0000
  F   F383      1.0  0.78963  0.81748  0.30406  1.0000
  F   F384      1.0  0.79234  0.79780  0.77668  1.0000
