data_image0
_chemical_formula_structural       Hf96F384
_chemical_formula_sum              "Hf96 F384"
_cell_length_a       31.0522
_cell_length_b       15.52
_cell_length_c       15.5168
_cell_angle_alpha    63.342
_cell_angle_beta     63.342
_cell_angle_gamma    80.1625

_space_group_name_H-M_alt    "P 1"
_space_group_IT_number       1

loop_
  _space_group_symop_operation_xyz
  'x, y, z'

loop_
  _atom_site_type_symbol
  _atom_site_label
  _atom_site_symmetry_multiplicity
  _atom_site_fract_x
  _atom_site_fract_y
  _atom_site_fract_z
  _atom_site_occupancy
  Hf  Hf1       1.0  0.19560  0.10913  0.36993  1.0000
  Hf  Hf2       1.0  0.19594  0.10541  0.88103  1.0000
  Hf  Hf3       1.0  0.19692  0.61029  0.37438  1.0000
  Hf  Hf4       1.0  0.19809  0.60968  0.87892  1.0000
  Hf  Hf5       1.0  0.44513  0.11453  0.37601  1.0000
  Hf  Hf6       1.0  0.44553  0.11887  0.87067  1.0000
  Hf  Hf7       1.0  0.45159  0.61389  0.36020  1.0000
  Hf  Hf8       1.0  0.44623  0.61408  0.87510  1.0000
  Hf  Hf9       1.0  0.69456  0.11262  0.37577  1.0000
  Hf  Hf10      1.0  0.69417  0.10016  0.88697  1.0000
  Hf  Hf11      1.0  0.69474  0.60824  0.37995  1.0000
  Hf  Hf12      1.0  0.69715  0.61005  0.87812  1.0000
  Hf  Hf13      1.0  0.94266  0.10527  0.37674  1.0000
  Hf  Hf14      1.0  0.95025  0.10465  0.86660  1.0000
  Hf  Hf15      1.0  0.94724  0.61000  0.37074  1.0000
  Hf  Hf16      1.0  0.95504  0.61037  0.85903  1.0000
  Hf  Hf17      1.0  0.05392  0.38945  0.12689  1.0000
  Hf  Hf18      1.0  0.05398  0.39350  0.61367  1.0000
  Hf  Hf19      1.0  0.05261  0.88426  0.12922  1.0000
  Hf  Hf20      1.0  0.05368  0.88957  0.62229  1.0000
  Hf  Hf21      1.0  0.30492  0.39578  0.11945  1.0000
  Hf  Hf22      1.0  0.30219  0.39980  0.62008  1.0000
  Hf  Hf23      1.0  0.30049  0.89163  0.13179  1.0000
  Hf  Hf24      1.0  0.29793  0.89741  0.62766  1.0000
  Hf  Hf25      1.0  0.55484  0.39709  0.12094  1.0000
  Hf  Hf26      1.0  0.55499  0.39438  0.62405  1.0000
  Hf  Hf27      1.0  0.55536  0.88933  0.12164  1.0000
  Hf  Hf28      1.0  0.55503  0.89390  0.62325  1.0000
  Hf  Hf29      1.0  0.80303  0.37632  0.12805  1.0000
  Hf  Hf30      1.0  0.80546  0.38376  0.62929  1.0000
  Hf  Hf31      1.0  0.80389  0.89089  0.12964  1.0000
  Hf  Hf32      1.0  0.80540  0.88636  0.63069  1.0000
  Hf  Hf33      1.0  0.05459  0.17440  0.41702  1.0000
  Hf  Hf34      1.0  0.05438  0.18278  0.91542  1.0000
  Hf  Hf35      1.0  0.05618  0.68007  0.40916  1.0000
  Hf  Hf36      1.0  0.05802  0.68023  0.92242  1.0000
  Hf  Hf37      1.0  0.30682  0.18848  0.41704  1.0000
  Hf  Hf38      1.0  0.30838  0.17997  0.91359  1.0000
  Hf  Hf39      1.0  0.30602  0.69146  0.41241  1.0000
  Hf  Hf40      1.0  0.30611  0.68645  0.91652  1.0000
  Hf  Hf41      1.0  0.55382  0.18104  0.41998  1.0000
  Hf  Hf42      1.0  0.55602  0.17927  0.91642  1.0000
  Hf  Hf43      1.0  0.55686  0.68786  0.41711  1.0000
  Hf  Hf44      1.0  0.55877  0.68153  0.91437  1.0000
  Hf  Hf45      1.0  0.80457  0.18232  0.41764  1.0000
  Hf  Hf46      1.0  0.80764  0.18861  0.91344  1.0000
  Hf  Hf47      1.0  0.80359  0.67340  0.42477  1.0000
  Hf  Hf48      1.0  0.81047  0.68461  0.91217  1.0000
  Hf  Hf49      1.0  0.16411  0.38821  0.32723  1.0000
  Hf  Hf50      1.0  0.15770  0.38992  0.82981  1.0000
  Hf  Hf51      1.0  0.15594  0.88242  0.33900  1.0000
  Hf  Hf52      1.0  0.15830  0.89068  0.83540  1.0000
  Hf  Hf53      1.0  0.40476  0.39317  0.33698  1.0000
  Hf  Hf54      1.0  0.40879  0.39644  0.82727  1.0000
  Hf  Hf55      1.0  0.41333  0.89551  0.32967  1.0000
  Hf  Hf56      1.0  0.41216  0.89827  0.82531  1.0000
  Hf  Hf57      1.0  0.66155  0.39327  0.33236  1.0000
  Hf  Hf58      1.0  0.65957  0.38120  0.83189  1.0000
  Hf  Hf59      1.0  0.65964  0.88737  0.33798  1.0000
  Hf  Hf60      1.0  0.66133  0.88752  0.83489  1.0000
  Hf  Hf61      1.0  0.90763  0.38645  0.33206  1.0000
  Hf  Hf62      1.0  0.91242  0.38766  0.83032  1.0000
  Hf  Hf63      1.0  0.90720  0.88110  0.33915  1.0000
  Hf  Hf64      1.0  0.90594  0.88245  0.84140  1.0000
  Hf  Hf65      1.0  0.19723  0.32178  0.07253  1.0000
  Hf  Hf66      1.0  0.19271  0.31954  0.57937  1.0000
  Hf  Hf67      1.0  0.19086  0.81855  0.09400  1.0000
  Hf  Hf68      1.0  0.19272  0.81755  0.58754  1.0000
  Hf  Hf69      1.0  0.44386  0.31346  0.08668  1.0000
  Hf  Hf70      1.0  0.44311  0.32245  0.58237  1.0000
  Hf  Hf71      1.0  0.44293  0.82396  0.07767  1.0000
  Hf  Hf72      1.0  0.44253  0.81740  0.58457  1.0000
  Hf  Hf73      1.0  0.69048  0.32636  0.08641  1.0000
  Hf  Hf74      1.0  0.69319  0.31112  0.58636  1.0000
  Hf  Hf75      1.0  0.69589  0.82065  0.08473  1.0000
  Hf  Hf76      1.0  0.69018  0.81698  0.59203  1.0000
  Hf  Hf77      1.0  0.94592  0.31772  0.07193  1.0000
  Hf  Hf78      1.0  0.94280  0.30880  0.58030  1.0000
  Hf  Hf79      1.0  0.94440  0.81579  0.08106  1.0000
  Hf  Hf80      1.0  0.94468  0.80977  0.58378  1.0000
  Hf  Hf81      1.0  0.09062  0.11373  0.16462  1.0000
  Hf  Hf82      1.0  0.08808  0.11118  0.66475  1.0000
  Hf  Hf83      1.0  0.09035  0.61044  0.17143  1.0000
  Hf  Hf84      1.0  0.09186  0.61925  0.65901  1.0000
  Hf  Hf85      1.0  0.34247  0.11059  0.16667  1.0000
  Hf  Hf86      1.0  0.33949  0.11434  0.66859  1.0000
  Hf  Hf87      1.0  0.34101  0.61815  0.16338  1.0000
  Hf  Hf88      1.0  0.34321  0.61939  0.66476  1.0000
  Hf  Hf89      1.0  0.59081  0.11141  0.16673  1.0000
  Hf  Hf90      1.0  0.59035  0.10558  0.67779  1.0000
  Hf  Hf91      1.0  0.58757  0.61398  0.17311  1.0000
  Hf  Hf92      1.0  0.59227  0.60849  0.66747  1.0000
  Hf  Hf93      1.0  0.84031  0.10845  0.16632  1.0000
  Hf  Hf94      1.0  0.84144  0.10664  0.67044  1.0000
  Hf  Hf95      1.0  0.83285  0.60129  0.17615  1.0000
  Hf  Hf96      1.0  0.84065  0.60477  0.67177  1.0000
  F   F1        1.0  0.07507  0.12690  0.30424  1.0000
  F   F2        1.0  0.07669  0.12064  0.80995  1.0000
  F   F3        1.0  0.07879  0.62284  0.30957  1.0000
  F   F4        1.0  0.07388  0.62877  0.80528  1.0000
  F   F5        1.0  0.33262  0.12789  0.30873  1.0000
  F   F6        1.0  0.33383  0.14594  0.79004  1.0000
  F   F7        1.0  0.33606  0.65341  0.28609  1.0000
  F   F8        1.0  0.33577  0.66223  0.78789  1.0000
  F   F9        1.0  0.58343  0.14373  0.29070  1.0000
  F   F10       1.0  0.57677  0.12174  0.80359  1.0000
  F   F11       1.0  0.57796  0.62355  0.31121  1.0000
  F   F12       1.0  0.57540  0.61763  0.81781  1.0000
  F   F13       1.0  0.82945  0.13671  0.29839  1.0000
  F   F14       1.0  0.83490  0.12234  0.80116  1.0000
  F   F15       1.0  0.82266  0.62568  0.31083  1.0000
  F   F16       1.0  0.83224  0.63080  0.80263  1.0000
  F   F17       1.0  0.18683  0.34059  0.44240  1.0000
  F   F18       1.0  0.18613  0.34908  0.94721  1.0000
  F   F19       1.0  0.18122  0.84037  0.45036  1.0000
  F   F20       1.0  0.17803  0.83599  0.96117  1.0000
  F   F21       1.0  0.43179  0.34372  0.45114  1.0000
  F   F22       1.0  0.44278  0.35726  0.93450  1.0000
  F   F23       1.0  0.44386  0.84465  0.43319  1.0000
  F   F24       1.0  0.44603  0.85488  0.92925  1.0000
  F   F25       1.0  0.68749  0.33503  0.44829  1.0000
  F   F26       1.0  0.68679  0.34331  0.94323  1.0000
  F   F27       1.0  0.68122  0.84324  0.44494  1.0000
  F   F28       1.0  0.68392  0.83344  0.96133  1.0000
  F   F29       1.0  0.93505  0.34494  0.44385  1.0000
  F   F30       1.0  0.94229  0.34655  0.93444  1.0000
  F   F31       1.0  0.94000  0.82844  0.44356  1.0000
  F   F32       1.0  0.92977  0.83703  0.95598  1.0000
  F   F33       1.0  0.16774  0.36939  0.19101  1.0000
  F   F34       1.0  0.16725  0.37328  0.69805  1.0000
  F   F35       1.0  0.16947  0.89389  0.18648  1.0000
  F   F36       1.0  0.16805  0.86964  0.70186  1.0000
  F   F37       1.0  0.41959  0.36881  0.21412  1.0000
  F   F38       1.0  0.41951  0.39359  0.69310  1.0000
  F   F39       1.0  0.42533  0.88274  0.18639  1.0000
  F   F40       1.0  0.42285  0.89278  0.68302  1.0000
  F   F41       1.0  0.67041  0.38624  0.18842  1.0000
  F   F42       1.0  0.66624  0.35707  0.70573  1.0000
  F   F43       1.0  0.67663  0.86351  0.20072  1.0000
  F   F44       1.0  0.66933  0.87189  0.69783  1.0000
  F   F45       1.0  0.92591  0.37611  0.18494  1.0000
  F   F46       1.0  0.92435  0.37182  0.69161  1.0000
  F   F47       1.0  0.92243  0.87810  0.18545  1.0000
  F   F48       1.0  0.90961  0.85605  0.70208  1.0000
  F   F49       1.0  0.06065  0.17051  0.05470  1.0000
  F   F50       1.0  0.06409  0.16047  0.54989  1.0000
  F   F51       1.0  0.05995  0.65602  0.06437  1.0000
  F   F52       1.0  0.07628  0.66615  0.52698  1.0000
  F   F53       1.0  0.31784  0.14980  0.05509  1.0000
  F   F54       1.0  0.30869  0.14288  0.56664  1.0000
  F   F55       1.0  0.30878  0.65200  0.05895  1.0000
  F   F56       1.0  0.31831  0.67210  0.53870  1.0000
  F   F57       1.0  0.56756  0.14952  0.05420  1.0000
  F   F58       1.0  0.56115  0.14925  0.56206  1.0000
  F   F59       1.0  0.56344  0.66122  0.05298  1.0000
  F   F60       1.0  0.56006  0.65646  0.56023  1.0000
  F   F61       1.0  0.81511  0.16743  0.04611  1.0000
  F   F62       1.0  0.80851  0.15046  0.55470  1.0000
  F   F63       1.0  0.80121  0.64693  0.07110  1.0000
  F   F64       1.0  0.80672  0.65064  0.56039  1.0000
  F   F65       1.0  0.20114  0.18708  0.21818  1.0000
  F   F66       1.0  0.20290  0.19979  0.70835  1.0000
  F   F67       1.0  0.21240  0.69348  0.20893  1.0000
  F   F68       1.0  0.20653  0.70319  0.70856  1.0000
  F   F69       1.0  0.44653  0.19163  0.21681  1.0000
  F   F70       1.0  0.45393  0.21254  0.70957  1.0000
  F   F71       1.0  0.44797  0.69745  0.20956  1.0000
  F   F72       1.0  0.44835  0.71411  0.71117  1.0000
  F   F73       1.0  0.69774  0.21121  0.20658  1.0000
  F   F74       1.0  0.70148  0.19055  0.72890  1.0000
  F   F75       1.0  0.69882  0.70024  0.22599  1.0000
  F   F76       1.0  0.70119  0.70692  0.71930  1.0000
  F   F77       1.0  0.94777  0.20107  0.21456  1.0000
  F   F78       1.0  0.96266  0.21469  0.70263  1.0000
  F   F79       1.0  0.96308  0.70773  0.21169  1.0000
  F   F80       1.0  0.96709  0.70029  0.70362  1.0000
  F   F81       1.0  0.15558  0.08849  0.04712  1.0000
  F   F82       1.0  0.14802  0.10187  0.53132  1.0000
  F   F83       1.0  0.14301  0.60100  0.03590  1.0000
  F   F84       1.0  0.15457  0.60019  0.53893  1.0000
  F   F85       1.0  0.39812  0.10226  0.02868  1.0000
  F   F86       1.0  0.40220  0.11514  0.53628  1.0000
  F   F87       1.0  0.39600  0.60124  0.04270  1.0000
  F   F88       1.0  0.40173  0.60225  0.53480  1.0000
  F   F89       1.0  0.65114  0.06677  0.04626  1.0000
  F   F90       1.0  0.65192  0.10297  0.53081  1.0000
  F   F91       1.0  0.65302  0.60903  0.03313  1.0000
  F   F92       1.0  0.65098  0.59368  0.55085  1.0000
  F   F93       1.0  0.90448  0.09181  0.04097  1.0000
  F   F94       1.0  0.89200  0.08627  0.53574  1.0000
  F   F95       1.0  0.89631  0.61567  0.05339  1.0000
  F   F96       1.0  0.89870  0.59896  0.53276  1.0000
  F   F97       1.0  0.14505  0.21066  0.12615  1.0000
  F   F98       1.0  0.14826  0.19936  0.61757  1.0000
  F   F99       1.0  0.15637  0.69208  0.12739  1.0000
  F   F100      1.0  0.14853  0.69851  0.63827  1.0000
  F   F101      1.0  0.40184  0.20343  0.11231  1.0000
  F   F102      1.0  0.40288  0.20230  0.64162  1.0000
  F   F103      1.0  0.40162  0.71798  0.10446  1.0000
  F   F104      1.0  0.40151  0.69549  0.61441  1.0000
  F   F105      1.0  0.64884  0.21138  0.10237  1.0000
  F   F106      1.0  0.65024  0.19262  0.62512  1.0000
  F   F107      1.0  0.64038  0.70555  0.13236  1.0000
  F   F108      1.0  0.65153  0.69733  0.64394  1.0000
  F   F109      1.0  0.90397  0.19993  0.11824  1.0000
  F   F110      1.0  0.90617  0.19129  0.62810  1.0000
  F   F111      1.0  0.89916  0.70614  0.15943  1.0000
  F   F112      1.0  0.90242  0.68645  0.62982  1.0000
  F   F113      1.0  0.09815  0.31404  0.38771  1.0000
  F   F114      1.0  0.10109  0.28981  0.87551  1.0000
  F   F115      1.0  0.09613  0.80114  0.36807  1.0000
  F   F116      1.0  0.10136  0.79106  0.88700  1.0000
  F   F117      1.0  0.34900  0.30536  0.38153  1.0000
  F   F118      1.0  0.34754  0.30276  0.87126  1.0000
  F   F119      1.0  0.34985  0.80820  0.36093  1.0000
  F   F120      1.0  0.35034  0.79733  0.86634  1.0000
  F   F121      1.0  0.60179  0.29367  0.38448  1.0000
  F   F122      1.0  0.59383  0.30606  0.87228  1.0000
  F   F123      1.0  0.60115  0.80024  0.35912  1.0000
  F   F124      1.0  0.59939  0.79976  0.86580  1.0000
  F   F125      1.0  0.84931  0.30213  0.36353  1.0000
  F   F126      1.0  0.84636  0.30565  0.85897  1.0000
  F   F127      1.0  0.84983  0.79099  0.37237  1.0000
  F   F128      1.0  0.84499  0.80220  0.88911  1.0000
  F   F129      1.0  0.06132  0.24681  0.15812  1.0000
  F   F130      1.0  0.06290  0.24695  0.64304  1.0000
  F   F131      1.0  0.06984  0.75687  0.12979  1.0000
  F   F132      1.0  0.05964  0.75255  0.63489  1.0000
  F   F133      1.0  0.32137  0.25693  0.13314  1.0000
  F   F134      1.0  0.32465  0.25803  0.62221  1.0000
  F   F135      1.0  0.30871  0.75324  0.14352  1.0000
  F   F136      1.0  0.31601  0.76067  0.63870  1.0000
  F   F137      1.0  0.56005  0.24381  0.14942  1.0000
  F   F138      1.0  0.56411  0.24728  0.64653  1.0000
  F   F139      1.0  0.55472  0.74932  0.15804  1.0000
  F   F140      1.0  0.57530  0.75428  0.62528  1.0000
  F   F141      1.0  0.81347  0.24159  0.14968  1.0000
  F   F142      1.0  0.82256  0.24026  0.63678  1.0000
  F   F143      1.0  0.82036  0.74707  0.13590  1.0000
  F   F144      1.0  0.81363  0.73740  0.65986  1.0000
  F   F145      1.0  0.12380  0.38493  0.10522  1.0000
  F   F146      1.0  0.12449  0.36521  0.60260  1.0000
  F   F147      1.0  0.12430  0.88438  0.09920  1.0000
  F   F148      1.0  0.12010  0.85803  0.61499  1.0000
  F   F149      1.0  0.37707  0.36426  0.11992  1.0000
  F   F150      1.0  0.37848  0.38679  0.60073  1.0000
  F   F151      1.0  0.37259  0.86485  0.11902  1.0000
  F   F152      1.0  0.38175  0.87424  0.59295  1.0000
  F   F153      1.0  0.62765  0.38747  0.08874  1.0000
  F   F154      1.0  0.62480  0.36570  0.61258  1.0000
  F   F155      1.0  0.62530  0.87837  0.10488  1.0000
  F   F156      1.0  0.62676  0.89324  0.59258  1.0000
  F   F157      1.0  0.87521  0.36551  0.10712  1.0000
  F   F158      1.0  0.87365  0.36194  0.61046  1.0000
  F   F159      1.0  0.87318  0.89467  0.10504  1.0000
  F   F160      1.0  0.87537  0.87629  0.58825  1.0000
  F   F161      1.0  0.18428  0.25385  0.35468  1.0000
  F   F162      1.0  0.18299  0.24921  0.86371  1.0000
  F   F163      1.0  0.18626  0.75476  0.34902  1.0000
  F   F164      1.0  0.19714  0.75356  0.84281  1.0000
  F   F165      1.0  0.44437  0.25065  0.35465  1.0000
  F   F166      1.0  0.43289  0.25781  0.86647  1.0000
  F   F167      1.0  0.44169  0.75606  0.33335  1.0000
  F   F168      1.0  0.42760  0.75659  0.86568  1.0000
  F   F169      1.0  0.68717  0.25659  0.35413  1.0000
  F   F170      1.0  0.67982  0.24442  0.87279  1.0000
  F   F171      1.0  0.67997  0.74322  0.37652  1.0000
  F   F172      1.0  0.68230  0.75438  0.85623  1.0000
  F   F173      1.0  0.92900  0.24771  0.36490  1.0000
  F   F174      1.0  0.92947  0.24186  0.87284  1.0000
  F   F175      1.0  0.93577  0.74630  0.35066  1.0000
  F   F176      1.0  0.94183  0.75705  0.84363  1.0000
  F   F177      1.0  0.12379  0.14166  0.38153  1.0000
  F   F178      1.0  0.12603  0.11250  0.89960  1.0000
  F   F179      1.0  0.12778  0.61782  0.38906  1.0000
  F   F180      1.0  0.12437  0.62925  0.89343  1.0000
  F   F181      1.0  0.37512  0.14074  0.39687  1.0000
  F   F182      1.0  0.37834  0.12584  0.88644  1.0000
  F   F183      1.0  0.37679  0.62513  0.39728  1.0000
  F   F184      1.0  0.37347  0.61410  0.90971  1.0000
  F   F185      1.0  0.62288  0.11671  0.39819  1.0000
  F   F186      1.0  0.62661  0.12810  0.88571  1.0000
  F   F187      1.0  0.62297  0.61050  0.40994  1.0000
  F   F188      1.0  0.62720  0.62628  0.89701  1.0000
  F   F189      1.0  0.87095  0.12358  0.38847  1.0000
  F   F190      1.0  0.87635  0.11840  0.89413  1.0000
  F   F191      1.0  0.87181  0.61399  0.40116  1.0000
  F   F192      1.0  0.88249  0.63245  0.88995  1.0000
  F   F193      1.0  0.01002  0.34514  0.07641  1.0000
  F   F194      1.0  0.01164  0.37028  0.54766  1.0000
  F   F195      1.0  0.01024  0.86946  0.06579  1.0000
  F   F196      1.0  0.00738  0.84837  0.57738  1.0000
  F   F197      1.0  0.25749  0.34489  0.08579  1.0000
  F   F198      1.0  0.25988  0.35565  0.58315  1.0000
  F   F199      1.0  0.25298  0.87216  0.08364  1.0000
  F   F200      1.0  0.25470  0.86004  0.58684  1.0000
  F   F201      1.0  0.50505  0.37157  0.07044  1.0000
  F   F202      1.0  0.50674  0.37577  0.56656  1.0000
  F   F203      1.0  0.50809  0.85373  0.07502  1.0000
  F   F204      1.0  0.51255  0.84897  0.57795  1.0000
  F   F205      1.0  0.75770  0.36736  0.07163  1.0000
  F   F206      1.0  0.75349  0.33580  0.59601  1.0000
  F   F207      1.0  0.76246  0.84975  0.08204  1.0000
  F   F208      1.0  0.75442  0.86660  0.59203  1.0000
  F   F209      1.0  0.06258  0.48101  0.18534  1.0000
  F   F210      1.0  0.07257  0.48926  0.65106  1.0000
  F   F211      1.0  0.07026  0.98046  0.17959  1.0000
  F   F212      1.0  0.07198  0.98508  0.66566  1.0000
  F   F213      1.0  0.31876  0.48874  0.16587  1.0000
  F   F214      1.0  0.31490  0.49472  0.65760  1.0000
  F   F215      1.0  0.32266  0.97614  0.17397  1.0000
  F   F216      1.0  0.31413  0.98150  0.67875  1.0000
  F   F217      1.0  0.57518  0.48356  0.16895  1.0000
  F   F218      1.0  0.57126  0.47807  0.68357  1.0000
  F   F219      1.0  0.55973  0.98081  0.18555  1.0000
  F   F220      1.0  0.56590  0.98470  0.67784  1.0000
  F   F221      1.0  0.82212  0.47328  0.17659  1.0000
  F   F222      1.0  0.82021  0.47482  0.68591  1.0000
  F   F223      1.0  0.81120  0.99128  0.18361  1.0000
  F   F224      1.0  0.81525  0.97597  0.69151  1.0000
  F   F225      1.0  0.24205  0.13420  0.42438  1.0000
  F   F226      1.0  0.24536  0.13033  0.92048  1.0000
  F   F227      1.0  0.23586  0.64645  0.42955  1.0000
  F   F228      1.0  0.24160  0.63581  0.94278  1.0000
  F   F229      1.0  0.49308  0.13487  0.42782  1.0000
  F   F230      1.0  0.49285  0.14204  0.92370  1.0000
  F   F231      1.0  0.49084  0.62922  0.42856  1.0000
  F   F232      1.0  0.49034  0.63629  0.93309  1.0000
  F   F233      1.0  0.74273  0.12617  0.43728  1.0000
  F   F234      1.0  0.74289  0.13754  0.93907  1.0000
  F   F235      1.0  0.74018  0.63298  0.44200  1.0000
  F   F236      1.0  0.74855  0.65430  0.91735  1.0000
  F   F237      1.0  0.98680  0.12702  0.44192  1.0000
  F   F238      1.0  0.99369  0.12154  0.92414  1.0000
  F   F239      1.0  0.98750  0.64462  0.42421  1.0000
  F   F240      1.0  0.98837  0.62981  0.93033  1.0000
  F   F241      1.0  0.17729  0.00683  0.32840  1.0000
  F   F242      1.0  0.17733  0.01336  0.83520  1.0000
  F   F243      1.0  0.18899  0.51725  0.30674  1.0000
  F   F244      1.0  0.18027  0.51184  0.82927  1.0000
  F   F245      1.0  0.42837  0.01588  0.33029  1.0000
  F   F246      1.0  0.43233  0.03073  0.81690  1.0000
  F   F247      1.0  0.42511  0.52163  0.32093  1.0000
  F   F248      1.0  0.43043  0.52621  0.81126  1.0000
  F   F249      1.0  0.68776  0.01388  0.32012  1.0000
  F   F250      1.0  0.68484  0.00756  0.83323  1.0000
  F   F251      1.0  0.68524  0.50817  0.32937  1.0000
  F   F252      1.0  0.67468  0.50984  0.84957  1.0000
  F   F253      1.0  0.93012  0.00197  0.34379  1.0000
  F   F254      1.0  0.93411  0.01732  0.81804  1.0000
  F   F255      1.0  0.93654  0.50665  0.32157  1.0000
  F   F256      1.0  0.93697  0.51813  0.81071  1.0000
  F   F257      1.0  0.99646  0.23806  0.99551  1.0000
  F   F258      1.0  0.99374  0.23983  0.49401  1.0000
  F   F259      1.0  0.00053  0.75952  0.98529  1.0000
  F   F260      1.0  0.00202  0.72949  0.51315  1.0000
  F   F261      1.0  0.25261  0.22741  0.01553  1.0000
  F   F262      1.0  0.25254  0.26932  0.48681  1.0000
  F   F263      1.0  0.24962  0.75819  0.00625  1.0000
  F   F264      1.0  0.24584  0.75506  0.50555  1.0000
  F   F265      1.0  0.50205  0.24032  0.00259  1.0000
  F   F266      1.0  0.49677  0.24503  0.51541  1.0000
  F   F267      1.0  0.50061  0.75040  0.99096  1.0000
  F   F268      1.0  0.49279  0.73673  0.51574  1.0000
  F   F269      1.0  0.75349  0.26322  0.99172  1.0000
  F   F270      1.0  0.74528  0.24461  0.51063  1.0000
  F   F271      1.0  0.74685  0.73909  0.01564  1.0000
  F   F272      1.0  0.75034  0.75762  0.50365  1.0000
  F   F273      1.0  0.11798  0.99971  0.25819  1.0000
  F   F274      1.0  0.13109  0.00394  0.73737  1.0000
  F   F275      1.0  0.13448  0.51030  0.22138  1.0000
  F   F276      1.0  0.11448  0.49205  0.76213  1.0000
  F   F277      1.0  0.37093  0.00203  0.25276  1.0000
  F   F278      1.0  0.37150  0.00137  0.75006  1.0000
  F   F279      1.0  0.37526  0.50941  0.24678  1.0000
  F   F280      1.0  0.36593  0.51057  0.76034  1.0000
  F   F281      1.0  0.62996  0.00258  0.24975  1.0000
  F   F282      1.0  0.62411  0.99932  0.75890  1.0000
  F   F283      1.0  0.62311  0.50180  0.25878  1.0000
  F   F284      1.0  0.62515  0.49320  0.75677  1.0000
  F   F285      1.0  0.87769  0.00339  0.25254  1.0000
  F   F286      1.0  0.87802  0.99069  0.74111  1.0000
  F   F287      1.0  0.87217  0.49716  0.24943  1.0000
  F   F288      1.0  0.87717  0.50351  0.75175  1.0000
  F   F289      1.0  0.03975  0.04045  0.03385  1.0000
  F   F290      1.0  0.04361  0.02213  0.51946  1.0000
  F   F291      1.0  0.04148  0.52667  0.02377  1.0000
  F   F292      1.0  0.03450  0.52883  0.52554  1.0000
  F   F293      1.0  0.30258  0.03487  0.00684  1.0000
  F   F294      1.0  0.29051  0.03319  0.51884  1.0000
  F   F295      1.0  0.29282  0.52070  0.01727  1.0000
  F   F296      1.0  0.28805  0.53677  0.50978  1.0000
  F   F297      1.0  0.54214  0.02752  0.02668  1.0000
  F   F298      1.0  0.54075  0.02241  0.52694  1.0000
  F   F299      1.0  0.54055  0.52784  0.02469  1.0000
  F   F300      1.0  0.54506  0.52760  0.52955  1.0000
  F   F301      1.0  0.79401  0.03599  0.02497  1.0000
  F   F302      1.0  0.79394  0.01503  0.52357  1.0000
  F   F303      1.0  0.80708  0.51845  0.00269  1.0000
  F   F304      1.0  0.79567  0.51178  0.53033  1.0000
  F   F305      1.0  0.23489  0.40666  0.23263  1.0000
  F   F306      1.0  0.23571  0.39600  0.73588  1.0000
  F   F307      1.0  0.23393  0.92901  0.22134  1.0000
  F   F308      1.0  0.22967  0.93534  0.71990  1.0000
  F   F309      1.0  0.48439  0.41567  0.23296  1.0000
  F   F310      1.0  0.48613  0.42027  0.72321  1.0000
  F   F311      1.0  0.48410  0.93005  0.22578  1.0000
  F   F312      1.0  0.48509  0.91029  0.72447  1.0000
  F   F313      1.0  0.73605  0.41305  0.22371  1.0000
  F   F314      1.0  0.73437  0.42550  0.72462  1.0000
  F   F315      1.0  0.73391  0.88447  0.24033  1.0000
  F   F316      1.0  0.73494  0.90942  0.73707  1.0000
  F   F317      1.0  0.98811  0.39595  0.23876  1.0000
  F   F318      1.0  0.98665  0.40201  0.72448  1.0000
  F   F319      1.0  0.98418  0.90537  0.23757  1.0000
  F   F320      1.0  0.98267  0.91037  0.72464  1.0000
  F   F321      1.0  0.20663  0.47019  0.49293  1.0000
  F   F322      1.0  0.21396  0.48277  0.97311  1.0000
  F   F323      1.0  0.20620  0.97553  0.47338  1.0000
  F   F324      1.0  0.21304  0.96228  0.96914  1.0000
  F   F325      1.0  0.45771  0.47485  0.45769  1.0000
  F   F326      1.0  0.45115  0.48594  0.98284  1.0000
  F   F327      1.0  0.46137  0.97586  0.47729  1.0000
  F   F328      1.0  0.45104  0.97473  0.98399  1.0000
  F   F329      1.0  0.70591  0.46428  0.48416  1.0000
  F   F330      1.0  0.71435  0.47379  0.97321  1.0000
  F   F331      1.0  0.71018  0.96090  0.47608  1.0000
  F   F332      1.0  0.71600  0.95781  0.97981  1.0000
  F   F333      1.0  0.95022  0.47421  0.48393  1.0000
  F   F334      1.0  0.95574  0.47347  0.96631  1.0000
  F   F335      1.0  0.96005  0.96836  0.47455  1.0000
  F   F336      1.0  0.95868  0.96409  0.96589  1.0000
  F   F337      1.0  0.01005  0.07505  0.28839  1.0000
  F   F338      1.0  0.01383  0.07856  0.76556  1.0000
  F   F339      1.0  0.01981  0.58047  0.27997  1.0000
  F   F340      1.0  0.02105  0.58947  0.74860  1.0000
  F   F341      1.0  0.27015  0.07855  0.25973  1.0000
  F   F342      1.0  0.26358  0.08524  0.77188  1.0000
  F   F343      1.0  0.26857  0.59429  0.26967  1.0000
  F   F344      1.0  0.26903  0.59384  0.77926  1.0000
  F   F345      1.0  0.51222  0.09088  0.28257  1.0000
  F   F346      1.0  0.51533  0.08252  0.77735  1.0000
  F   F347      1.0  0.51178  0.57524  0.26543  1.0000
  F   F348      1.0  0.51550  0.59577  0.77475  1.0000
  F   F349      1.0  0.76115  0.10857  0.26971  1.0000
  F   F350      1.0  0.76446  0.08429  0.79168  1.0000
  F   F351      1.0  0.75867  0.58722  0.27743  1.0000
  F   F352      1.0  0.76147  0.58024  0.77635  1.0000
  F   F353      1.0  0.10232  0.42486  0.46273  1.0000
  F   F354      1.0  0.10348  0.38363  0.96593  1.0000
  F   F355      1.0  0.09716  0.90938  0.45246  1.0000
  F   F356      1.0  0.10026  0.91274  0.95107  1.0000
  F   F357      1.0  0.34519  0.42256  0.46411  1.0000
  F   F358      1.0  0.35569  0.41678  0.96048  1.0000
  F   F359      1.0  0.35906  0.91437  0.45831  1.0000
  F   F360      1.0  0.35583  0.89865  0.96746  1.0000
  F   F361      1.0  0.60307  0.39303  0.46863  1.0000
  F   F362      1.0  0.59424  0.39522  0.96665  1.0000
  F   F363      1.0  0.60253  0.91990  0.44346  1.0000
  F   F364      1.0  0.59850  0.88392  0.96665  1.0000
  F   F365      1.0  0.85514  0.39153  0.46170  1.0000
  F   F366      1.0  0.85766  0.39245  0.95531  1.0000
  F   F367      1.0  0.85057  0.88317  0.46633  1.0000
  F   F368      1.0  0.85242  0.91397  0.95580  1.0000
  F   F369      1.0  0.05552  0.29140  0.29422  1.0000
  F   F370      1.0  0.04597  0.29424  0.77812  1.0000
  F   F371      1.0  0.05069  0.78456  0.27780  1.0000
  F   F372      1.0  0.04681  0.79181  0.78584  1.0000
  F   F373      1.0  0.29342  0.29074  0.27979  1.0000
  F   F374      1.0  0.30109  0.30630  0.78057  1.0000
  F   F375      1.0  0.28956  0.80236  0.29505  1.0000
  F   F376      1.0  0.29372  0.80159  0.77530  1.0000
  F   F377      1.0  0.55343  0.30285  0.28655  1.0000
  F   F378      1.0  0.54735  0.29251  0.78750  1.0000
  F   F379      1.0  0.54306  0.79949  0.29593  1.0000
  F   F380      1.0  0.54952  0.79569  0.76997  1.0000
  F   F381      1.0  0.79572  0.29163  0.29308  1.0000
  F   F382      1.0  0.79280  0.28621  0.78538  1.0000
  F   F383      1.0  0.79798  0.80177  0.28422  1.0000
  F   F384      1.0  0.80509  0.79009  0.79400  1.0000
