data_image0
_chemical_formula_structural       Hf96F384
_chemical_formula_sum              "Hf96 F384"
_cell_length_a       31.0092
_cell_length_b       15.5088
_cell_length_c       15.5003
_cell_angle_alpha    63.342
_cell_angle_beta     63.342
_cell_angle_gamma    80.1625

_space_group_name_H-M_alt    "P 1"
_space_group_IT_number       1

loop_
  _space_group_symop_operation_xyz
  'x, y, z'

loop_
  _atom_site_type_symbol
  _atom_site_label
  _atom_site_symmetry_multiplicity
  _atom_site_fract_x
  _atom_site_fract_y
  _atom_site_fract_z
  _atom_site_occupancy
  Hf  Hf1       1.0  0.19505  0.11008  0.37149  1.0000
  Hf  Hf2       1.0  0.19983  0.10435  0.86917  1.0000
  Hf  Hf3       1.0  0.19655  0.61144  0.36868  1.0000
  Hf  Hf4       1.0  0.19626  0.61407  0.86967  1.0000
  Hf  Hf5       1.0  0.44470  0.10875  0.36567  1.0000
  Hf  Hf6       1.0  0.44423  0.10501  0.87938  1.0000
  Hf  Hf7       1.0  0.44259  0.60468  0.38237  1.0000
  Hf  Hf8       1.0  0.44569  0.60759  0.87053  1.0000
  Hf  Hf9       1.0  0.69668  0.10552  0.36834  1.0000
  Hf  Hf10      1.0  0.69693  0.10939  0.87533  1.0000
  Hf  Hf11      1.0  0.69520  0.60642  0.37817  1.0000
  Hf  Hf12      1.0  0.69445  0.60740  0.88266  1.0000
  Hf  Hf13      1.0  0.94783  0.10729  0.37361  1.0000
  Hf  Hf14      1.0  0.94524  0.10001  0.87116  1.0000
  Hf  Hf15      1.0  0.94847  0.60665  0.36939  1.0000
  Hf  Hf16      1.0  0.94434  0.61045  0.87422  1.0000
  Hf  Hf17      1.0  0.05222  0.39727  0.12042  1.0000
  Hf  Hf18      1.0  0.05415  0.38498  0.62982  1.0000
  Hf  Hf19      1.0  0.05499  0.89869  0.11800  1.0000
  Hf  Hf20      1.0  0.05424  0.89525  0.62016  1.0000
  Hf  Hf21      1.0  0.30627  0.39735  0.12179  1.0000
  Hf  Hf22      1.0  0.30238  0.39563  0.61814  1.0000
  Hf  Hf23      1.0  0.29972  0.89398  0.12914  1.0000
  Hf  Hf24      1.0  0.30337  0.89095  0.62463  1.0000
  Hf  Hf25      1.0  0.55513  0.38677  0.13226  1.0000
  Hf  Hf26      1.0  0.55359  0.38901  0.62808  1.0000
  Hf  Hf27      1.0  0.55348  0.89011  0.12846  1.0000
  Hf  Hf28      1.0  0.55589  0.89395  0.61659  1.0000
  Hf  Hf29      1.0  0.80210  0.38443  0.12790  1.0000
  Hf  Hf30      1.0  0.80438  0.39980  0.62605  1.0000
  Hf  Hf31      1.0  0.80180  0.88975  0.12431  1.0000
  Hf  Hf32      1.0  0.80334  0.89709  0.62804  1.0000
  Hf  Hf33      1.0  0.05669  0.18986  0.41804  1.0000
  Hf  Hf34      1.0  0.05741  0.18446  0.91760  1.0000
  Hf  Hf35      1.0  0.05656  0.68212  0.41471  1.0000
  Hf  Hf36      1.0  0.05437  0.68814  0.91286  1.0000
  Hf  Hf37      1.0  0.30714  0.18074  0.41157  1.0000
  Hf  Hf38      1.0  0.30531  0.18269  0.91576  1.0000
  Hf  Hf39      1.0  0.30382  0.68590  0.42237  1.0000
  Hf  Hf40      1.0  0.30797  0.68528  0.91318  1.0000
  Hf  Hf41      1.0  0.55212  0.17077  0.42935  1.0000
  Hf  Hf42      1.0  0.56024  0.17786  0.91095  1.0000
  Hf  Hf43      1.0  0.55237  0.68544  0.42475  1.0000
  Hf  Hf44      1.0  0.55145  0.67319  0.93315  1.0000
  Hf  Hf45      1.0  0.80662  0.17719  0.41598  1.0000
  Hf  Hf46      1.0  0.80870  0.19301  0.91585  1.0000
  Hf  Hf47      1.0  0.80876  0.68507  0.41286  1.0000
  Hf  Hf48      1.0  0.80633  0.67352  0.92083  1.0000
  Hf  Hf49      1.0  0.15835  0.39639  0.33219  1.0000
  Hf  Hf50      1.0  0.15788  0.38135  0.83109  1.0000
  Hf  Hf51      1.0  0.15720  0.88987  0.34119  1.0000
  Hf  Hf52      1.0  0.15706  0.88792  0.83645  1.0000
  Hf  Hf53      1.0  0.40925  0.38921  0.32962  1.0000
  Hf  Hf54      1.0  0.40862  0.38557  0.83287  1.0000
  Hf  Hf55      1.0  0.40487  0.89109  0.33187  1.0000
  Hf  Hf56      1.0  0.40746  0.88608  0.83098  1.0000
  Hf  Hf57      1.0  0.65760  0.38251  0.34515  1.0000
  Hf  Hf58      1.0  0.65937  0.39170  0.82965  1.0000
  Hf  Hf59      1.0  0.65937  0.88210  0.33201  1.0000
  Hf  Hf60      1.0  0.65827  0.88114  0.84027  1.0000
  Hf  Hf61      1.0  0.90740  0.39041  0.33380  1.0000
  Hf  Hf62      1.0  0.90984  0.38647  0.83242  1.0000
  Hf  Hf63      1.0  0.91065  0.89107  0.32823  1.0000
  Hf  Hf64      1.0  0.90793  0.88292  0.84063  1.0000
  Hf  Hf65      1.0  0.19460  0.32229  0.07743  1.0000
  Hf  Hf66      1.0  0.19353  0.31592  0.57691  1.0000
  Hf  Hf67      1.0  0.19394  0.81338  0.08865  1.0000
  Hf  Hf68      1.0  0.19171  0.82089  0.58592  1.0000
  Hf  Hf69      1.0  0.44860  0.32109  0.07751  1.0000
  Hf  Hf70      1.0  0.44356  0.31737  0.58355  1.0000
  Hf  Hf71      1.0  0.43786  0.81524  0.08908  1.0000
  Hf  Hf72      1.0  0.44467  0.81700  0.58052  1.0000
  Hf  Hf73      1.0  0.69298  0.32402  0.07893  1.0000
  Hf  Hf74      1.0  0.69921  0.31637  0.58029  1.0000
  Hf  Hf75      1.0  0.69790  0.81450  0.07861  1.0000
  Hf  Hf76      1.0  0.69413  0.81562  0.58720  1.0000
  Hf  Hf77      1.0  0.94059  0.31304  0.09181  1.0000
  Hf  Hf78      1.0  0.94472  0.31606  0.58439  1.0000
  Hf  Hf79      1.0  0.94533  0.81736  0.08834  1.0000
  Hf  Hf80      1.0  0.94489  0.81919  0.58555  1.0000
  Hf  Hf81      1.0  0.09003  0.11849  0.16991  1.0000
  Hf  Hf82      1.0  0.09057  0.11221  0.67115  1.0000
  Hf  Hf83      1.0  0.09249  0.61512  0.16336  1.0000
  Hf  Hf84      1.0  0.09432  0.61495  0.66253  1.0000
  Hf  Hf85      1.0  0.34153  0.11602  0.16087  1.0000
  Hf  Hf86      1.0  0.34065  0.11179  0.66858  1.0000
  Hf  Hf87      1.0  0.34146  0.61320  0.16246  1.0000
  Hf  Hf88      1.0  0.34071  0.60988  0.66830  1.0000
  Hf  Hf89      1.0  0.59217  0.11394  0.16258  1.0000
  Hf  Hf90      1.0  0.59075  0.10795  0.67047  1.0000
  Hf  Hf91      1.0  0.59249  0.61000  0.17216  1.0000
  Hf  Hf92      1.0  0.59186  0.60604  0.67250  1.0000
  Hf  Hf93      1.0  0.83965  0.10594  0.16724  1.0000
  Hf  Hf94      1.0  0.84435  0.11209  0.66053  1.0000
  Hf  Hf95      1.0  0.83917  0.61075  0.16876  1.0000
  Hf  Hf96      1.0  0.83970  0.61123  0.66839  1.0000
  F   F1        1.0  0.07475  0.12764  0.30724  1.0000
  F   F2        1.0  0.08299  0.14078  0.79677  1.0000
  F   F3        1.0  0.08349  0.63411  0.29415  1.0000
  F   F4        1.0  0.07390  0.62862  0.80176  1.0000
  F   F5        1.0  0.32541  0.11138  0.31599  1.0000
  F   F6        1.0  0.33539  0.13033  0.79648  1.0000
  F   F7        1.0  0.33156  0.62060  0.29789  1.0000
  F   F8        1.0  0.32471  0.63404  0.80424  1.0000
  F   F9        1.0  0.57986  0.11764  0.31153  1.0000
  F   F10       1.0  0.57770  0.12784  0.80303  1.0000
  F   F11       1.0  0.57071  0.62577  0.31856  1.0000
  F   F12       1.0  0.57763  0.61046  0.81146  1.0000
  F   F13       1.0  0.82630  0.12416  0.30493  1.0000
  F   F14       1.0  0.83731  0.15390  0.79535  1.0000
  F   F15       1.0  0.82953  0.62537  0.30356  1.0000
  F   F16       1.0  0.83244  0.62233  0.80000  1.0000
  F   F17       1.0  0.18852  0.34143  0.44721  1.0000
  F   F18       1.0  0.18456  0.33127  0.94603  1.0000
  F   F19       1.0  0.18536  0.84567  0.45083  1.0000
  F   F20       1.0  0.18486  0.84129  0.94631  1.0000
  F   F21       1.0  0.43507  0.34412  0.44722  1.0000
  F   F22       1.0  0.43927  0.33663  0.95036  1.0000
  F   F23       1.0  0.43457  0.84514  0.43668  1.0000
  F   F24       1.0  0.43466  0.83580  0.94987  1.0000
  F   F25       1.0  0.68392  0.33133  0.45850  1.0000
  F   F26       1.0  0.68325  0.34300  0.94759  1.0000
  F   F27       1.0  0.68447  0.83237  0.45192  1.0000
  F   F28       1.0  0.68782  0.81547  0.95597  1.0000
  F   F29       1.0  0.93779  0.33867  0.45006  1.0000
  F   F30       1.0  0.93386  0.33795  0.95091  1.0000
  F   F31       1.0  0.94066  0.84563  0.43459  1.0000
  F   F32       1.0  0.93900  0.84359  0.94297  1.0000
  F   F33       1.0  0.16905  0.37898  0.19290  1.0000
  F   F34       1.0  0.16831  0.35635  0.70376  1.0000
  F   F35       1.0  0.17080  0.86851  0.19737  1.0000
  F   F36       1.0  0.16769  0.87146  0.69981  1.0000
  F   F37       1.0  0.41849  0.35134  0.20832  1.0000
  F   F38       1.0  0.42056  0.37666  0.69540  1.0000
  F   F39       1.0  0.41109  0.85057  0.21350  1.0000
  F   F40       1.0  0.41753  0.87163  0.69754  1.0000
  F   F41       1.0  0.67096  0.38094  0.19382  1.0000
  F   F42       1.0  0.66795  0.37272  0.69000  1.0000
  F   F43       1.0  0.67609  0.87274  0.18702  1.0000
  F   F44       1.0  0.67105  0.86014  0.70766  1.0000
  F   F45       1.0  0.92007  0.37277  0.19476  1.0000
  F   F46       1.0  0.92144  0.36134  0.69830  1.0000
  F   F47       1.0  0.91834  0.87338  0.19373  1.0000
  F   F48       1.0  0.92052  0.88455  0.69195  1.0000
  F   F49       1.0  0.06762  0.16405  0.04461  1.0000
  F   F50       1.0  0.06638  0.15529  0.55723  1.0000
  F   F51       1.0  0.06056  0.66240  0.04654  1.0000
  F   F52       1.0  0.06066  0.65857  0.56195  1.0000
  F   F53       1.0  0.32514  0.17823  0.03442  1.0000
  F   F54       1.0  0.32420  0.16240  0.53930  1.0000
  F   F55       1.0  0.31418  0.65707  0.05632  1.0000
  F   F56       1.0  0.31156  0.65238  0.56012  1.0000
  F   F57       1.0  0.56286  0.16012  0.05880  1.0000
  F   F58       1.0  0.55163  0.15086  0.57610  1.0000
  F   F59       1.0  0.55507  0.64498  0.06862  1.0000
  F   F60       1.0  0.56412  0.65626  0.55650  1.0000
  F   F61       1.0  0.81707  0.16792  0.04697  1.0000
  F   F62       1.0  0.82066  0.16353  0.54970  1.0000
  F   F63       1.0  0.81085  0.65268  0.06156  1.0000
  F   F64       1.0  0.81292  0.66106  0.55123  1.0000
  F   F65       1.0  0.20480  0.20814  0.20750  1.0000
  F   F66       1.0  0.20976  0.20146  0.69416  1.0000
  F   F67       1.0  0.19586  0.70642  0.22018  1.0000
  F   F68       1.0  0.20702  0.71062  0.72307  1.0000
  F   F69       1.0  0.46067  0.20688  0.20397  1.0000
  F   F70       1.0  0.44840  0.19720  0.73110  1.0000
  F   F71       1.0  0.45301  0.69862  0.21912  1.0000
  F   F72       1.0  0.45755  0.69853  0.71179  1.0000
  F   F73       1.0  0.69855  0.19741  0.21634  1.0000
  F   F74       1.0  0.71219  0.19751  0.71173  1.0000
  F   F75       1.0  0.71304  0.70287  0.20583  1.0000
  F   F76       1.0  0.70174  0.69648  0.70884  1.0000
  F   F77       1.0  0.95545  0.20211  0.21054  1.0000
  F   F78       1.0  0.96044  0.19356  0.70204  1.0000
  F   F79       1.0  0.96130  0.70053  0.20673  1.0000
  F   F80       1.0  0.94646  0.70442  0.71507  1.0000
  F   F81       1.0  0.14821  0.10136  0.03789  1.0000
  F   F82       1.0  0.14745  0.09577  0.53109  1.0000
  F   F83       1.0  0.14648  0.58621  0.03006  1.0000
  F   F84       1.0  0.15098  0.60422  0.53129  1.0000
  F   F85       1.0  0.39982  0.09006  0.04315  1.0000
  F   F86       1.0  0.40197  0.08180  0.54179  1.0000
  F   F87       1.0  0.39385  0.59079  0.02953  1.0000
  F   F88       1.0  0.39430  0.58158  0.54553  1.0000
  F   F89       1.0  0.65789  0.10683  0.02024  1.0000
  F   F90       1.0  0.64711  0.11814  0.53974  1.0000
  F   F91       1.0  0.65081  0.59417  0.04422  1.0000
  F   F92       1.0  0.64690  0.58503  0.53416  1.0000
  F   F93       1.0  0.90146  0.10724  0.04171  1.0000
  F   F94       1.0  0.90807  0.09381  0.53764  1.0000
  F   F95       1.0  0.90184  0.59863  0.03753  1.0000
  F   F96       1.0  0.89722  0.58648  0.53737  1.0000
  F   F97       1.0  0.14790  0.20168  0.13816  1.0000
  F   F98       1.0  0.15114  0.18428  0.62433  1.0000
  F   F99       1.0  0.15467  0.68637  0.12271  1.0000
  F   F100      1.0  0.15227  0.70060  0.63391  1.0000
  F   F101      1.0  0.40398  0.19763  0.12545  1.0000
  F   F102      1.0  0.40911  0.19949  0.61514  1.0000
  F   F103      1.0  0.40004  0.69674  0.12935  1.0000
  F   F104      1.0  0.40266  0.69489  0.61144  1.0000
  F   F105      1.0  0.64911  0.20689  0.12247  1.0000
  F   F106      1.0  0.65722  0.19392  0.64023  1.0000
  F   F107      1.0  0.65244  0.69578  0.14464  1.0000
  F   F108      1.0  0.65354  0.69139  0.62225  1.0000
  F   F109      1.0  0.90024  0.18909  0.14492  1.0000
  F   F110      1.0  0.90765  0.20114  0.61238  1.0000
  F   F111      1.0  0.90213  0.69655  0.13559  1.0000
  F   F112      1.0  0.90021  0.69971  0.61181  1.0000
  F   F113      1.0  0.09434  0.30723  0.38166  1.0000
  F   F114      1.0  0.09608  0.30225  0.87459  1.0000
  F   F115      1.0  0.10445  0.79766  0.37112  1.0000
  F   F116      1.0  0.09825  0.80893  0.88017  1.0000
  F   F117      1.0  0.34169  0.30874  0.36744  1.0000
  F   F118      1.0  0.35100  0.30110  0.86686  1.0000
  F   F119      1.0  0.34237  0.80540  0.39964  1.0000
  F   F120      1.0  0.35098  0.79320  0.88935  1.0000
  F   F121      1.0  0.60319  0.28576  0.37670  1.0000
  F   F122      1.0  0.60207  0.28904  0.87356  1.0000
  F   F123      1.0  0.59534  0.81113  0.38163  1.0000
  F   F124      1.0  0.59495  0.80922  0.89133  1.0000
  F   F125      1.0  0.84953  0.30057  0.38589  1.0000
  F   F126      1.0  0.84410  0.30864  0.87027  1.0000
  F   F127      1.0  0.85031  0.79687  0.38497  1.0000
  F   F128      1.0  0.85252  0.79210  0.90001  1.0000
  F   F129      1.0  0.06582  0.25346  0.12992  1.0000
  F   F130      1.0  0.06250  0.24791  0.65174  1.0000
  F   F131      1.0  0.07086  0.75520  0.12589  1.0000
  F   F132      1.0  0.06907  0.76422  0.61983  1.0000
  F   F133      1.0  0.31749  0.25883  0.13448  1.0000
  F   F134      1.0  0.31243  0.24915  0.63960  1.0000
  F   F135      1.0  0.31247  0.75921  0.13961  1.0000
  F   F136      1.0  0.30943  0.75432  0.64984  1.0000
  F   F137      1.0  0.55915  0.24674  0.15716  1.0000
  F   F138      1.0  0.57433  0.25394  0.63000  1.0000
  F   F139      1.0  0.56888  0.74979  0.14327  1.0000
  F   F140      1.0  0.56330  0.75290  0.64806  1.0000
  F   F141      1.0  0.80373  0.24941  0.15922  1.0000
  F   F142      1.0  0.82083  0.26024  0.64278  1.0000
  F   F143      1.0  0.81435  0.74525  0.14107  1.0000
  F   F144      1.0  0.81284  0.75021  0.64758  1.0000
  F   F145      1.0  0.12498  0.39430  0.07600  1.0000
  F   F146      1.0  0.12709  0.37335  0.59816  1.0000
  F   F147      1.0  0.12591  0.86013  0.11007  1.0000
  F   F148      1.0  0.12341  0.88303  0.59820  1.0000
  F   F149      1.0  0.37786  0.37524  0.10370  1.0000
  F   F150      1.0  0.37476  0.35744  0.61521  1.0000
  F   F151      1.0  0.36950  0.87653  0.10699  1.0000
  F   F152      1.0  0.37322  0.86426  0.61588  1.0000
  F   F153      1.0  0.62274  0.36942  0.11173  1.0000
  F   F154      1.0  0.62409  0.39058  0.58115  1.0000
  F   F155      1.0  0.62430  0.89048  0.09336  1.0000
  F   F156      1.0  0.62503  0.86506  0.60815  1.0000
  F   F157      1.0  0.87348  0.36922  0.10209  1.0000
  F   F158      1.0  0.87286  0.38666  0.60809  1.0000
  F   F159      1.0  0.87552  0.87253  0.10078  1.0000
  F   F160      1.0  0.87749  0.87190  0.59369  1.0000
  F   F161      1.0  0.18043  0.25440  0.35965  1.0000
  F   F162      1.0  0.19427  0.24435  0.84194  1.0000
  F   F163      1.0  0.18471  0.74208  0.37141  1.0000
  F   F164      1.0  0.18266  0.74844  0.86286  1.0000
  F   F165      1.0  0.43653  0.25271  0.35974  1.0000
  F   F166      1.0  0.43439  0.24695  0.86949  1.0000
  F   F167      1.0  0.43124  0.74162  0.37185  1.0000
  F   F168      1.0  0.43849  0.74782  0.85832  1.0000
  F   F169      1.0  0.69012  0.25271  0.35382  1.0000
  F   F170      1.0  0.68464  0.25765  0.85236  1.0000
  F   F171      1.0  0.68172  0.74270  0.37452  1.0000
  F   F172      1.0  0.69137  0.74750  0.84749  1.0000
  F   F173      1.0  0.93927  0.24552  0.35933  1.0000
  F   F174      1.0  0.92625  0.24393  0.86039  1.0000
  F   F175      1.0  0.94489  0.74715  0.35123  1.0000
  F   F176      1.0  0.94245  0.75587  0.85316  1.0000
  F   F177      1.0  0.12605  0.14290  0.37500  1.0000
  F   F178      1.0  0.12777  0.12246  0.89810  1.0000
  F   F179      1.0  0.12346  0.62433  0.40078  1.0000
  F   F180      1.0  0.12604  0.63563  0.87430  1.0000
  F   F181      1.0  0.37582  0.14559  0.37823  1.0000
  F   F182      1.0  0.37161  0.13531  0.88942  1.0000
  F   F183      1.0  0.37220  0.63265  0.39489  1.0000
  F   F184      1.0  0.37597  0.63154  0.87926  1.0000
  F   F185      1.0  0.62510  0.11601  0.41058  1.0000
  F   F186      1.0  0.62862  0.11863  0.89255  1.0000
  F   F187      1.0  0.62278  0.63963  0.38312  1.0000
  F   F188      1.0  0.62722  0.64363  0.87977  1.0000
  F   F189      1.0  0.87579  0.12689  0.39760  1.0000
  F   F190      1.0  0.87415  0.10621  0.91375  1.0000
  F   F191      1.0  0.88183  0.64600  0.37054  1.0000
  F   F192      1.0  0.87528  0.62267  0.89728  1.0000
  F   F193      1.0  0.00327  0.36227  0.06872  1.0000
  F   F194      1.0  0.00942  0.36093  0.57606  1.0000
  F   F195      1.0  0.00772  0.86801  0.06430  1.0000
  F   F196      1.0  0.01006  0.85730  0.56688  1.0000
  F   F197      1.0  0.25646  0.37294  0.07720  1.0000
  F   F198      1.0  0.25540  0.37114  0.56917  1.0000
  F   F199      1.0  0.25636  0.87127  0.06320  1.0000
  F   F200      1.0  0.26144  0.87033  0.55649  1.0000
  F   F201      1.0  0.50809  0.37363  0.07082  1.0000
  F   F202      1.0  0.50553  0.35715  0.58071  1.0000
  F   F203      1.0  0.50448  0.86964  0.08129  1.0000
  F   F204      1.0  0.50408  0.85675  0.57644  1.0000
  F   F205      1.0  0.75682  0.36553  0.07560  1.0000
  F   F206      1.0  0.76030  0.36934  0.57423  1.0000
  F   F207      1.0  0.75803  0.86548  0.07323  1.0000
  F   F208      1.0  0.75623  0.86511  0.57146  1.0000
  F   F209      1.0  0.07318  0.49623  0.16223  1.0000
  F   F210      1.0  0.07362  0.48571  0.67737  1.0000
  F   F211      1.0  0.06783  0.99380  0.16776  1.0000
  F   F212      1.0  0.06787  0.98852  0.67858  1.0000
  F   F213      1.0  0.31886  0.48266  0.18111  1.0000
  F   F214      1.0  0.31818  0.47797  0.67235  1.0000
  F   F215      1.0  0.31812  0.98827  0.17862  1.0000
  F   F216      1.0  0.31605  0.98899  0.67122  1.0000
  F   F217      1.0  0.57226  0.49386  0.17687  1.0000
  F   F218      1.0  0.56729  0.48732  0.68160  1.0000
  F   F219      1.0  0.56922  0.98883  0.18212  1.0000
  F   F220      1.0  0.57205  0.98299  0.67209  1.0000
  F   F221      1.0  0.81530  0.47247  0.17879  1.0000
  F   F222      1.0  0.81088  0.49098  0.68627  1.0000
  F   F223      1.0  0.81165  0.97923  0.20045  1.0000
  F   F224      1.0  0.82104  0.98977  0.67297  1.0000
  F   F225      1.0  0.23899  0.15140  0.41893  1.0000
  F   F226      1.0  0.24171  0.12274  0.93051  1.0000
  F   F227      1.0  0.24659  0.64747  0.40853  1.0000
  F   F228      1.0  0.24283  0.63724  0.92948  1.0000
  F   F229      1.0  0.49246  0.13639  0.41462  1.0000
  F   F230      1.0  0.48975  0.13989  0.93024  1.0000
  F   F231      1.0  0.48847  0.64562  0.44255  1.0000
  F   F232      1.0  0.49085  0.62844  0.93587  1.0000
  F   F233      1.0  0.74415  0.13321  0.42735  1.0000
  F   F234      1.0  0.74568  0.13221  0.92144  1.0000
  F   F235      1.0  0.74489  0.65054  0.40783  1.0000
  F   F236      1.0  0.74346  0.63717  0.93130  1.0000
  F   F237      1.0  0.99805  0.14284  0.41350  1.0000
  F   F238      1.0  0.99098  0.13941  0.91267  1.0000
  F   F239      1.0  0.99012  0.62381  0.44031  1.0000
  F   F240      1.0  0.99213  0.63910  0.94130  1.0000
  F   F241      1.0  0.17444  0.01272  0.34777  1.0000
  F   F242      1.0  0.18456  0.01533  0.81530  1.0000
  F   F243      1.0  0.18009  0.52144  0.32480  1.0000
  F   F244      1.0  0.17667  0.51081  0.83670  1.0000
  F   F245      1.0  0.42770  0.02447  0.32031  1.0000
  F   F246      1.0  0.43388  0.01676  0.81892  1.0000
  F   F247      1.0  0.43026  0.51505  0.32060  1.0000
  F   F248      1.0  0.43363  0.51712  0.80542  1.0000
  F   F249      1.0  0.68419  0.01062  0.32714  1.0000
  F   F250      1.0  0.68592  0.00392  0.82262  1.0000
  F   F251      1.0  0.67350  0.51008  0.35572  1.0000
  F   F252      1.0  0.67600  0.51860  0.83972  1.0000
  F   F253      1.0  0.93738  0.01492  0.31066  1.0000
  F   F254      1.0  0.93308  0.00907  0.81191  1.0000
  F   F255      1.0  0.93002  0.51599  0.32633  1.0000
  F   F256      1.0  0.93116  0.50830  0.83159  1.0000
  F   F257      1.0  0.99971  0.24859  0.99516  1.0000
  F   F258      1.0  0.99936  0.24142  0.50865  1.0000
  F   F259      1.0  0.00308  0.77434  0.99157  1.0000
  F   F260      1.0  0.00016  0.75654  0.48624  1.0000
  F   F261      1.0  0.24630  0.24344  0.00551  1.0000
  F   F262      1.0  0.24805  0.24241  0.50190  1.0000
  F   F263      1.0  0.25255  0.74809  0.00718  1.0000
  F   F264      1.0  0.24737  0.73556  0.51774  1.0000
  F   F265      1.0  0.50673  0.26036  0.98901  1.0000
  F   F266      1.0  0.49949  0.24788  0.50175  1.0000
  F   F267      1.0  0.49458  0.74965  0.00460  1.0000
  F   F268      1.0  0.50416  0.76544  0.50016  1.0000
  F   F269      1.0  0.74956  0.26044  0.99788  1.0000
  F   F270      1.0  0.75022  0.23458  0.51136  1.0000
  F   F271      1.0  0.75452  0.75401  0.99778  1.0000
  F   F272      1.0  0.75518  0.75962  0.48312  1.0000
  F   F273      1.0  0.13236  0.00369  0.24074  1.0000
  F   F274      1.0  0.12250  0.00363  0.76395  1.0000
  F   F275      1.0  0.12716  0.50237  0.25467  1.0000
  F   F276      1.0  0.12724  0.50508  0.74670  1.0000
  F   F277      1.0  0.37736  0.00170  0.24340  1.0000
  F   F278      1.0  0.37543  0.00103  0.74991  1.0000
  F   F279      1.0  0.38076  0.49900  0.23142  1.0000
  F   F280      1.0  0.36818  0.49786  0.76192  1.0000
  F   F281      1.0  0.63182  0.00260  0.23787  1.0000
  F   F282      1.0  0.62788  0.00031  0.75838  1.0000
  F   F283      1.0  0.62259  0.49887  0.26344  1.0000
  F   F284      1.0  0.63025  0.50020  0.73931  1.0000
  F   F285      1.0  0.87469  0.99640  0.25087  1.0000
  F   F286      1.0  0.87512  0.00473  0.74921  1.0000
  F   F287      1.0  0.86809  0.49980  0.25893  1.0000
  F   F288      1.0  0.88195  0.50024  0.73926  1.0000
  F   F289      1.0  0.04297  0.03429  0.02368  1.0000
  F   F290      1.0  0.03969  0.03415  0.52825  1.0000
  F   F291      1.0  0.04746  0.52756  0.01701  1.0000
  F   F292      1.0  0.04548  0.52660  0.52453  1.0000
  F   F293      1.0  0.28930  0.03468  0.03097  1.0000
  F   F294      1.0  0.28790  0.04215  0.53000  1.0000
  F   F295      1.0  0.29188  0.53287  0.02780  1.0000
  F   F296      1.0  0.28653  0.53067  0.52862  1.0000
  F   F297      1.0  0.54654  0.03215  0.02697  1.0000
  F   F298      1.0  0.53232  0.02828  0.53360  1.0000
  F   F299      1.0  0.55583  0.52337  0.01606  1.0000
  F   F300      1.0  0.54552  0.52744  0.52843  1.0000
  F   F301      1.0  0.79070  0.03065  0.04125  1.0000
  F   F302      1.0  0.79326  0.03386  0.52785  1.0000
  F   F303      1.0  0.79325  0.53189  0.01640  1.0000
  F   F304      1.0  0.79753  0.53223  0.50949  1.0000
  F   F305      1.0  0.23044  0.42276  0.23383  1.0000
  F   F306      1.0  0.23058  0.42189  0.72504  1.0000
  F   F307      1.0  0.23019  0.91896  0.22980  1.0000
  F   F308      1.0  0.23394  0.90365  0.72577  1.0000
  F   F309      1.0  0.48615  0.41721  0.22084  1.0000
  F   F310      1.0  0.48925  0.38670  0.74515  1.0000
  F   F311      1.0  0.48217  0.91731  0.22925  1.0000
  F   F312      1.0  0.48734  0.92275  0.71525  1.0000
  F   F313      1.0  0.73336  0.42018  0.23217  1.0000
  F   F314      1.0  0.73033  0.42284  0.72928  1.0000
  F   F315      1.0  0.73099  0.89779  0.23382  1.0000
  F   F316      1.0  0.73859  0.90516  0.72953  1.0000
  F   F317      1.0  0.98369  0.40738  0.22910  1.0000
  F   F318      1.0  0.99065  0.42466  0.71229  1.0000
  F   F319      1.0  0.98425  0.91207  0.21757  1.0000
  F   F320      1.0  0.98525  0.91125  0.71703  1.0000
  F   F321      1.0  0.20814  0.48117  0.47793  1.0000
  F   F322      1.0  0.21569  0.46726  0.96112  1.0000
  F   F323      1.0  0.21241  0.97055  0.47433  1.0000
  F   F324      1.0  0.20121  0.96480  0.98268  1.0000
  F   F325      1.0  0.45746  0.47186  0.48640  1.0000
  F   F326      1.0  0.46297  0.47670  0.95796  1.0000
  F   F327      1.0  0.45792  0.96630  0.47588  1.0000
  F   F328      1.0  0.45576  0.96466  0.98133  1.0000
  F   F329      1.0  0.71648  0.45359  0.46766  1.0000
  F   F330      1.0  0.70251  0.46767  0.98542  1.0000
  F   F331      1.0  0.70782  0.96834  0.46925  1.0000
  F   F332      1.0  0.70820  0.96071  0.97776  1.0000
  F   F333      1.0  0.96264  0.46667  0.46829  1.0000
  F   F334      1.0  0.95331  0.47479  0.98108  1.0000
  F   F335      1.0  0.96066  0.97032  0.47279  1.0000
  F   F336      1.0  0.95364  0.96805  0.97026  1.0000
  F   F337      1.0  0.01629  0.09772  0.26354  1.0000
  F   F338      1.0  0.01820  0.07745  0.76730  1.0000
  F   F339      1.0  0.01851  0.59686  0.26683  1.0000
  F   F340      1.0  0.01080  0.60676  0.76684  1.0000
  F   F341      1.0  0.26163  0.09870  0.26208  1.0000
  F   F342      1.0  0.26732  0.07129  0.77668  1.0000
  F   F343      1.0  0.26337  0.60328  0.25600  1.0000
  F   F344      1.0  0.26465  0.59019  0.77343  1.0000
  F   F345      1.0  0.51629  0.08028  0.27566  1.0000
  F   F346      1.0  0.51443  0.07555  0.78831  1.0000
  F   F347      1.0  0.51287  0.58723  0.27968  1.0000
  F   F348      1.0  0.51537  0.58805  0.77815  1.0000
  F   F349      1.0  0.76357  0.09856  0.26117  1.0000
  F   F350      1.0  0.77796  0.08987  0.76415  1.0000
  F   F351      1.0  0.76290  0.58301  0.26445  1.0000
  F   F352      1.0  0.76259  0.58695  0.78063  1.0000
  F   F353      1.0  0.10204  0.40274  0.46664  1.0000
  F   F354      1.0  0.09927  0.39596  0.95533  1.0000
  F   F355      1.0  0.09610  0.91748  0.45690  1.0000
  F   F356      1.0  0.09743  0.91947  0.96538  1.0000
  F   F357      1.0  0.34917  0.40600  0.46009  1.0000
  F   F358      1.0  0.35107  0.41295  0.95771  1.0000
  F   F359      1.0  0.35062  0.92348  0.45774  1.0000
  F   F360      1.0  0.35083  0.91424  0.95738  1.0000
  F   F361      1.0  0.59678  0.39252  0.45598  1.0000
  F   F362      1.0  0.59986  0.39292  0.96341  1.0000
  F   F363      1.0  0.59913  0.91813  0.46323  1.0000
  F   F364      1.0  0.60227  0.89694  0.97068  1.0000
  F   F365      1.0  0.85659  0.40375  0.46367  1.0000
  F   F366      1.0  0.85166  0.40780  0.94830  1.0000
  F   F367      1.0  0.85399  0.91437  0.45277  1.0000
  F   F368      1.0  0.84671  0.91883  0.96539  1.0000
  F   F369      1.0  0.05224  0.29987  0.28069  1.0000
  F   F370      1.0  0.04751  0.29756  0.79011  1.0000
  F   F371      1.0  0.05609  0.80174  0.27352  1.0000
  F   F372      1.0  0.05381  0.79528  0.77480  1.0000
  F   F373      1.0  0.29343  0.29737  0.28175  1.0000
  F   F374      1.0  0.28929  0.29692  0.79875  1.0000
  F   F375      1.0  0.29705  0.79950  0.28908  1.0000
  F   F376      1.0  0.29401  0.80012  0.80305  1.0000
  F   F377      1.0  0.54204  0.30507  0.29470  1.0000
  F   F378      1.0  0.55451  0.29185  0.78204  1.0000
  F   F379      1.0  0.54499  0.80191  0.28842  1.0000
  F   F380      1.0  0.55500  0.77790  0.80110  1.0000
  F   F381      1.0  0.79661  0.28883  0.29179  1.0000
  F   F382      1.0  0.79270  0.30678  0.78612  1.0000
  F   F383      1.0  0.80689  0.79405  0.27342  1.0000
  F   F384      1.0  0.80363  0.79199  0.78840  1.0000
