data_image0
_chemical_formula_structural       Hf96F384
_chemical_formula_sum              "Hf96 F384"
_cell_length_a       31.0543
_cell_length_b       15.5294
_cell_length_c       15.5204
_cell_angle_alpha    63.342
_cell_angle_beta     63.342
_cell_angle_gamma    80.1625

_space_group_name_H-M_alt    "P 1"
_space_group_IT_number       1

loop_
  _space_group_symop_operation_xyz
  'x, y, z'

loop_
  _atom_site_type_symbol
  _atom_site_label
  _atom_site_symmetry_multiplicity
  _atom_site_fract_x
  _atom_site_fract_y
  _atom_site_fract_z
  _atom_site_occupancy
  Hf  Hf1       1.0  0.19290  0.11447  0.37672  1.0000
  Hf  Hf2       1.0  0.19694  0.10916  0.87501  1.0000
  Hf  Hf3       1.0  0.19801  0.61522  0.36740  1.0000
  Hf  Hf4       1.0  0.19627  0.61158  0.86742  1.0000
  Hf  Hf5       1.0  0.44315  0.11081  0.37937  1.0000
  Hf  Hf6       1.0  0.44834  0.10487  0.88307  1.0000
  Hf  Hf7       1.0  0.44804  0.60095  0.38393  1.0000
  Hf  Hf8       1.0  0.44814  0.61416  0.86849  1.0000
  Hf  Hf9       1.0  0.69844  0.10481  0.37294  1.0000
  Hf  Hf10      1.0  0.69677  0.09965  0.88203  1.0000
  Hf  Hf11      1.0  0.69785  0.59778  0.37447  1.0000
  Hf  Hf12      1.0  0.69551  0.60759  0.87358  1.0000
  Hf  Hf13      1.0  0.94748  0.10443  0.38718  1.0000
  Hf  Hf14      1.0  0.94480  0.10926  0.86935  1.0000
  Hf  Hf15      1.0  0.94364  0.60356  0.37762  1.0000
  Hf  Hf16      1.0  0.94744  0.60280  0.88077  1.0000
  Hf  Hf17      1.0  0.04982  0.39792  0.12363  1.0000
  Hf  Hf18      1.0  0.04947  0.39133  0.63779  1.0000
  Hf  Hf19      1.0  0.05517  0.89530  0.13167  1.0000
  Hf  Hf20      1.0  0.05017  0.89949  0.62519  1.0000
  Hf  Hf21      1.0  0.30774  0.40430  0.11958  1.0000
  Hf  Hf22      1.0  0.30339  0.39672  0.62702  1.0000
  Hf  Hf23      1.0  0.30030  0.89371  0.12299  1.0000
  Hf  Hf24      1.0  0.30617  0.89660  0.60904  1.0000
  Hf  Hf25      1.0  0.55314  0.38454  0.12119  1.0000
  Hf  Hf26      1.0  0.55659  0.38649  0.62315  1.0000
  Hf  Hf27      1.0  0.55623  0.88993  0.12635  1.0000
  Hf  Hf28      1.0  0.55411  0.88999  0.61901  1.0000
  Hf  Hf29      1.0  0.80511  0.38424  0.12920  1.0000
  Hf  Hf30      1.0  0.80054  0.39221  0.63603  1.0000
  Hf  Hf31      1.0  0.80815  0.89347  0.11845  1.0000
  Hf  Hf32      1.0  0.80422  0.89777  0.62725  1.0000
  Hf  Hf33      1.0  0.05565  0.19814  0.41612  1.0000
  Hf  Hf34      1.0  0.05411  0.18580  0.91573  1.0000
  Hf  Hf35      1.0  0.05417  0.67841  0.42500  1.0000
  Hf  Hf36      1.0  0.05962  0.68423  0.90572  1.0000
  Hf  Hf37      1.0  0.30349  0.18865  0.41472  1.0000
  Hf  Hf38      1.0  0.30717  0.18510  0.90955  1.0000
  Hf  Hf39      1.0  0.30746  0.68225  0.41547  1.0000
  Hf  Hf40      1.0  0.30681  0.68496  0.91525  1.0000
  Hf  Hf41      1.0  0.56010  0.19003  0.41294  1.0000
  Hf  Hf42      1.0  0.55713  0.17157  0.92154  1.0000
  Hf  Hf43      1.0  0.55580  0.67328  0.42092  1.0000
  Hf  Hf44      1.0  0.55579  0.68095  0.91966  1.0000
  Hf  Hf45      1.0  0.80537  0.17402  0.41943  1.0000
  Hf  Hf46      1.0  0.80199  0.17856  0.92529  1.0000
  Hf  Hf47      1.0  0.80391  0.68592  0.41283  1.0000
  Hf  Hf48      1.0  0.80771  0.67212  0.91913  1.0000
  Hf  Hf49      1.0  0.16142  0.39731  0.33178  1.0000
  Hf  Hf50      1.0  0.15247  0.39061  0.84399  1.0000
  Hf  Hf51      1.0  0.15652  0.89143  0.33490  1.0000
  Hf  Hf52      1.0  0.15863  0.88921  0.82972  1.0000
  Hf  Hf53      1.0  0.40915  0.38756  0.33922  1.0000
  Hf  Hf54      1.0  0.40788  0.38709  0.83428  1.0000
  Hf  Hf55      1.0  0.40940  0.89830  0.31679  1.0000
  Hf  Hf56      1.0  0.40925  0.89342  0.82237  1.0000
  Hf  Hf57      1.0  0.66153  0.38691  0.32994  1.0000
  Hf  Hf58      1.0  0.65335  0.37866  0.83923  1.0000
  Hf  Hf59      1.0  0.65891  0.88052  0.33085  1.0000
  Hf  Hf60      1.0  0.66223  0.89066  0.83141  1.0000
  Hf  Hf61      1.0  0.90380  0.37855  0.33961  1.0000
  Hf  Hf62      1.0  0.90815  0.39879  0.82772  1.0000
  Hf  Hf63      1.0  0.90819  0.88537  0.32930  1.0000
  Hf  Hf64      1.0  0.90842  0.89129  0.83377  1.0000
  Hf  Hf65      1.0  0.19565  0.33279  0.07284  1.0000
  Hf  Hf66      1.0  0.19494  0.31845  0.58441  1.0000
  Hf  Hf67      1.0  0.19372  0.82078  0.07957  1.0000
  Hf  Hf68      1.0  0.19354  0.81812  0.57828  1.0000
  Hf  Hf69      1.0  0.44371  0.32417  0.07897  1.0000
  Hf  Hf70      1.0  0.44091  0.30969  0.59321  1.0000
  Hf  Hf71      1.0  0.44282  0.80653  0.08734  1.0000
  Hf  Hf72      1.0  0.44755  0.82060  0.57084  1.0000
  Hf  Hf73      1.0  0.69597  0.31812  0.08310  1.0000
  Hf  Hf74      1.0  0.69805  0.31291  0.57871  1.0000
  Hf  Hf75      1.0  0.69877  0.80590  0.08783  1.0000
  Hf  Hf76      1.0  0.69408  0.81974  0.58436  1.0000
  Hf  Hf77      1.0  0.94540  0.32465  0.07982  1.0000
  Hf  Hf78      1.0  0.94118  0.31443  0.58807  1.0000
  Hf  Hf79      1.0  0.94396  0.81620  0.07973  1.0000
  Hf  Hf80      1.0  0.94106  0.80627  0.59357  1.0000
  Hf  Hf81      1.0  0.09086  0.11955  0.16818  1.0000
  Hf  Hf82      1.0  0.09556  0.11726  0.66213  1.0000
  Hf  Hf83      1.0  0.09019  0.62101  0.16304  1.0000
  Hf  Hf84      1.0  0.08810  0.60937  0.66983  1.0000
  Hf  Hf85      1.0  0.33536  0.11192  0.17204  1.0000
  Hf  Hf86      1.0  0.34055  0.11029  0.66446  1.0000
  Hf  Hf87      1.0  0.34544  0.61644  0.16048  1.0000
  Hf  Hf88      1.0  0.34019  0.60922  0.67170  1.0000
  Hf  Hf89      1.0  0.59177  0.10482  0.18065  1.0000
  Hf  Hf90      1.0  0.59578  0.10510  0.65954  1.0000
  Hf  Hf91      1.0  0.59480  0.61055  0.16231  1.0000
  Hf  Hf92      1.0  0.59298  0.61221  0.66428  1.0000
  Hf  Hf93      1.0  0.84498  0.11375  0.15723  1.0000
  Hf  Hf94      1.0  0.84186  0.11792  0.66403  1.0000
  Hf  Hf95      1.0  0.84172  0.61034  0.16474  1.0000
  Hf  Hf96      1.0  0.83734  0.61387  0.66825  1.0000
  F   F1        1.0  0.07777  0.13746  0.31487  1.0000
  F   F2        1.0  0.08026  0.13420  0.79578  1.0000
  F   F3        1.0  0.07763  0.63176  0.30593  1.0000
  F   F4        1.0  0.08161  0.63902  0.79518  1.0000
  F   F5        1.0  0.32140  0.11972  0.31049  1.0000
  F   F6        1.0  0.33855  0.14521  0.78514  1.0000
  F   F7        1.0  0.34227  0.63041  0.29002  1.0000
  F   F8        1.0  0.32447  0.61034  0.80973  1.0000
  F   F9        1.0  0.57397  0.10427  0.32458  1.0000
  F   F10       1.0  0.58174  0.11433  0.80161  1.0000
  F   F11       1.0  0.57556  0.60631  0.31517  1.0000
  F   F12       1.0  0.57520  0.63242  0.80789  1.0000
  F   F13       1.0  0.83386  0.14729  0.29281  1.0000
  F   F14       1.0  0.82195  0.12272  0.81697  1.0000
  F   F15       1.0  0.82942  0.62022  0.30700  1.0000
  F   F16       1.0  0.82881  0.63079  0.80302  1.0000
  F   F17       1.0  0.18319  0.34292  0.45872  1.0000
  F   F18       1.0  0.19148  0.34889  0.94195  1.0000
  F   F19       1.0  0.18290  0.85047  0.44566  1.0000
  F   F20       1.0  0.18877  0.83967  0.94048  1.0000
  F   F21       1.0  0.44312  0.34610  0.44733  1.0000
  F   F22       1.0  0.43167  0.33822  0.95481  1.0000
  F   F23       1.0  0.43908  0.83554  0.43774  1.0000
  F   F24       1.0  0.43698  0.83898  0.93633  1.0000
  F   F25       1.0  0.69462  0.33975  0.43391  1.0000
  F   F26       1.0  0.68306  0.32860  0.94406  1.0000
  F   F27       1.0  0.68222  0.84536  0.44165  1.0000
  F   F28       1.0  0.68807  0.82878  0.94615  1.0000
  F   F29       1.0  0.93527  0.33346  0.43725  1.0000
  F   F30       1.0  0.93565  0.34206  0.94810  1.0000
  F   F31       1.0  0.92505  0.83433  0.46583  1.0000
  F   F32       1.0  0.94121  0.83917  0.93918  1.0000
  F   F33       1.0  0.16945  0.37915  0.20460  1.0000
  F   F34       1.0  0.17514  0.38794  0.69121  1.0000
  F   F35       1.0  0.16902  0.86739  0.19763  1.0000
  F   F36       1.0  0.16826  0.87555  0.69329  1.0000
  F   F37       1.0  0.42419  0.37230  0.19373  1.0000
  F   F38       1.0  0.42021  0.36501  0.70923  1.0000
  F   F39       1.0  0.42782  0.87072  0.18753  1.0000
  F   F40       1.0  0.42242  0.87755  0.68213  1.0000
  F   F41       1.0  0.67195  0.36271  0.19711  1.0000
  F   F42       1.0  0.66514  0.35868  0.70947  1.0000
  F   F43       1.0  0.66869  0.85827  0.19760  1.0000
  F   F44       1.0  0.67810  0.88441  0.69154  1.0000
  F   F45       1.0  0.92477  0.35867  0.20192  1.0000
  F   F46       1.0  0.91738  0.37586  0.69789  1.0000
  F   F47       1.0  0.91889  0.87652  0.19883  1.0000
  F   F48       1.0  0.91321  0.86122  0.70507  1.0000
  F   F49       1.0  0.06510  0.16750  0.05194  1.0000
  F   F50       1.0  0.06528  0.15247  0.56220  1.0000
  F   F51       1.0  0.07111  0.66936  0.04371  1.0000
  F   F52       1.0  0.05056  0.64929  0.57132  1.0000
  F   F53       1.0  0.30605  0.15773  0.07183  1.0000
  F   F54       1.0  0.31678  0.16389  0.54948  1.0000
  F   F55       1.0  0.31361  0.66831  0.04792  1.0000
  F   F56       1.0  0.30907  0.67606  0.54145  1.0000
  F   F57       1.0  0.57067  0.14978  0.05292  1.0000
  F   F58       1.0  0.57268  0.16821  0.54353  1.0000
  F   F59       1.0  0.56613  0.65011  0.05050  1.0000
  F   F60       1.0  0.56622  0.65053  0.54884  1.0000
  F   F61       1.0  0.81453  0.14516  0.05160  1.0000
  F   F62       1.0  0.82601  0.16384  0.54223  1.0000
  F   F63       1.0  0.81043  0.63846  0.06787  1.0000
  F   F64       1.0  0.81197  0.65818  0.55126  1.0000
  F   F65       1.0  0.18995  0.20732  0.23060  1.0000
  F   F66       1.0  0.19450  0.22013  0.72828  1.0000
  F   F67       1.0  0.21260  0.70714  0.19849  1.0000
  F   F68       1.0  0.20594  0.71000  0.70923  1.0000
  F   F69       1.0  0.46040  0.20707  0.21585  1.0000
  F   F70       1.0  0.44829  0.19198  0.72864  1.0000
  F   F71       1.0  0.43894  0.68527  0.21633  1.0000
  F   F72       1.0  0.45427  0.69775  0.72133  1.0000
  F   F73       1.0  0.71028  0.20710  0.20411  1.0000
  F   F74       1.0  0.69953  0.19170  0.70308  1.0000
  F   F75       1.0  0.70977  0.70644  0.21531  1.0000
  F   F76       1.0  0.70453  0.70396  0.70281  1.0000
  F   F77       1.0  0.95255  0.20289  0.19830  1.0000
  F   F78       1.0  0.95608  0.22141  0.70627  1.0000
  F   F79       1.0  0.94167  0.70308  0.22530  1.0000
  F   F80       1.0  0.95692  0.69213  0.71612  1.0000
  F   F81       1.0  0.14594  0.09705  0.04242  1.0000
  F   F82       1.0  0.15350  0.08875  0.54820  1.0000
  F   F83       1.0  0.14698  0.59278  0.04950  1.0000
  F   F84       1.0  0.14483  0.59257  0.53529  1.0000
  F   F85       1.0  0.39853  0.08876  0.05395  1.0000
  F   F86       1.0  0.39856  0.08710  0.54031  1.0000
  F   F87       1.0  0.39807  0.57687  0.03059  1.0000
  F   F88       1.0  0.40209  0.61674  0.55035  1.0000
  F   F89       1.0  0.64516  0.09100  0.04601  1.0000
  F   F90       1.0  0.65139  0.07275  0.53281  1.0000
  F   F91       1.0  0.65519  0.61720  0.02890  1.0000
  F   F92       1.0  0.64613  0.58833  0.53300  1.0000
  F   F93       1.0  0.89792  0.08274  0.03708  1.0000
  F   F94       1.0  0.90643  0.09655  0.53904  1.0000
  F   F95       1.0  0.89934  0.57328  0.03632  1.0000
  F   F96       1.0  0.89978  0.57710  0.55259  1.0000
  F   F97       1.0  0.14681  0.20681  0.12278  1.0000
  F   F98       1.0  0.15273  0.19212  0.62562  1.0000
  F   F99       1.0  0.15059  0.71325  0.12975  1.0000
  F   F100      1.0  0.15131  0.70774  0.60952  1.0000
  F   F101      1.0  0.39109  0.20313  0.14112  1.0000
  F   F102      1.0  0.40278  0.19563  0.61748  1.0000
  F   F103      1.0  0.40696  0.68844  0.10387  1.0000
  F   F104      1.0  0.39698  0.71359  0.64661  1.0000
  F   F105      1.0  0.64723  0.19533  0.14153  1.0000
  F   F106      1.0  0.65231  0.19825  0.61634  1.0000
  F   F107      1.0  0.65233  0.68716  0.14214  1.0000
  F   F108      1.0  0.65392  0.70532  0.61259  1.0000
  F   F109      1.0  0.89899  0.19794  0.11194  1.0000
  F   F110      1.0  0.90155  0.20602  0.62144  1.0000
  F   F111      1.0  0.89810  0.69879  0.10454  1.0000
  F   F112      1.0  0.89680  0.69099  0.64947  1.0000
  F   F113      1.0  0.10256  0.30217  0.37215  1.0000
  F   F114      1.0  0.09720  0.30972  0.87074  1.0000
  F   F115      1.0  0.10166  0.80166  0.38827  1.0000
  F   F116      1.0  0.09737  0.79617  0.87559  1.0000
  F   F117      1.0  0.34928  0.31545  0.37742  1.0000
  F   F118      1.0  0.34710  0.29304  0.87753  1.0000
  F   F119      1.0  0.35527  0.81635  0.34889  1.0000
  F   F120      1.0  0.34813  0.80149  0.86620  1.0000
  F   F121      1.0  0.60246  0.31839  0.35267  1.0000
  F   F122      1.0  0.59680  0.29744  0.88403  1.0000
  F   F123      1.0  0.59871  0.81496  0.36339  1.0000
  F   F124      1.0  0.60381  0.79291  0.85951  1.0000
  F   F125      1.0  0.84453  0.29647  0.36133  1.0000
  F   F126      1.0  0.85122  0.31161  0.86602  1.0000
  F   F127      1.0  0.84582  0.80988  0.36432  1.0000
  F   F128      1.0  0.84734  0.79038  0.88924  1.0000
  F   F129      1.0  0.05882  0.25319  0.15565  1.0000
  F   F130      1.0  0.06281  0.26031  0.63970  1.0000
  F   F131      1.0  0.06849  0.75507  0.13856  1.0000
  F   F132      1.0  0.05738  0.73571  0.64994  1.0000
  F   F133      1.0  0.31543  0.26366  0.14444  1.0000
  F   F134      1.0  0.31618  0.24968  0.64450  1.0000
  F   F135      1.0  0.32262  0.75699  0.12730  1.0000
  F   F136      1.0  0.31455  0.75404  0.64513  1.0000
  F   F137      1.0  0.56831  0.25009  0.14564  1.0000
  F   F138      1.0  0.57129  0.24645  0.64241  1.0000
  F   F139      1.0  0.57500  0.74962  0.12470  1.0000
  F   F140      1.0  0.55980  0.74273  0.65110  1.0000
  F   F141      1.0  0.81287  0.24860  0.13623  1.0000
  F   F142      1.0  0.82082  0.25423  0.63598  1.0000
  F   F143      1.0  0.81695  0.75419  0.13145  1.0000
  F   F144      1.0  0.81672  0.75290  0.63339  1.0000
  F   F145      1.0  0.12073  0.37395  0.11240  1.0000
  F   F146      1.0  0.11999  0.35835  0.63089  1.0000
  F   F147      1.0  0.12506  0.88790  0.09401  1.0000
  F   F148      1.0  0.11966  0.85082  0.63430  1.0000
  F   F149      1.0  0.38133  0.40153  0.08643  1.0000
  F   F150      1.0  0.37263  0.35333  0.62513  1.0000
  F   F151      1.0  0.37574  0.86589  0.10753  1.0000
  F   F152      1.0  0.37590  0.89609  0.58615  1.0000
  F   F153      1.0  0.62738  0.36578  0.11400  1.0000
  F   F154      1.0  0.62650  0.36481  0.60653  1.0000
  F   F155      1.0  0.62923  0.88373  0.08335  1.0000
  F   F156      1.0  0.62463  0.86612  0.61812  1.0000
  F   F157      1.0  0.87265  0.35822  0.11873  1.0000
  F   F158      1.0  0.87734  0.39078  0.58589  1.0000
  F   F159      1.0  0.87734  0.87502  0.10166  1.0000
  F   F160      1.0  0.87101  0.87462  0.60842  1.0000
  F   F161      1.0  0.18169  0.25639  0.36008  1.0000
  F   F162      1.0  0.17180  0.24533  0.88874  1.0000
  F   F163      1.0  0.19446  0.75006  0.34980  1.0000
  F   F164      1.0  0.18063  0.74146  0.86328  1.0000
  F   F165      1.0  0.42190  0.24597  0.39770  1.0000
  F   F166      1.0  0.43472  0.24456  0.86552  1.0000
  F   F167      1.0  0.45592  0.74231  0.33260  1.0000
  F   F168      1.0  0.43049  0.74078  0.86851  1.0000
  F   F169      1.0  0.68046  0.24310  0.36821  1.0000
  F   F170      1.0  0.68280  0.24364  0.84629  1.0000
  F   F171      1.0  0.68210  0.73970  0.36534  1.0000
  F   F172      1.0  0.69398  0.75283  0.83579  1.0000
  F   F173      1.0  0.92860  0.24504  0.35938  1.0000
  F   F174      1.0  0.93263  0.25146  0.86194  1.0000
  F   F175      1.0  0.92919  0.74016  0.36871  1.0000
  F   F176      1.0  0.93671  0.75194  0.86025  1.0000
  F   F177      1.0  0.12204  0.12327  0.41942  1.0000
  F   F178      1.0  0.11870  0.11911  0.90662  1.0000
  F   F179      1.0  0.12474  0.63357  0.39351  1.0000
  F   F180      1.0  0.12516  0.62512  0.90104  1.0000
  F   F181      1.0  0.36951  0.13474  0.39190  1.0000
  F   F182      1.0  0.36957  0.13044  0.90900  1.0000
  F   F183      1.0  0.37535  0.61983  0.41815  1.0000
  F   F184      1.0  0.37399  0.62376  0.88318  1.0000
  F   F185      1.0  0.62701  0.12797  0.38855  1.0000
  F   F186      1.0  0.62451  0.11113  0.89403  1.0000
  F   F187      1.0  0.62736  0.63854  0.37627  1.0000
  F   F188      1.0  0.62805  0.63530  0.89316  1.0000
  F   F189      1.0  0.87515  0.10128  0.42471  1.0000
  F   F190      1.0  0.87612  0.14538  0.87904  1.0000
  F   F191      1.0  0.86624  0.61703  0.40855  1.0000
  F   F192      1.0  0.88250  0.63585  0.87546  1.0000
  F   F193      1.0  0.01026  0.37139  0.05860  1.0000
  F   F194      1.0  0.00454  0.37502  0.58806  1.0000
  F   F195      1.0  0.00634  0.86260  0.07517  1.0000
  F   F196      1.0  0.00710  0.84804  0.57648  1.0000
  F   F197      1.0  0.25767  0.37524  0.05944  1.0000
  F   F198      1.0  0.25531  0.37431  0.57130  1.0000
  F   F199      1.0  0.25892  0.85160  0.07738  1.0000
  F   F200      1.0  0.25906  0.86978  0.56475  1.0000
  F   F201      1.0  0.51110  0.35011  0.07467  1.0000
  F   F202      1.0  0.50845  0.34685  0.57838  1.0000
  F   F203      1.0  0.51124  0.84743  0.07930  1.0000
  F   F204      1.0  0.51019  0.86145  0.56331  1.0000
  F   F205      1.0  0.76184  0.35992  0.06986  1.0000
  F   F206      1.0  0.75562  0.35538  0.58651  1.0000
  F   F207      1.0  0.76758  0.87228  0.05118  1.0000
  F   F208      1.0  0.76011  0.85898  0.57430  1.0000
  F   F209      1.0  0.06525  0.49157  0.17964  1.0000
  F   F210      1.0  0.07617  0.49034  0.65906  1.0000
  F   F211      1.0  0.06819  0.98371  0.18991  1.0000
  F   F212      1.0  0.07127  0.98934  0.67369  1.0000
  F   F213      1.0  0.31434  0.47703  0.19991  1.0000
  F   F214      1.0  0.31852  0.50605  0.65246  1.0000
  F   F215      1.0  0.30979  0.98917  0.17542  1.0000
  F   F216      1.0  0.31194  0.98916  0.67484  1.0000
  F   F217      1.0  0.56936  0.48542  0.17309  1.0000
  F   F218      1.0  0.56827  0.48234  0.68448  1.0000
  F   F219      1.0  0.56352  0.98003  0.18866  1.0000
  F   F220      1.0  0.56834  0.98173  0.66841  1.0000
  F   F221      1.0  0.81716  0.47797  0.18020  1.0000
  F   F222      1.0  0.81383  0.48739  0.68498  1.0000
  F   F223      1.0  0.81996  0.97799  0.17535  1.0000
  F   F224      1.0  0.81861  0.99083  0.67093  1.0000
  F   F225      1.0  0.23912  0.15099  0.43091  1.0000
  F   F226      1.0  0.24367  0.15833  0.90217  1.0000
  F   F227      1.0  0.24795  0.63269  0.42462  1.0000
  F   F228      1.0  0.24199  0.63505  0.92644  1.0000
  F   F229      1.0  0.48469  0.13890  0.43866  1.0000
  F   F230      1.0  0.49177  0.11296  0.95447  1.0000
  F   F231      1.0  0.49376  0.62094  0.43678  1.0000
  F   F232      1.0  0.48872  0.62681  0.93919  1.0000
  F   F233      1.0  0.73670  0.12672  0.43498  1.0000
  F   F234      1.0  0.73664  0.12694  0.94768  1.0000
  F   F235      1.0  0.73680  0.63398  0.44292  1.0000
  F   F236      1.0  0.74421  0.61855  0.93346  1.0000
  F   F237      1.0  0.99299  0.14814  0.42877  1.0000
  F   F238      1.0  0.98548  0.12586  0.94758  1.0000
  F   F239      1.0  0.99333  0.63907  0.42594  1.0000
  F   F240      1.0  0.99250  0.63519  0.93138  1.0000
  F   F241      1.0  0.17425  0.02936  0.33285  1.0000
  F   F242      1.0  0.17749  0.01070  0.83696  1.0000
  F   F243      1.0  0.18939  0.52930  0.31038  1.0000
  F   F244      1.0  0.18016  0.51156  0.83055  1.0000
  F   F245      1.0  0.42271  0.01327  0.32849  1.0000
  F   F246      1.0  0.43059  0.01222  0.83271  1.0000
  F   F247      1.0  0.43078  0.51025  0.33798  1.0000
  F   F248      1.0  0.43145  0.51859  0.80996  1.0000
  F   F249      1.0  0.68851  0.02448  0.30606  1.0000
  F   F250      1.0  0.68836  0.01773  0.80616  1.0000
  F   F251      1.0  0.67974  0.52579  0.31193  1.0000
  F   F252      1.0  0.68034  0.50893  0.82485  1.0000
  F   F253      1.0  0.93297  0.00768  0.33512  1.0000
  F   F254      1.0  0.93516  0.03813  0.79769  1.0000
  F   F255      1.0  0.92215  0.52334  0.32693  1.0000
  F   F256      1.0  0.93132  0.50474  0.84155  1.0000
  F   F257      1.0  0.00160  0.24072  0.01135  1.0000
  F   F258      1.0  0.00387  0.26803  0.49899  1.0000
  F   F259      1.0  0.99876  0.74100  0.00573  1.0000
  F   F260      1.0  0.00128  0.76139  0.48701  1.0000
  F   F261      1.0  0.24323  0.24410  0.00869  1.0000
  F   F262      1.0  0.24627  0.24158  0.52118  1.0000
  F   F263      1.0  0.24854  0.74908  0.99362  1.0000
  F   F264      1.0  0.24395  0.75028  0.49342  1.0000
  F   F265      1.0  0.49815  0.24237  0.00198  1.0000
  F   F266      1.0  0.50078  0.22912  0.52542  1.0000
  F   F267      1.0  0.49931  0.74178  0.00871  1.0000
  F   F268      1.0  0.49998  0.74110  0.50014  1.0000
  F   F269      1.0  0.74994  0.25488  0.99741  1.0000
  F   F270      1.0  0.75114  0.23908  0.50417  1.0000
  F   F271      1.0  0.74847  0.73018  0.01062  1.0000
  F   F272      1.0  0.75192  0.77691  0.47669  1.0000
  F   F273      1.0  0.12478  0.01219  0.25127  1.0000
  F   F274      1.0  0.13004  0.01109  0.75691  1.0000
  F   F275      1.0  0.12367  0.51584  0.25977  1.0000
  F   F276      1.0  0.11783  0.49769  0.76228  1.0000
  F   F277      1.0  0.37679  0.00915  0.23507  1.0000
  F   F278      1.0  0.36291  0.98090  0.77562  1.0000
  F   F279      1.0  0.38471  0.50444  0.23379  1.0000
  F   F280      1.0  0.36901  0.48853  0.75253  1.0000
  F   F281      1.0  0.62787  0.99575  0.24862  1.0000
  F   F282      1.0  0.63805  0.00469  0.72595  1.0000
  F   F283      1.0  0.63488  0.49894  0.22836  1.0000
  F   F284      1.0  0.62213  0.50146  0.75393  1.0000
  F   F285      1.0  0.87278  0.00186  0.26261  1.0000
  F   F286      1.0  0.87195  0.00553  0.74896  1.0000
  F   F287      1.0  0.86964  0.49112  0.24840  1.0000
  F   F288      1.0  0.87085  0.50915  0.75386  1.0000
  F   F289      1.0  0.04163  0.02893  0.04151  1.0000
  F   F290      1.0  0.03912  0.03025  0.53358  1.0000
  F   F291      1.0  0.04160  0.53711  0.02521  1.0000
  F   F292      1.0  0.04445  0.52713  0.51546  1.0000
  F   F293      1.0  0.29164  0.03282  0.01846  1.0000
  F   F294      1.0  0.29059  0.03331  0.52072  1.0000
  F   F295      1.0  0.30134  0.53270  0.01589  1.0000
  F   F296      1.0  0.29942  0.53006  0.50249  1.0000
  F   F297      1.0  0.55057  0.01547  0.01675  1.0000
  F   F298      1.0  0.54204  0.03941  0.53079  1.0000
  F   F299      1.0  0.54917  0.52411  0.00426  1.0000
  F   F300      1.0  0.55547  0.52160  0.50635  1.0000
  F   F301      1.0  0.79397  0.03054  0.01386  1.0000
  F   F302      1.0  0.78652  0.02961  0.53363  1.0000
  F   F303      1.0  0.80180  0.52310  0.02458  1.0000
  F   F304      1.0  0.79388  0.52757  0.52232  1.0000
  F   F305      1.0  0.24099  0.41200  0.22700  1.0000
  F   F306      1.0  0.23884  0.41004  0.72983  1.0000
  F   F307      1.0  0.22967  0.91864  0.22065  1.0000
  F   F308      1.0  0.23469  0.91257  0.71556  1.0000
  F   F309      1.0  0.49013  0.41379  0.22148  1.0000
  F   F310      1.0  0.49160  0.39538  0.72612  1.0000
  F   F311      1.0  0.48832  0.92019  0.22235  1.0000
  F   F312      1.0  0.48527  0.91146  0.71777  1.0000
  F   F313      1.0  0.73340  0.42107  0.21346  1.0000
  F   F314      1.0  0.72980  0.40997  0.72767  1.0000
  F   F315      1.0  0.73607  0.91333  0.21648  1.0000
  F   F316      1.0  0.73840  0.90597  0.74178  1.0000
  F   F317      1.0  0.98266  0.40857  0.22297  1.0000
  F   F318      1.0  0.98308  0.42150  0.74075  1.0000
  F   F319      1.0  0.98134  0.89598  0.24925  1.0000
  F   F320      1.0  0.97983  0.92203  0.71586  1.0000
  F   F321      1.0  0.20037  0.47281  0.47712  1.0000
  F   F322      1.0  0.20483  0.47987  0.96685  1.0000
  F   F323      1.0  0.20229  0.96666  0.48263  1.0000
  F   F324      1.0  0.20938  0.97861  0.98069  1.0000
  F   F325      1.0  0.44289  0.47286  0.51737  1.0000
  F   F326      1.0  0.46540  0.45562  0.96340  1.0000
  F   F327      1.0  0.45778  0.96312  0.46662  1.0000
  F   F328      1.0  0.45773  0.97043  0.97951  1.0000
  F   F329      1.0  0.71037  0.46311  0.47844  1.0000
  F   F330      1.0  0.70068  0.46543  0.97910  1.0000
  F   F331      1.0  0.71554  0.96339  0.46382  1.0000
  F   F332      1.0  0.71086  0.96078  0.96817  1.0000
  F   F333      1.0  0.95421  0.45608  0.47675  1.0000
  F   F334      1.0  0.95571  0.46840  0.98511  1.0000
  F   F335      1.0  0.95656  0.97061  0.49566  1.0000
  F   F336      1.0  0.95595  0.96241  0.95994  1.0000
  F   F337      1.0  0.01502  0.08170  0.28795  1.0000
  F   F338      1.0  0.01386  0.10063  0.76652  1.0000
  F   F339      1.0  0.00707  0.60329  0.26978  1.0000
  F   F340      1.0  0.01909  0.55821  0.78847  1.0000
  F   F341      1.0  0.25993  0.08857  0.28491  1.0000
  F   F342      1.0  0.26141  0.09909  0.77316  1.0000
  F   F343      1.0  0.27092  0.59368  0.27191  1.0000
  F   F344      1.0  0.26185  0.58025  0.77163  1.0000
  F   F345      1.0  0.51187  0.09430  0.27623  1.0000
  F   F346      1.0  0.51317  0.09052  0.78251  1.0000
  F   F347      1.0  0.51133  0.60196  0.26274  1.0000
  F   F348      1.0  0.51502  0.58017  0.76827  1.0000
  F   F349      1.0  0.77251  0.07357  0.27907  1.0000
  F   F350      1.0  0.76611  0.10307  0.76290  1.0000
  F   F351      1.0  0.76603  0.58885  0.27708  1.0000
  F   F352      1.0  0.76045  0.58343  0.77166  1.0000
  F   F353      1.0  0.10866  0.41306  0.46032  1.0000
  F   F354      1.0  0.09813  0.40843  0.96682  1.0000
  F   F355      1.0  0.09894  0.92140  0.46230  1.0000
  F   F356      1.0  0.09885  0.90503  0.96879  1.0000
  F   F357      1.0  0.35581  0.40447  0.47111  1.0000
  F   F358      1.0  0.34764  0.40299  0.96656  1.0000
  F   F359      1.0  0.35185  0.90642  0.44941  1.0000
  F   F360      1.0  0.34605  0.91318  0.96041  1.0000
  F   F361      1.0  0.60690  0.39192  0.46467  1.0000
  F   F362      1.0  0.59683  0.38448  0.97246  1.0000
  F   F363      1.0  0.59394  0.92369  0.46172  1.0000
  F   F364      1.0  0.60410  0.91831  0.93174  1.0000
  F   F365      1.0  0.84714  0.39938  0.45874  1.0000
  F   F366      1.0  0.85051  0.40392  0.96810  1.0000
  F   F367      1.0  0.84454  0.92846  0.45353  1.0000
  F   F368      1.0  0.85597  0.92445  0.94884  1.0000
  F   F369      1.0  0.05180  0.31002  0.28641  1.0000
  F   F370      1.0  0.04387  0.28958  0.79298  1.0000
  F   F371      1.0  0.04540  0.80069  0.29097  1.0000
  F   F372      1.0  0.04206  0.80457  0.78978  1.0000
  F   F373      1.0  0.29895  0.31071  0.29087  1.0000
  F   F374      1.0  0.29411  0.31666  0.79193  1.0000
  F   F375      1.0  0.29660  0.79679  0.29010  1.0000
  F   F376      1.0  0.30417  0.79488  0.77721  1.0000
  F   F377      1.0  0.55345  0.29946  0.27842  1.0000
  F   F378      1.0  0.54561  0.28562  0.80504  1.0000
  F   F379      1.0  0.54741  0.79050  0.29057  1.0000
  F   F380      1.0  0.54195  0.79930  0.80707  1.0000
  F   F381      1.0  0.78637  0.28705  0.29632  1.0000
  F   F382      1.0  0.79592  0.29916  0.79173  1.0000
  F   F383      1.0  0.79908  0.77878  0.27567  1.0000
  F   F384      1.0  0.79203  0.78039  0.80076  1.0000
