data_image0
_chemical_formula_structural       Hf96F384
_chemical_formula_sum              "Hf96 F384"
_cell_length_a       31.0417
_cell_length_b       15.5185
_cell_length_c       15.5089
_cell_angle_alpha    63.342
_cell_angle_beta     63.342
_cell_angle_gamma    80.1625

_space_group_name_H-M_alt    "P 1"
_space_group_IT_number       1

loop_
  _space_group_symop_operation_xyz
  'x, y, z'

loop_
  _atom_site_type_symbol
  _atom_site_label
  _atom_site_symmetry_multiplicity
  _atom_site_fract_x
  _atom_site_fract_y
  _atom_site_fract_z
  _atom_site_occupancy
  Hf  Hf1       1.0  0.19492  0.10621  0.37482  1.0000
  Hf  Hf2       1.0  0.20077  0.10038  0.87700  1.0000
  Hf  Hf3       1.0  0.19405  0.59825  0.37332  1.0000
  Hf  Hf4       1.0  0.19174  0.60164  0.89077  1.0000
  Hf  Hf5       1.0  0.45066  0.10660  0.37501  1.0000
  Hf  Hf6       1.0  0.44828  0.10865  0.86613  1.0000
  Hf  Hf7       1.0  0.44267  0.59532  0.38524  1.0000
  Hf  Hf8       1.0  0.44551  0.59657  0.87801  1.0000
  Hf  Hf9       1.0  0.69649  0.11280  0.37089  1.0000
  Hf  Hf10      1.0  0.69901  0.10885  0.87549  1.0000
  Hf  Hf11      1.0  0.69336  0.61641  0.37843  1.0000
  Hf  Hf12      1.0  0.69371  0.61994  0.87514  1.0000
  Hf  Hf13      1.0  0.94631  0.09789  0.38570  1.0000
  Hf  Hf14      1.0  0.94817  0.10669  0.87487  1.0000
  Hf  Hf15      1.0  0.93832  0.60923  0.38256  1.0000
  Hf  Hf16      1.0  0.95179  0.61529  0.87301  1.0000
  Hf  Hf17      1.0  0.05456  0.38943  0.12362  1.0000
  Hf  Hf18      1.0  0.05425  0.39402  0.63193  1.0000
  Hf  Hf19      1.0  0.05197  0.88011  0.13364  1.0000
  Hf  Hf20      1.0  0.05765  0.89528  0.62138  1.0000
  Hf  Hf21      1.0  0.30263  0.39289  0.12327  1.0000
  Hf  Hf22      1.0  0.30440  0.38688  0.62840  1.0000
  Hf  Hf23      1.0  0.30463  0.88240  0.13046  1.0000
  Hf  Hf24      1.0  0.30427  0.88587  0.62485  1.0000
  Hf  Hf25      1.0  0.54880  0.39886  0.12658  1.0000
  Hf  Hf26      1.0  0.55505  0.39442  0.62044  1.0000
  Hf  Hf27      1.0  0.55836  0.89871  0.12771  1.0000
  Hf  Hf28      1.0  0.55511  0.89834  0.61051  1.0000
  Hf  Hf29      1.0  0.80371  0.39784  0.12071  1.0000
  Hf  Hf30      1.0  0.80135  0.38395  0.62742  1.0000
  Hf  Hf31      1.0  0.80104  0.89162  0.12266  1.0000
  Hf  Hf32      1.0  0.80300  0.89903  0.61954  1.0000
  Hf  Hf33      1.0  0.05752  0.18063  0.41252  1.0000
  Hf  Hf34      1.0  0.05788  0.17448  0.92460  1.0000
  Hf  Hf35      1.0  0.05178  0.67932  0.42542  1.0000
  Hf  Hf36      1.0  0.06045  0.68579  0.91031  1.0000
  Hf  Hf37      1.0  0.30816  0.18187  0.41652  1.0000
  Hf  Hf38      1.0  0.30835  0.18236  0.92310  1.0000
  Hf  Hf39      1.0  0.30319  0.67676  0.42366  1.0000
  Hf  Hf40      1.0  0.30421  0.67865  0.92371  1.0000
  Hf  Hf41      1.0  0.55931  0.19361  0.41065  1.0000
  Hf  Hf42      1.0  0.55690  0.18242  0.91024  1.0000
  Hf  Hf43      1.0  0.55624  0.69199  0.40714  1.0000
  Hf  Hf44      1.0  0.55977  0.68838  0.90946  1.0000
  Hf  Hf45      1.0  0.80839  0.18573  0.41085  1.0000
  Hf  Hf46      1.0  0.80931  0.19125  0.90949  1.0000
  Hf  Hf47      1.0  0.80330  0.68087  0.41953  1.0000
  Hf  Hf48      1.0  0.81398  0.68230  0.90014  1.0000
  Hf  Hf49      1.0  0.15441  0.38829  0.34116  1.0000
  Hf  Hf50      1.0  0.16076  0.38236  0.82723  1.0000
  Hf  Hf51      1.0  0.15610  0.88128  0.34180  1.0000
  Hf  Hf52      1.0  0.16011  0.88835  0.83069  1.0000
  Hf  Hf53      1.0  0.40701  0.38791  0.33336  1.0000
  Hf  Hf54      1.0  0.41048  0.38522  0.83172  1.0000
  Hf  Hf55      1.0  0.40967  0.89185  0.32878  1.0000
  Hf  Hf56      1.0  0.41089  0.88015  0.83381  1.0000
  Hf  Hf57      1.0  0.65706  0.39246  0.33407  1.0000
  Hf  Hf58      1.0  0.65575  0.39748  0.83454  1.0000
  Hf  Hf59      1.0  0.65771  0.89441  0.32621  1.0000
  Hf  Hf60      1.0  0.65862  0.89277  0.83290  1.0000
  Hf  Hf61      1.0  0.90889  0.38436  0.33491  1.0000
  Hf  Hf62      1.0  0.91504  0.39283  0.82714  1.0000
  Hf  Hf63      1.0  0.90906  0.88714  0.33023  1.0000
  Hf  Hf64      1.0  0.90908  0.89103  0.82940  1.0000
  Hf  Hf65      1.0  0.19179  0.32196  0.08546  1.0000
  Hf  Hf66      1.0  0.19279  0.30773  0.58579  1.0000
  Hf  Hf67      1.0  0.18999  0.81344  0.08494  1.0000
  Hf  Hf68      1.0  0.19616  0.81206  0.58838  1.0000
  Hf  Hf69      1.0  0.44097  0.31343  0.08677  1.0000
  Hf  Hf70      1.0  0.44752  0.31494  0.58397  1.0000
  Hf  Hf71      1.0  0.44455  0.81504  0.08483  1.0000
  Hf  Hf72      1.0  0.44362  0.81703  0.58398  1.0000
  Hf  Hf73      1.0  0.69193  0.33249  0.08203  1.0000
  Hf  Hf74      1.0  0.69603  0.32701  0.57733  1.0000
  Hf  Hf75      1.0  0.69819  0.81921  0.07569  1.0000
  Hf  Hf76      1.0  0.69609  0.82581  0.57380  1.0000
  Hf  Hf77      1.0  0.94467  0.32361  0.08125  1.0000
  Hf  Hf78      1.0  0.94565  0.31662  0.58567  1.0000
  Hf  Hf79      1.0  0.94077  0.81516  0.08509  1.0000
  Hf  Hf80      1.0  0.94478  0.81481  0.58561  1.0000
  Hf  Hf81      1.0  0.09403  0.11217  0.16479  1.0000
  Hf  Hf82      1.0  0.09192  0.10645  0.66638  1.0000
  Hf  Hf83      1.0  0.08342  0.59702  0.18519  1.0000
  Hf  Hf84      1.0  0.09507  0.61986  0.65960  1.0000
  Hf  Hf85      1.0  0.33815  0.10273  0.17415  1.0000
  Hf  Hf86      1.0  0.34220  0.10675  0.66605  1.0000
  Hf  Hf87      1.0  0.34043  0.60918  0.16943  1.0000
  Hf  Hf88      1.0  0.33826  0.60265  0.67667  1.0000
  Hf  Hf89      1.0  0.59303  0.12354  0.16050  1.0000
  Hf  Hf90      1.0  0.59070  0.11382  0.66355  1.0000
  Hf  Hf91      1.0  0.58826  0.61211  0.17310  1.0000
  Hf  Hf92      1.0  0.58932  0.61930  0.66522  1.0000
  Hf  Hf93      1.0  0.84136  0.12148  0.16111  1.0000
  Hf  Hf94      1.0  0.84490  0.11270  0.66584  1.0000
  Hf  Hf95      1.0  0.84410  0.60725  0.16225  1.0000
  Hf  Hf96      1.0  0.83470  0.60587  0.66972  1.0000
  F   F1        1.0  0.07798  0.10619  0.31710  1.0000
  F   F2        1.0  0.08078  0.13643  0.80505  1.0000
  F   F3        1.0  0.07053  0.61083  0.31808  1.0000
  F   F4        1.0  0.08016  0.62367  0.80384  1.0000
  F   F5        1.0  0.32985  0.12710  0.30528  1.0000
  F   F6        1.0  0.33180  0.12341  0.79643  1.0000
  F   F7        1.0  0.32785  0.62749  0.30314  1.0000
  F   F8        1.0  0.32618  0.64019  0.79779  1.0000
  F   F9        1.0  0.58839  0.15303  0.27951  1.0000
  F   F10       1.0  0.57601  0.13291  0.79896  1.0000
  F   F11       1.0  0.57630  0.61672  0.31356  1.0000
  F   F12       1.0  0.57769  0.61814  0.81413  1.0000
  F   F13       1.0  0.82443  0.12578  0.30819  1.0000
  F   F14       1.0  0.83279  0.14128  0.79369  1.0000
  F   F15       1.0  0.83056  0.65848  0.28761  1.0000
  F   F16       1.0  0.82186  0.60732  0.81951  1.0000
  F   F17       1.0  0.18396  0.33914  0.45214  1.0000
  F   F18       1.0  0.18398  0.32762  0.95369  1.0000
  F   F19       1.0  0.19412  0.84392  0.44241  1.0000
  F   F20       1.0  0.18889  0.84460  0.93971  1.0000
  F   F21       1.0  0.43825  0.34710  0.43359  1.0000
  F   F22       1.0  0.43062  0.32101  0.96155  1.0000
  F   F23       1.0  0.44184  0.85414  0.44356  1.0000
  F   F24       1.0  0.44177  0.83508  0.93368  1.0000
  F   F25       1.0  0.68963  0.34903  0.44566  1.0000
  F   F26       1.0  0.69150  0.37050  0.92848  1.0000
  F   F27       1.0  0.68511  0.85259  0.43517  1.0000
  F   F28       1.0  0.68039  0.83913  0.95428  1.0000
  F   F29       1.0  0.93751  0.34431  0.44979  1.0000
  F   F30       1.0  0.94387  0.35314  0.93263  1.0000
  F   F31       1.0  0.93248  0.82905  0.44903  1.0000
  F   F32       1.0  0.93320  0.83712  0.95133  1.0000
  F   F33       1.0  0.15838  0.36691  0.20698  1.0000
  F   F34       1.0  0.17757  0.37283  0.68230  1.0000
  F   F35       1.0  0.16704  0.85752  0.19610  1.0000
  F   F36       1.0  0.16408  0.86106  0.70689  1.0000
  F   F37       1.0  0.41297  0.36078  0.20523  1.0000
  F   F38       1.0  0.41900  0.35725  0.70345  1.0000
  F   F39       1.0  0.40963  0.87151  0.20124  1.0000
  F   F40       1.0  0.41225  0.85989  0.70944  1.0000
  F   F41       1.0  0.67340  0.38124  0.19017  1.0000
  F   F42       1.0  0.66912  0.38140  0.68800  1.0000
  F   F43       1.0  0.67017  0.87633  0.19517  1.0000
  F   F44       1.0  0.66917  0.87367  0.69279  1.0000
  F   F45       1.0  0.92025  0.37351  0.19775  1.0000
  F   F46       1.0  0.92219  0.36246  0.69875  1.0000
  F   F47       1.0  0.91841  0.88495  0.19319  1.0000
  F   F48       1.0  0.92317  0.86597  0.69826  1.0000
  F   F49       1.0  0.06968  0.15883  0.05504  1.0000
  F   F50       1.0  0.06126  0.15391  0.56109  1.0000
  F   F51       1.0  0.06723  0.64908  0.05564  1.0000
  F   F52       1.0  0.05953  0.66246  0.56136  1.0000
  F   F53       1.0  0.31707  0.17423  0.04750  1.0000
  F   F54       1.0  0.31535  0.15815  0.55382  1.0000
  F   F55       1.0  0.31134  0.64837  0.06771  1.0000
  F   F56       1.0  0.31539  0.64417  0.55926  1.0000
  F   F57       1.0  0.56520  0.17623  0.04795  1.0000
  F   F58       1.0  0.56568  0.17238  0.53979  1.0000
  F   F59       1.0  0.55752  0.65917  0.06008  1.0000
  F   F60       1.0  0.57411  0.66619  0.54405  1.0000
  F   F61       1.0  0.81477  0.16420  0.04577  1.0000
  F   F62       1.0  0.81984  0.16136  0.55519  1.0000
  F   F63       1.0  0.82610  0.65883  0.03026  1.0000
  F   F64       1.0  0.79439  0.64930  0.57108  1.0000
  F   F65       1.0  0.20207  0.19444  0.22253  1.0000
  F   F66       1.0  0.20465  0.19327  0.70096  1.0000
  F   F67       1.0  0.20850  0.68693  0.21498  1.0000
  F   F68       1.0  0.20429  0.70076  0.72363  1.0000
  F   F69       1.0  0.46121  0.19836  0.21653  1.0000
  F   F70       1.0  0.45878  0.19489  0.71172  1.0000
  F   F71       1.0  0.44668  0.71065  0.22493  1.0000
  F   F72       1.0  0.44399  0.69244  0.70498  1.0000
  F   F73       1.0  0.70889  0.21724  0.20913  1.0000
  F   F74       1.0  0.71072  0.20895  0.71356  1.0000
  F   F75       1.0  0.70742  0.69489  0.22935  1.0000
  F   F76       1.0  0.70663  0.71126  0.69568  1.0000
  F   F77       1.0  0.95791  0.20162  0.23708  1.0000
  F   F78       1.0  0.95378  0.19204  0.71070  1.0000
  F   F79       1.0  0.94062  0.69005  0.21870  1.0000
  F   F80       1.0  0.96090  0.70684  0.70578  1.0000
  F   F81       1.0  0.15231  0.10372  0.03940  1.0000
  F   F82       1.0  0.14430  0.08803  0.52987  1.0000
  F   F83       1.0  0.14386  0.58251  0.05336  1.0000
  F   F84       1.0  0.14667  0.58934  0.53882  1.0000
  F   F85       1.0  0.39464  0.09489  0.03468  1.0000
  F   F86       1.0  0.39646  0.10457  0.53619  1.0000
  F   F87       1.0  0.40007  0.59741  0.03971  1.0000
  F   F88       1.0  0.40170  0.57653  0.54498  1.0000
  F   F89       1.0  0.65329  0.09371  0.03641  1.0000
  F   F90       1.0  0.65421  0.10122  0.52486  1.0000
  F   F91       1.0  0.64554  0.62373  0.03904  1.0000
  F   F92       1.0  0.65112  0.59468  0.53698  1.0000
  F   F93       1.0  0.89948  0.11016  0.04331  1.0000
  F   F94       1.0  0.90495  0.07876  0.55164  1.0000
  F   F95       1.0  0.90357  0.58320  0.02899  1.0000
  F   F96       1.0  0.89379  0.62390  0.53178  1.0000
  F   F97       1.0  0.14548  0.20232  0.14618  1.0000
  F   F98       1.0  0.14742  0.18335  0.62469  1.0000
  F   F99       1.0  0.15099  0.69186  0.14591  1.0000
  F   F100      1.0  0.15924  0.69341  0.61394  1.0000
  F   F101      1.0  0.40058  0.19070  0.14135  1.0000
  F   F102      1.0  0.40557  0.19963  0.63975  1.0000
  F   F103      1.0  0.39961  0.69120  0.12774  1.0000
  F   F104      1.0  0.39831  0.69015  0.61019  1.0000
  F   F105      1.0  0.64849  0.22386  0.10083  1.0000
  F   F106      1.0  0.65044  0.20507  0.62479  1.0000
  F   F107      1.0  0.65428  0.70111  0.13871  1.0000
  F   F108      1.0  0.65047  0.71431  0.62633  1.0000
  F   F109      1.0  0.90858  0.19863  0.13301  1.0000
  F   F110      1.0  0.90021  0.20167  0.62550  1.0000
  F   F111      1.0  0.90018  0.69087  0.11175  1.0000
  F   F112      1.0  0.89901  0.69523  0.64339  1.0000
  F   F113      1.0  0.09417  0.31854  0.38524  1.0000
  F   F114      1.0  0.10407  0.28629  0.86100  1.0000
  F   F115      1.0  0.09547  0.80730  0.37839  1.0000
  F   F116      1.0  0.10064  0.79423  0.89785  1.0000
  F   F117      1.0  0.34716  0.30576  0.37518  1.0000
  F   F118      1.0  0.34875  0.29776  0.87530  1.0000
  F   F119      1.0  0.34406  0.79586  0.37665  1.0000
  F   F120      1.0  0.34293  0.79394  0.88657  1.0000
  F   F121      1.0  0.60053  0.32105  0.35557  1.0000
  F   F122      1.0  0.58784  0.30249  0.87144  1.0000
  F   F123      1.0  0.59137  0.81570  0.35118  1.0000
  F   F124      1.0  0.59839  0.79911  0.88468  1.0000
  F   F125      1.0  0.84154  0.30817  0.36911  1.0000
  F   F126      1.0  0.85523  0.30079  0.87407  1.0000
  F   F127      1.0  0.84768  0.79251  0.37387  1.0000
  F   F128      1.0  0.85126  0.81146  0.86936  1.0000
  F   F129      1.0  0.06015  0.24692  0.15538  1.0000
  F   F130      1.0  0.05421  0.25036  0.65096  1.0000
  F   F131      1.0  0.06337  0.74339  0.14238  1.0000
  F   F132      1.0  0.06304  0.74405  0.64798  1.0000
  F   F133      1.0  0.31164  0.25573  0.14296  1.0000
  F   F134      1.0  0.32258  0.25554  0.62621  1.0000
  F   F135      1.0  0.30816  0.74371  0.15386  1.0000
  F   F136      1.0  0.31619  0.74874  0.63563  1.0000
  F   F137      1.0  0.55836  0.25675  0.14705  1.0000
  F   F138      1.0  0.56743  0.26387  0.62012  1.0000
  F   F139      1.0  0.56982  0.74965  0.15272  1.0000
  F   F140      1.0  0.55713  0.74723  0.65938  1.0000
  F   F141      1.0  0.82114  0.25848  0.13790  1.0000
  F   F142      1.0  0.81107  0.24593  0.65665  1.0000
  F   F143      1.0  0.81690  0.74562  0.11763  1.0000
  F   F144      1.0  0.81206  0.74343  0.63805  1.0000
  F   F145      1.0  0.12625  0.39726  0.07980  1.0000
  F   F146      1.0  0.12174  0.35154  0.62570  1.0000
  F   F147      1.0  0.12564  0.87645  0.09551  1.0000
  F   F148      1.0  0.12711  0.85440  0.61635  1.0000
  F   F149      1.0  0.37097  0.37273  0.10358  1.0000
  F   F150      1.0  0.37715  0.38223  0.60221  1.0000
  F   F151      1.0  0.37862  0.87167  0.09093  1.0000
  F   F152      1.0  0.37311  0.86096  0.61570  1.0000
  F   F153      1.0  0.62403  0.39298  0.08434  1.0000
  F   F154      1.0  0.62292  0.38168  0.60136  1.0000
  F   F155      1.0  0.62609  0.87439  0.10963  1.0000
  F   F156      1.0  0.62541  0.90458  0.57221  1.0000
  F   F157      1.0  0.87809  0.37517  0.08688  1.0000
  F   F158      1.0  0.87134  0.36877  0.60953  1.0000
  F   F159      1.0  0.87066  0.84751  0.12412  1.0000
  F   F160      1.0  0.87254  0.87138  0.60467  1.0000
  F   F161      1.0  0.18040  0.25170  0.36025  1.0000
  F   F162      1.0  0.19243  0.24049  0.84480  1.0000
  F   F163      1.0  0.18860  0.74240  0.35894  1.0000
  F   F164      1.0  0.18806  0.74208  0.86647  1.0000
  F   F165      1.0  0.44279  0.24910  0.34575  1.0000
  F   F166      1.0  0.44197  0.25255  0.85052  1.0000
  F   F167      1.0  0.43324  0.75449  0.36861  1.0000
  F   F168      1.0  0.43166  0.74106  0.85454  1.0000
  F   F169      1.0  0.67904  0.26139  0.35531  1.0000
  F   F170      1.0  0.67801  0.25845  0.86274  1.0000
  F   F171      1.0  0.66662  0.74694  0.38886  1.0000
  F   F172      1.0  0.68582  0.76006  0.85223  1.0000
  F   F173      1.0  0.92641  0.24292  0.38240  1.0000
  F   F174      1.0  0.94357  0.24334  0.85551  1.0000
  F   F175      1.0  0.92816  0.74848  0.35572  1.0000
  F   F176      1.0  0.93758  0.76028  0.85603  1.0000
  F   F177      1.0  0.12445  0.15537  0.37401  1.0000
  F   F178      1.0  0.13136  0.11589  0.89366  1.0000
  F   F179      1.0  0.12252  0.62183  0.39442  1.0000
  F   F180      1.0  0.12757  0.62760  0.88438  1.0000
  F   F181      1.0  0.37582  0.13049  0.38781  1.0000
  F   F182      1.0  0.38239  0.12874  0.87503  1.0000
  F   F183      1.0  0.37002  0.61991  0.40614  1.0000
  F   F184      1.0  0.36701  0.60834  0.91414  1.0000
  F   F185      1.0  0.62657  0.13803  0.38564  1.0000
  F   F186      1.0  0.62702  0.13396  0.88737  1.0000
  F   F187      1.0  0.62294  0.63072  0.38600  1.0000
  F   F188      1.0  0.62728  0.63220  0.89426  1.0000
  F   F189      1.0  0.87731  0.13060  0.38665  1.0000
  F   F190      1.0  0.87705  0.12363  0.89519  1.0000
  F   F191      1.0  0.87129  0.61486  0.39910  1.0000
  F   F192      1.0  0.88619  0.63959  0.86146  1.0000
  F   F193      1.0  0.00656  0.34549  0.07831  1.0000
  F   F194      1.0  0.00979  0.37591  0.55478  1.0000
  F   F195      1.0  0.00279  0.86075  0.08162  1.0000
  F   F196      1.0  0.00999  0.86529  0.57877  1.0000
  F   F197      1.0  0.25490  0.35951  0.07524  1.0000
  F   F198      1.0  0.25859  0.35035  0.58608  1.0000
  F   F199      1.0  0.25353  0.86127  0.08947  1.0000
  F   F200      1.0  0.25816  0.84622  0.58667  1.0000
  F   F201      1.0  0.50416  0.35821  0.08438  1.0000
  F   F202      1.0  0.50428  0.36172  0.57964  1.0000
  F   F203      1.0  0.50372  0.84834  0.10400  1.0000
  F   F204      1.0  0.50487  0.86372  0.57157  1.0000
  F   F205      1.0  0.75426  0.37583  0.07054  1.0000
  F   F206      1.0  0.75958  0.35752  0.57428  1.0000
  F   F207      1.0  0.75578  0.85859  0.07670  1.0000
  F   F208      1.0  0.75740  0.86455  0.57379  1.0000
  F   F209      1.0  0.05941  0.47598  0.18881  1.0000
  F   F210      1.0  0.07396  0.48385  0.68227  1.0000
  F   F211      1.0  0.07119  0.97956  0.18435  1.0000
  F   F212      1.0  0.07413  0.97892  0.67048  1.0000
  F   F213      1.0  0.31813  0.48085  0.17786  1.0000
  F   F214      1.0  0.31575  0.48447  0.68407  1.0000
  F   F215      1.0  0.31767  0.98191  0.18218  1.0000
  F   F216      1.0  0.32030  0.98073  0.67301  1.0000
  F   F217      1.0  0.56481  0.48930  0.18482  1.0000
  F   F218      1.0  0.56635  0.49584  0.67982  1.0000
  F   F219      1.0  0.56631  0.98753  0.18511  1.0000
  F   F220      1.0  0.57031  0.00389  0.66070  1.0000
  F   F221      1.0  0.81907  0.49375  0.16507  1.0000
  F   F222      1.0  0.81948  0.48677  0.67134  1.0000
  F   F223      1.0  0.82595  0.98996  0.14701  1.0000
  F   F224      1.0  0.81871  0.98990  0.67523  1.0000
  F   F225      1.0  0.24739  0.13102  0.41805  1.0000
  F   F226      1.0  0.24774  0.12638  0.92317  1.0000
  F   F227      1.0  0.23895  0.62869  0.43934  1.0000
  F   F228      1.0  0.23854  0.62974  0.94222  1.0000
  F   F229      1.0  0.49258  0.13713  0.44350  1.0000
  F   F230      1.0  0.48984  0.13501  0.93113  1.0000
  F   F231      1.0  0.48984  0.62862  0.43421  1.0000
  F   F232      1.0  0.49390  0.64700  0.92130  1.0000
  F   F233      1.0  0.74265  0.14291  0.41265  1.0000
  F   F234      1.0  0.74460  0.14964  0.91082  1.0000
  F   F235      1.0  0.73914  0.64983  0.41614  1.0000
  F   F236      1.0  0.74030  0.65302  0.92112  1.0000
  F   F237      1.0  0.99086  0.14260  0.42624  1.0000
  F   F238      1.0  0.99550  0.11991  0.93166  1.0000
  F   F239      1.0  0.98811  0.65946  0.41699  1.0000
  F   F240      1.0  0.99520  0.65096  0.92344  1.0000
  F   F241      1.0  0.16856  0.00937  0.35430  1.0000
  F   F242      1.0  0.18442  0.00821  0.81595  1.0000
  F   F243      1.0  0.17913  0.51363  0.32446  1.0000
  F   F244      1.0  0.17494  0.49118  0.84764  1.0000
  F   F245      1.0  0.42968  0.01761  0.33948  1.0000
  F   F246      1.0  0.44022  0.00244  0.82483  1.0000
  F   F247      1.0  0.43052  0.51168  0.32700  1.0000
  F   F248      1.0  0.43812  0.50199  0.82466  1.0000
  F   F249      1.0  0.67841  0.02665  0.31729  1.0000
  F   F250      1.0  0.67705  0.02350  0.82753  1.0000
  F   F251      1.0  0.68359  0.51712  0.32772  1.0000
  F   F252      1.0  0.68015  0.52581  0.82084  1.0000
  F   F253      1.0  0.93013  0.00782  0.32296  1.0000
  F   F254      1.0  0.93178  0.01549  0.82020  1.0000
  F   F255      1.0  0.92942  0.51142  0.32262  1.0000
  F   F256      1.0  0.93871  0.51407  0.81724  1.0000
  F   F257      1.0  0.00257  0.23504  0.01491  1.0000
  F   F258      1.0  0.00388  0.25447  0.48617  1.0000
  F   F259      1.0  0.00184  0.75290  0.00616  1.0000
  F   F260      1.0  0.00091  0.76835  0.48784  1.0000
  F   F261      1.0  0.25221  0.25060  0.99186  1.0000
  F   F262      1.0  0.24893  0.25447  0.49589  1.0000
  F   F263      1.0  0.25015  0.75217  0.00097  1.0000
  F   F264      1.0  0.25551  0.75269  0.49967  1.0000
  F   F265      1.0  0.49688  0.25083  0.99890  1.0000
  F   F266      1.0  0.50605  0.27845  0.47488  1.0000
  F   F267      1.0  0.49968  0.75591  0.99921  1.0000
  F   F268      1.0  0.50172  0.75587  0.49445  1.0000
  F   F269      1.0  0.74712  0.26254  0.00367  1.0000
  F   F270      1.0  0.74547  0.23451  0.52218  1.0000
  F   F271      1.0  0.75731  0.74301  0.00689  1.0000
  F   F272      1.0  0.75387  0.77452  0.47376  1.0000
  F   F273      1.0  0.13775  0.99676  0.23276  1.0000
  F   F274      1.0  0.13349  0.00308  0.72760  1.0000
  F   F275      1.0  0.12115  0.49990  0.26146  1.0000
  F   F276      1.0  0.12924  0.50957  0.75337  1.0000
  F   F277      1.0  0.38163  0.00936  0.23587  1.0000
  F   F278      1.0  0.37879  0.99788  0.74883  1.0000
  F   F279      1.0  0.37518  0.50360  0.25234  1.0000
  F   F280      1.0  0.37293  0.50052  0.76201  1.0000
  F   F281      1.0  0.62288  0.00801  0.24682  1.0000
  F   F282      1.0  0.62134  0.99888  0.75119  1.0000
  F   F283      1.0  0.62838  0.50646  0.23778  1.0000
  F   F284      1.0  0.62547  0.50413  0.74392  1.0000
  F   F285      1.0  0.86575  0.99360  0.25928  1.0000
  F   F286      1.0  0.87157  0.00401  0.75317  1.0000
  F   F287      1.0  0.86392  0.49714  0.26776  1.0000
  F   F288      1.0  0.87741  0.49995  0.74150  1.0000
  F   F289      1.0  0.04329  0.02268  0.04497  1.0000
  F   F290      1.0  0.04716  0.03880  0.52410  1.0000
  F   F291      1.0  0.04603  0.52653  0.01031  1.0000
  F   F292      1.0  0.03365  0.53602  0.54026  1.0000
  F   F293      1.0  0.29819  0.02971  0.02618  1.0000
  F   F294      1.0  0.29184  0.02039  0.52551  1.0000
  F   F295      1.0  0.28886  0.52971  0.02763  1.0000
  F   F296      1.0  0.28955  0.52901  0.52140  1.0000
  F   F297      1.0  0.54387  0.04118  0.01755  1.0000
  F   F298      1.0  0.55065  0.02974  0.50997  1.0000
  F   F299      1.0  0.54323  0.54787  0.01536  1.0000
  F   F300      1.0  0.54669  0.53199  0.52714  1.0000
  F   F301      1.0  0.79214  0.03590  0.01430  1.0000
  F   F302      1.0  0.79288  0.04441  0.52041  1.0000
  F   F303      1.0  0.79455  0.52491  0.01397  1.0000
  F   F304      1.0  0.78995  0.52903  0.50871  1.0000
  F   F305      1.0  0.22468  0.41807  0.22070  1.0000
  F   F306      1.0  0.23838  0.40061  0.74663  1.0000
  F   F307      1.0  0.22118  0.91140  0.24329  1.0000
  F   F308      1.0  0.23506  0.91197  0.72027  1.0000
  F   F309      1.0  0.48142  0.43530  0.20827  1.0000
  F   F310      1.0  0.48516  0.40598  0.72376  1.0000
  F   F311      1.0  0.48023  0.93400  0.22657  1.0000
  F   F312      1.0  0.48341  0.89954  0.71875  1.0000
  F   F313      1.0  0.73206  0.41402  0.23168  1.0000
  F   F314      1.0  0.73363  0.41958  0.72463  1.0000
  F   F315      1.0  0.73557  0.92445  0.21760  1.0000
  F   F316      1.0  0.73691  0.92348  0.71748  1.0000
  F   F317      1.0  0.98468  0.39897  0.23099  1.0000
  F   F318      1.0  0.98348  0.41932  0.71894  1.0000
  F   F319      1.0  0.98663  0.88230  0.23732  1.0000
  F   F320      1.0  0.98495  0.90127  0.73668  1.0000
  F   F321      1.0  0.20592  0.45870  0.48300  1.0000
  F   F322      1.0  0.20514  0.46396  0.98640  1.0000
  F   F323      1.0  0.21047  0.97036  0.48078  1.0000
  F   F324      1.0  0.19997  0.96816  0.98938  1.0000
  F   F325      1.0  0.46201  0.46589  0.47509  1.0000
  F   F326      1.0  0.45405  0.46259  0.97978  1.0000
  F   F327      1.0  0.45678  0.97594  0.49085  1.0000
  F   F328      1.0  0.46388  0.95668  0.98488  1.0000
  F   F329      1.0  0.71151  0.46907  0.47506  1.0000
  F   F330      1.0  0.70039  0.48688  0.99375  1.0000
  F   F331      1.0  0.71373  0.97414  0.47378  1.0000
  F   F332      1.0  0.71765  0.96690  0.96247  1.0000
  F   F333      1.0  0.94903  0.48287  0.49194  1.0000
  F   F334      1.0  0.95886  0.47558  0.97819  1.0000
  F   F335      1.0  0.95886  0.96187  0.47769  1.0000
  F   F336      1.0  0.94963  0.96707  0.99130  1.0000
  F   F337      1.0  0.01576  0.08274  0.28162  1.0000
  F   F338      1.0  0.01518  0.07525  0.78053  1.0000
  F   F339      1.0  0.00719  0.57506  0.28332  1.0000
  F   F340      1.0  0.01544  0.58826  0.76847  1.0000
  F   F341      1.0  0.26187  0.08754  0.26170  1.0000
  F   F342      1.0  0.26626  0.09103  0.76197  1.0000
  F   F343      1.0  0.26409  0.57193  0.28384  1.0000
  F   F344      1.0  0.26003  0.56949  0.79384  1.0000
  F   F345      1.0  0.51829  0.09208  0.27406  1.0000
  F   F346      1.0  0.51943  0.08938  0.76668  1.0000
  F   F347      1.0  0.51068  0.59674  0.27127  1.0000
  F   F348      1.0  0.51301  0.59371  0.77869  1.0000
  F   F349      1.0  0.76415  0.09057  0.26333  1.0000
  F   F350      1.0  0.76467  0.08091  0.77187  1.0000
  F   F351      1.0  0.77000  0.57792  0.27217  1.0000
  F   F352      1.0  0.76054  0.58964  0.77983  1.0000
  F   F353      1.0  0.09934  0.42097  0.47044  1.0000
  F   F354      1.0  0.09642  0.38327  0.95172  1.0000
  F   F355      1.0  0.10025  0.90207  0.47037  1.0000
  F   F356      1.0  0.09833  0.90537  0.96137  1.0000
  F   F357      1.0  0.34999  0.41814  0.45523  1.0000
  F   F358      1.0  0.34650  0.39871  0.96060  1.0000
  F   F359      1.0  0.35235  0.90962  0.45687  1.0000
  F   F360      1.0  0.34700  0.88827  0.96977  1.0000
  F   F361      1.0  0.60327  0.40719  0.45852  1.0000
  F   F362      1.0  0.59739  0.41284  0.94068  1.0000
  F   F363      1.0  0.60006  0.90259  0.44901  1.0000
  F   F364      1.0  0.59813  0.90946  0.96579  1.0000
  F   F365      1.0  0.85130  0.38628  0.46928  1.0000
  F   F366      1.0  0.85194  0.40046  0.95724  1.0000
  F   F367      1.0  0.84690  0.91028  0.46628  1.0000
  F   F368      1.0  0.85353  0.91320  0.95406  1.0000
  F   F369      1.0  0.05803  0.30103  0.27933  1.0000
  F   F370      1.0  0.04133  0.28956  0.80859  1.0000
  F   F371      1.0  0.05730  0.79497  0.28011  1.0000
  F   F372      1.0  0.04790  0.80426  0.79446  1.0000
  F   F373      1.0  0.29635  0.29537  0.29033  1.0000
  F   F374      1.0  0.30550  0.29610  0.78283  1.0000
  F   F375      1.0  0.29104  0.80610  0.28543  1.0000
  F   F376      1.0  0.29140  0.79588  0.78767  1.0000
  F   F377      1.0  0.54896  0.29911  0.27367  1.0000
  F   F378      1.0  0.54573  0.29205  0.77929  1.0000
  F   F379      1.0  0.53654  0.80690  0.28292  1.0000
  F   F380      1.0  0.55361  0.81157  0.77855  1.0000
  F   F381      1.0  0.80192  0.30781  0.27494  1.0000
  F   F382      1.0  0.79432  0.29713  0.79146  1.0000
  F   F383      1.0  0.78697  0.80363  0.28309  1.0000
  F   F384      1.0  0.80802  0.79397  0.77187  1.0000
