data_image0
_chemical_formula_structural       Hf96F384
_chemical_formula_sum              "Hf96 F384"
_cell_length_a       31.0266
_cell_length_b       15.515
_cell_length_c       15.5092
_cell_angle_alpha    63.342
_cell_angle_beta     63.342
_cell_angle_gamma    80.1625

_space_group_name_H-M_alt    "P 1"
_space_group_IT_number       1

loop_
  _space_group_symop_operation_xyz
  'x, y, z'

loop_
  _atom_site_type_symbol
  _atom_site_label
  _atom_site_symmetry_multiplicity
  _atom_site_fract_x
  _atom_site_fract_y
  _atom_site_fract_z
  _atom_site_occupancy
  Hf  Hf1       1.0  0.19434  0.09972  0.37759  1.0000
  Hf  Hf2       1.0  0.19497  0.10924  0.87151  1.0000
  Hf  Hf3       1.0  0.19533  0.60417  0.37147  1.0000
  Hf  Hf4       1.0  0.19728  0.60371  0.88157  1.0000
  Hf  Hf5       1.0  0.44570  0.10596  0.37385  1.0000
  Hf  Hf6       1.0  0.44929  0.11062  0.86291  1.0000
  Hf  Hf7       1.0  0.44568  0.60715  0.37919  1.0000
  Hf  Hf8       1.0  0.44541  0.60591  0.87669  1.0000
  Hf  Hf9       1.0  0.69374  0.09732  0.38742  1.0000
  Hf  Hf10      1.0  0.69579  0.11313  0.87195  1.0000
  Hf  Hf11      1.0  0.69779  0.60752  0.37881  1.0000
  Hf  Hf12      1.0  0.68999  0.60622  0.88818  1.0000
  Hf  Hf13      1.0  0.94597  0.11740  0.36801  1.0000
  Hf  Hf14      1.0  0.94239  0.11417  0.86995  1.0000
  Hf  Hf15      1.0  0.94834  0.61162  0.36968  1.0000
  Hf  Hf16      1.0  0.94834  0.60983  0.87091  1.0000
  Hf  Hf17      1.0  0.05595  0.39005  0.11488  1.0000
  Hf  Hf18      1.0  0.05005  0.39724  0.63428  1.0000
  Hf  Hf19      1.0  0.05446  0.89067  0.12551  1.0000
  Hf  Hf20      1.0  0.05635  0.89600  0.62403  1.0000
  Hf  Hf21      1.0  0.30635  0.40484  0.10913  1.0000
  Hf  Hf22      1.0  0.29956  0.38856  0.63122  1.0000
  Hf  Hf23      1.0  0.30689  0.89460  0.11855  1.0000
  Hf  Hf24      1.0  0.30280  0.89116  0.62321  1.0000
  Hf  Hf25      1.0  0.55032  0.38678  0.13505  1.0000
  Hf  Hf26      1.0  0.55629  0.38719  0.63486  1.0000
  Hf  Hf27      1.0  0.56014  0.90139  0.10915  1.0000
  Hf  Hf28      1.0  0.55425  0.89018  0.62124  1.0000
  Hf  Hf29      1.0  0.80228  0.39002  0.12169  1.0000
  Hf  Hf30      1.0  0.80346  0.39704  0.63029  1.0000
  Hf  Hf31      1.0  0.80400  0.88137  0.13522  1.0000
  Hf  Hf32      1.0  0.80461  0.89365  0.62306  1.0000
  Hf  Hf33      1.0  0.05514  0.18998  0.40875  1.0000
  Hf  Hf34      1.0  0.05866  0.18162  0.91591  1.0000
  Hf  Hf35      1.0  0.05948  0.68935  0.40601  1.0000
  Hf  Hf36      1.0  0.05782  0.68315  0.91438  1.0000
  Hf  Hf37      1.0  0.30437  0.18253  0.41917  1.0000
  Hf  Hf38      1.0  0.30354  0.17841  0.91892  1.0000
  Hf  Hf39      1.0  0.30660  0.67639  0.41697  1.0000
  Hf  Hf40      1.0  0.30704  0.68943  0.91386  1.0000
  Hf  Hf41      1.0  0.55414  0.17668  0.42060  1.0000
  Hf  Hf42      1.0  0.55676  0.18239  0.91457  1.0000
  Hf  Hf43      1.0  0.55683  0.66966  0.43111  1.0000
  Hf  Hf44      1.0  0.54882  0.68622  0.93192  1.0000
  Hf  Hf45      1.0  0.80301  0.18958  0.41925  1.0000
  Hf  Hf46      1.0  0.80426  0.17579  0.92471  1.0000
  Hf  Hf47      1.0  0.80753  0.68136  0.41147  1.0000
  Hf  Hf48      1.0  0.80752  0.68472  0.91492  1.0000
  Hf  Hf49      1.0  0.15816  0.37412  0.33865  1.0000
  Hf  Hf50      1.0  0.16131  0.39313  0.82775  1.0000
  Hf  Hf51      1.0  0.16079  0.88841  0.33128  1.0000
  Hf  Hf52      1.0  0.15480  0.88640  0.83378  1.0000
  Hf  Hf53      1.0  0.40794  0.37696  0.34549  1.0000
  Hf  Hf54      1.0  0.41155  0.39579  0.82026  1.0000
  Hf  Hf55      1.0  0.41072  0.88666  0.32710  1.0000
  Hf  Hf56      1.0  0.41173  0.89352  0.82462  1.0000
  Hf  Hf57      1.0  0.66047  0.38466  0.33655  1.0000
  Hf  Hf58      1.0  0.65802  0.38791  0.84453  1.0000
  Hf  Hf59      1.0  0.65928  0.88529  0.33014  1.0000
  Hf  Hf60      1.0  0.66317  0.88786  0.82540  1.0000
  Hf  Hf61      1.0  0.90729  0.39202  0.33514  1.0000
  Hf  Hf62      1.0  0.90768  0.38600  0.83606  1.0000
  Hf  Hf63      1.0  0.90549  0.88744  0.33873  1.0000
  Hf  Hf64      1.0  0.90728  0.89144  0.82558  1.0000
  Hf  Hf65      1.0  0.19351  0.30815  0.08748  1.0000
  Hf  Hf66      1.0  0.19171  0.31458  0.58574  1.0000
  Hf  Hf67      1.0  0.19467  0.82111  0.08410  1.0000
  Hf  Hf68      1.0  0.19720  0.82332  0.57078  1.0000
  Hf  Hf69      1.0  0.44094  0.32631  0.07949  1.0000
  Hf  Hf70      1.0  0.44458  0.32240  0.58385  1.0000
  Hf  Hf71      1.0  0.44235  0.82320  0.08973  1.0000
  Hf  Hf72      1.0  0.44519  0.81847  0.57991  1.0000
  Hf  Hf73      1.0  0.69453  0.31212  0.08790  1.0000
  Hf  Hf74      1.0  0.69508  0.32322  0.58818  1.0000
  Hf  Hf75      1.0  0.69144  0.81350  0.08804  1.0000
  Hf  Hf76      1.0  0.69080  0.80715  0.59019  1.0000
  Hf  Hf77      1.0  0.94542  0.32029  0.07909  1.0000
  Hf  Hf78      1.0  0.94408  0.32518  0.58167  1.0000
  Hf  Hf79      1.0  0.94364  0.82581  0.07599  1.0000
  Hf  Hf80      1.0  0.94919  0.81716  0.57542  1.0000
  Hf  Hf81      1.0  0.09200  0.11050  0.16334  1.0000
  Hf  Hf82      1.0  0.08862  0.11398  0.66816  1.0000
  Hf  Hf83      1.0  0.09293  0.61046  0.16595  1.0000
  Hf  Hf84      1.0  0.09367  0.61715  0.66089  1.0000
  Hf  Hf85      1.0  0.34053  0.10829  0.17760  1.0000
  Hf  Hf86      1.0  0.34039  0.11084  0.65935  1.0000
  Hf  Hf87      1.0  0.34051  0.61189  0.16382  1.0000
  Hf  Hf88      1.0  0.34154  0.62108  0.66218  1.0000
  Hf  Hf89      1.0  0.58867  0.10604  0.17033  1.0000
  Hf  Hf90      1.0  0.59402  0.11234  0.66362  1.0000
  Hf  Hf91      1.0  0.59047  0.61289  0.17660  1.0000
  Hf  Hf92      1.0  0.59450  0.61134  0.67045  1.0000
  Hf  Hf93      1.0  0.83707  0.11374  0.17242  1.0000
  Hf  Hf94      1.0  0.84299  0.11812  0.66660  1.0000
  Hf  Hf95      1.0  0.84231  0.61388  0.16200  1.0000
  Hf  Hf96      1.0  0.83957  0.61231  0.66877  1.0000
  F   F1        1.0  0.07674  0.12182  0.30612  1.0000
  F   F2        1.0  0.08199  0.12487  0.79477  1.0000
  F   F3        1.0  0.07830  0.62930  0.29829  1.0000
  F   F4        1.0  0.07363  0.61747  0.81365  1.0000
  F   F5        1.0  0.33128  0.13311  0.29976  1.0000
  F   F6        1.0  0.32449  0.12428  0.80178  1.0000
  F   F7        1.0  0.33478  0.62727  0.30116  1.0000
  F   F8        1.0  0.32877  0.62482  0.80005  1.0000
  F   F9        1.0  0.58382  0.12786  0.30384  1.0000
  F   F10       1.0  0.57916  0.13948  0.79827  1.0000
  F   F11       1.0  0.57612  0.60144  0.32434  1.0000
  F   F12       1.0  0.58415  0.63364  0.80256  1.0000
  F   F13       1.0  0.81613  0.12255  0.32762  1.0000
  F   F14       1.0  0.82710  0.11421  0.81192  1.0000
  F   F15       1.0  0.82783  0.63181  0.29806  1.0000
  F   F16       1.0  0.83260  0.62672  0.80809  1.0000
  F   F17       1.0  0.18569  0.33876  0.43801  1.0000
  F   F18       1.0  0.18338  0.33672  0.94885  1.0000
  F   F19       1.0  0.18616  0.83300  0.44327  1.0000
  F   F20       1.0  0.18409  0.84356  0.94911  1.0000
  F   F21       1.0  0.44040  0.34519  0.44408  1.0000
  F   F22       1.0  0.42931  0.33350  0.94898  1.0000
  F   F23       1.0  0.43994  0.83772  0.43480  1.0000
  F   F24       1.0  0.42725  0.83970  0.95296  1.0000
  F   F25       1.0  0.69087  0.34382  0.44664  1.0000
  F   F26       1.0  0.69525  0.35168  0.93590  1.0000
  F   F27       1.0  0.68431  0.83614  0.44657  1.0000
  F   F28       1.0  0.67748  0.84151  0.94913  1.0000
  F   F29       1.0  0.92615  0.32685  0.46211  1.0000
  F   F30       1.0  0.93275  0.32958  0.95243  1.0000
  F   F31       1.0  0.93792  0.83807  0.44646  1.0000
  F   F32       1.0  0.93315  0.84209  0.94363  1.0000
  F   F33       1.0  0.16751  0.35348  0.20395  1.0000
  F   F34       1.0  0.16936  0.37274  0.68415  1.0000
  F   F35       1.0  0.17191  0.87216  0.19285  1.0000
  F   F36       1.0  0.16987  0.88138  0.68699  1.0000
  F   F37       1.0  0.41907  0.35093  0.21018  1.0000
  F   F38       1.0  0.42688  0.38360  0.68295  1.0000
  F   F39       1.0  0.42296  0.90217  0.17550  1.0000
  F   F40       1.0  0.42906  0.88421  0.68651  1.0000
  F   F41       1.0  0.67475  0.38074  0.18418  1.0000
  F   F42       1.0  0.67192  0.37752  0.70716  1.0000
  F   F43       1.0  0.67286  0.86768  0.19297  1.0000
  F   F44       1.0  0.67095  0.86358  0.69842  1.0000
  F   F45       1.0  0.92230  0.37675  0.19209  1.0000
  F   F46       1.0  0.92450  0.36822  0.69522  1.0000
  F   F47       1.0  0.91673  0.87075  0.19757  1.0000
  F   F48       1.0  0.92165  0.88422  0.67854  1.0000
  F   F49       1.0  0.06097  0.14587  0.06060  1.0000
  F   F50       1.0  0.06285  0.16600  0.55499  1.0000
  F   F51       1.0  0.06835  0.65838  0.04618  1.0000
  F   F52       1.0  0.07519  0.66858  0.53813  1.0000
  F   F53       1.0  0.30991  0.16397  0.06601  1.0000
  F   F54       1.0  0.31033  0.15164  0.55643  1.0000
  F   F55       1.0  0.30454  0.64745  0.06381  1.0000
  F   F56       1.0  0.30914  0.65752  0.56343  1.0000
  F   F57       1.0  0.56589  0.14793  0.04919  1.0000
  F   F58       1.0  0.56525  0.16164  0.55684  1.0000
  F   F59       1.0  0.55014  0.65923  0.07889  1.0000
  F   F60       1.0  0.56027  0.65675  0.56568  1.0000
  F   F61       1.0  0.81643  0.15799  0.05175  1.0000
  F   F62       1.0  0.81539  0.17209  0.56017  1.0000
  F   F63       1.0  0.81520  0.65960  0.05232  1.0000
  F   F64       1.0  0.82008  0.66495  0.54306  1.0000
  F   F65       1.0  0.20406  0.18779  0.20659  1.0000
  F   F66       1.0  0.19976  0.19712  0.71053  1.0000
  F   F67       1.0  0.20882  0.70363  0.19885  1.0000
  F   F68       1.0  0.20558  0.72230  0.69740  1.0000
  F   F69       1.0  0.46071  0.18842  0.22283  1.0000
  F   F70       1.0  0.44241  0.21019  0.72020  1.0000
  F   F71       1.0  0.44795  0.70415  0.21707  1.0000
  F   F72       1.0  0.44050  0.69888  0.72449  1.0000
  F   F73       1.0  0.70158  0.19719  0.21767  1.0000
  F   F74       1.0  0.70281  0.20847  0.71597  1.0000
  F   F75       1.0  0.70403  0.69730  0.21111  1.0000
  F   F76       1.0  0.69736  0.69944  0.71907  1.0000
  F   F77       1.0  0.95081  0.20372  0.21170  1.0000
  F   F78       1.0  0.95256  0.20776  0.70924  1.0000
  F   F79       1.0  0.95133  0.70767  0.21421  1.0000
  F   F80       1.0  0.95123  0.70248  0.70228  1.0000
  F   F81       1.0  0.15142  0.09251  0.03830  1.0000
  F   F82       1.0  0.15258  0.09523  0.52579  1.0000
  F   F83       1.0  0.15299  0.57122  0.03605  1.0000
  F   F84       1.0  0.14899  0.57415  0.53840  1.0000
  F   F85       1.0  0.39759  0.09975  0.06116  1.0000
  F   F86       1.0  0.39578  0.08335  0.52581  1.0000
  F   F87       1.0  0.39246  0.58529  0.04323  1.0000
  F   F88       1.0  0.39784  0.61284  0.53214  1.0000
  F   F89       1.0  0.64588  0.09000  0.03861  1.0000
  F   F90       1.0  0.65059  0.08029  0.54534  1.0000
  F   F91       1.0  0.64332  0.60958  0.04883  1.0000
  F   F92       1.0  0.65245  0.58368  0.54532  1.0000
  F   F93       1.0  0.90118  0.10718  0.02760  1.0000
  F   F94       1.0  0.90139  0.09501  0.53419  1.0000
  F   F95       1.0  0.89929  0.58893  0.03779  1.0000
  F   F96       1.0  0.89400  0.57480  0.54001  1.0000
  F   F97       1.0  0.14719  0.19515  0.12423  1.0000
  F   F98       1.0  0.15105  0.18789  0.62179  1.0000
  F   F99       1.0  0.15064  0.70360  0.10875  1.0000
  F   F100      1.0  0.15204  0.69744  0.61021  1.0000
  F   F101      1.0  0.40023  0.20031  0.15526  1.0000
  F   F102      1.0  0.39595  0.17940  0.62217  1.0000
  F   F103      1.0  0.40388  0.69690  0.11565  1.0000
  F   F104      1.0  0.40280  0.69366  0.62169  1.0000
  F   F105      1.0  0.65472  0.19694  0.11087  1.0000
  F   F106      1.0  0.65526  0.19186  0.62850  1.0000
  F   F107      1.0  0.64634  0.70262  0.13907  1.0000
  F   F108      1.0  0.65644  0.68379  0.61654  1.0000
  F   F109      1.0  0.88993  0.19802  0.13774  1.0000
  F   F110      1.0  0.90814  0.18806  0.62531  1.0000
  F   F111      1.0  0.89986  0.70160  0.12276  1.0000
  F   F112      1.0  0.90092  0.68288  0.61800  1.0000
  F   F113      1.0  0.09735  0.31118  0.35739  1.0000
  F   F114      1.0  0.10203  0.30156  0.87723  1.0000
  F   F115      1.0  0.10092  0.80100  0.36649  1.0000
  F   F116      1.0  0.09446  0.80794  0.87770  1.0000
  F   F117      1.0  0.34665  0.30857  0.39354  1.0000
  F   F118      1.0  0.34521  0.30217  0.85459  1.0000
  F   F119      1.0  0.35518  0.78511  0.37030  1.0000
  F   F120      1.0  0.35280  0.79937  0.88886  1.0000
  F   F121      1.0  0.59442  0.29642  0.36602  1.0000
  F   F122      1.0  0.59674  0.30008  0.88730  1.0000
  F   F123      1.0  0.60642  0.78910  0.39594  1.0000
  F   F124      1.0  0.59578  0.80666  0.88227  1.0000
  F   F125      1.0  0.84768  0.30778  0.38648  1.0000
  F   F126      1.0  0.85272  0.30520  0.87353  1.0000
  F   F127      1.0  0.85271  0.81164  0.36972  1.0000
  F   F128      1.0  0.84853  0.81139  0.86434  1.0000
  F   F129      1.0  0.06715  0.25084  0.12599  1.0000
  F   F130      1.0  0.05542  0.24373  0.65858  1.0000
  F   F131      1.0  0.06521  0.75297  0.13943  1.0000
  F   F132      1.0  0.06866  0.76332  0.64349  1.0000
  F   F133      1.0  0.32546  0.26073  0.13831  1.0000
  F   F134      1.0  0.31812  0.26410  0.62386  1.0000
  F   F135      1.0  0.31441  0.74953  0.12748  1.0000
  F   F136      1.0  0.30903  0.75535  0.65480  1.0000
  F   F137      1.0  0.55863  0.23066  0.15927  1.0000
  F   F138      1.0  0.56732  0.24545  0.64747  1.0000
  F   F139      1.0  0.55970  0.75587  0.16221  1.0000
  F   F140      1.0  0.56840  0.75276  0.63383  1.0000
  F   F141      1.0  0.80422  0.24596  0.16004  1.0000
  F   F142      1.0  0.81959  0.25511  0.64524  1.0000
  F   F143      1.0  0.81048  0.74542  0.14821  1.0000
  F   F144      1.0  0.80614  0.74386  0.65488  1.0000
  F   F145      1.0  0.12457  0.36429  0.10075  1.0000
  F   F146      1.0  0.12321  0.37973  0.59026  1.0000
  F   F147      1.0  0.12389  0.87656  0.10348  1.0000
  F   F148      1.0  0.12824  0.87357  0.59829  1.0000
  F   F149      1.0  0.37948  0.40113  0.08107  1.0000
  F   F150      1.0  0.37351  0.36114  0.61705  1.0000
  F   F151      1.0  0.36870  0.87293  0.12311  1.0000
  F   F152      1.0  0.37209  0.86919  0.62299  1.0000
  F   F153      1.0  0.62183  0.35741  0.11883  1.0000
  F   F154      1.0  0.62752  0.37004  0.61951  1.0000
  F   F155      1.0  0.62605  0.87701  0.11266  1.0000
  F   F156      1.0  0.62305  0.85664  0.61792  1.0000
  F   F157      1.0  0.87592  0.35852  0.10771  1.0000
  F   F158      1.0  0.87199  0.37266  0.62162  1.0000
  F   F159      1.0  0.87258  0.87730  0.10069  1.0000
  F   F160      1.0  0.87734  0.84651  0.61128  1.0000
  F   F161      1.0  0.18826  0.24098  0.35955  1.0000
  F   F162      1.0  0.19582  0.25257  0.83973  1.0000
  F   F163      1.0  0.19303  0.74693  0.34306  1.0000
  F   F164      1.0  0.18494  0.74808  0.85608  1.0000
  F   F165      1.0  0.42947  0.24181  0.38970  1.0000
  F   F166      1.0  0.43375  0.25051  0.85055  1.0000
  F   F167      1.0  0.44531  0.75389  0.33733  1.0000
  F   F168      1.0  0.43615  0.74523  0.86145  1.0000
  F   F169      1.0  0.67815  0.24309  0.37041  1.0000
  F   F170      1.0  0.68529  0.25220  0.85804  1.0000
  F   F171      1.0  0.68655  0.74217  0.36008  1.0000
  F   F172      1.0  0.68612  0.74447  0.85920  1.0000
  F   F173      1.0  0.94634  0.25650  0.34150  1.0000
  F   F174      1.0  0.94181  0.25234  0.85063  1.0000
  F   F175      1.0  0.93461  0.74990  0.35963  1.0000
  F   F176      1.0  0.93257  0.75282  0.85628  1.0000
  F   F177      1.0  0.12385  0.14157  0.37414  1.0000
  F   F178      1.0  0.12653  0.13519  0.89085  1.0000
  F   F179      1.0  0.13197  0.64295  0.36231  1.0000
  F   F180      1.0  0.12901  0.64301  0.86718  1.0000
  F   F181      1.0  0.37688  0.14279  0.38387  1.0000
  F   F182      1.0  0.37364  0.11323  0.90868  1.0000
  F   F183      1.0  0.37342  0.60593  0.41596  1.0000
  F   F184      1.0  0.37039  0.61468  0.90816  1.0000
  F   F185      1.0  0.62336  0.11533  0.40960  1.0000
  F   F186      1.0  0.62504  0.13771  0.89260  1.0000
  F   F187      1.0  0.62483  0.61878  0.40703  1.0000
  F   F188      1.0  0.62104  0.61854  0.91518  1.0000
  F   F189      1.0  0.87183  0.13385  0.39434  1.0000
  F   F190      1.0  0.87518  0.15351  0.87767  1.0000
  F   F191      1.0  0.87860  0.63710  0.37672  1.0000
  F   F192      1.0  0.87640  0.63587  0.88544  1.0000
  F   F193      1.0  0.00752  0.36635  0.06880  1.0000
  F   F194      1.0  0.00296  0.37098  0.58152  1.0000
  F   F195      1.0  0.00561  0.85926  0.07654  1.0000
  F   F196      1.0  0.00824  0.86248  0.57530  1.0000
  F   F197      1.0  0.26140  0.35299  0.07283  1.0000
  F   F198      1.0  0.25275  0.36176  0.57681  1.0000
  F   F199      1.0  0.26109  0.87086  0.06987  1.0000
  F   F200      1.0  0.25780  0.87134  0.56396  1.0000
  F   F201      1.0  0.50720  0.34888  0.08046  1.0000
  F   F202      1.0  0.50924  0.35368  0.58863  1.0000
  F   F203      1.0  0.50327  0.86222  0.08223  1.0000
  F   F204      1.0  0.50861  0.84434  0.58434  1.0000
  F   F205      1.0  0.75858  0.37482  0.05671  1.0000
  F   F206      1.0  0.75600  0.36997  0.58430  1.0000
  F   F207      1.0  0.75794  0.85023  0.09679  1.0000
  F   F208      1.0  0.75819  0.85859  0.57436  1.0000
  F   F209      1.0  0.07340  0.47948  0.16269  1.0000
  F   F210      1.0  0.07042  0.48408  0.67931  1.0000
  F   F211      1.0  0.06660  0.97734  0.19177  1.0000
  F   F212      1.0  0.07370  0.97861  0.67883  1.0000
  F   F213      1.0  0.31450  0.48510  0.17127  1.0000
  F   F214      1.0  0.31874  0.48073  0.68495  1.0000
  F   F215      1.0  0.31736  0.98843  0.17706  1.0000
  F   F216      1.0  0.31321  0.97583  0.68651  1.0000
  F   F217      1.0  0.57234  0.47798  0.18018  1.0000
  F   F218      1.0  0.57206  0.49319  0.67121  1.0000
  F   F219      1.0  0.56882  0.97851  0.18019  1.0000
  F   F220      1.0  0.57302  0.98974  0.66439  1.0000
  F   F221      1.0  0.82428  0.48087  0.15608  1.0000
  F   F222      1.0  0.81310  0.49064  0.68837  1.0000
  F   F223      1.0  0.81848  0.98168  0.18064  1.0000
  F   F224      1.0  0.82048  0.98207  0.67703  1.0000
  F   F225      1.0  0.24378  0.13007  0.41632  1.0000
  F   F226      1.0  0.24028  0.12843  0.93797  1.0000
  F   F227      1.0  0.24197  0.63595  0.42839  1.0000
  F   F228      1.0  0.24644  0.64185  0.91733  1.0000
  F   F229      1.0  0.49418  0.13762  0.42765  1.0000
  F   F230      1.0  0.48993  0.12437  0.93096  1.0000
  F   F231      1.0  0.49157  0.63551  0.43467  1.0000
  F   F232      1.0  0.48912  0.62697  0.94334  1.0000
  F   F233      1.0  0.73585  0.13641  0.44356  1.0000
  F   F234      1.0  0.74343  0.13158  0.93316  1.0000
  F   F235      1.0  0.74733  0.63325  0.42226  1.0000
  F   F236      1.0  0.74055  0.63755  0.93248  1.0000
  F   F237      1.0  0.99131  0.13229  0.44012  1.0000
  F   F238      1.0  0.99996  0.13605  0.92207  1.0000
  F   F239      1.0  0.99382  0.63824  0.42356  1.0000
  F   F240      1.0  0.98846  0.63365  0.92654  1.0000
  F   F241      1.0  0.17091  0.01227  0.33884  1.0000
  F   F242      1.0  0.17787  0.00678  0.83113  1.0000
  F   F243      1.0  0.18415  0.51221  0.31588  1.0000
  F   F244      1.0  0.18280  0.51040  0.82807  1.0000
  F   F245      1.0  0.43016  0.01745  0.32028  1.0000
  F   F246      1.0  0.43244  0.02331  0.80759  1.0000
  F   F247      1.0  0.43373  0.51632  0.32851  1.0000
  F   F248      1.0  0.43384  0.51481  0.82862  1.0000
  F   F249      1.0  0.68722  0.00894  0.32907  1.0000
  F   F250      1.0  0.68078  0.01970  0.81773  1.0000
  F   F251      1.0  0.68155  0.51153  0.32066  1.0000
  F   F252      1.0  0.67531  0.52054  0.81919  1.0000
  F   F253      1.0  0.92451  0.01540  0.32450  1.0000
  F   F254      1.0  0.92061  0.02513  0.82983  1.0000
  F   F255      1.0  0.93604  0.51237  0.31734  1.0000
  F   F256      1.0  0.92441  0.51792  0.82686  1.0000
  F   F257      1.0  0.00058  0.24984  0.99775  1.0000
  F   F258      1.0  0.00620  0.27496  0.47637  1.0000
  F   F259      1.0  0.99829  0.75790  0.99315  1.0000
  F   F260      1.0  0.00023  0.74148  0.49964  1.0000
  F   F261      1.0  0.25002  0.25397  0.99217  1.0000
  F   F262      1.0  0.24871  0.24948  0.50171  1.0000
  F   F263      1.0  0.24523  0.75160  0.99864  1.0000
  F   F264      1.0  0.25650  0.76119  0.48787  1.0000
  F   F265      1.0  0.49233  0.24208  0.00385  1.0000
  F   F266      1.0  0.49778  0.23858  0.52117  1.0000
  F   F267      1.0  0.49610  0.76998  0.99061  1.0000
  F   F268      1.0  0.49888  0.73952  0.50570  1.0000
  F   F269      1.0  0.75395  0.24801  0.00656  1.0000
  F   F270      1.0  0.75127  0.25812  0.50209  1.0000
  F   F271      1.0  0.75214  0.75765  0.99585  1.0000
  F   F272      1.0  0.75331  0.73921  0.49875  1.0000
  F   F273      1.0  0.13077  0.00202  0.23268  1.0000
  F   F274      1.0  0.12294  0.00480  0.74979  1.0000
  F   F275      1.0  0.12743  0.49762  0.24630  1.0000
  F   F276      1.0  0.12786  0.50041  0.74426  1.0000
  F   F277      1.0  0.36395  0.98379  0.27377  1.0000
  F   F278      1.0  0.37097  0.99359  0.75306  1.0000
  F   F279      1.0  0.37270  0.49593  0.24536  1.0000
  F   F280      1.0  0.38485  0.51111  0.73486  1.0000
  F   F281      1.0  0.62828  0.99969  0.25420  1.0000
  F   F282      1.0  0.61815  0.99891  0.75730  1.0000
  F   F283      1.0  0.62914  0.50207  0.25292  1.0000
  F   F284      1.0  0.61227  0.48778  0.77396  1.0000
  F   F285      1.0  0.87176  0.00792  0.24764  1.0000
  F   F286      1.0  0.88267  0.99864  0.72649  1.0000
  F   F287      1.0  0.86671  0.49348  0.25633  1.0000
  F   F288      1.0  0.87417  0.49437  0.75010  1.0000
  F   F289      1.0  0.05204  0.03059  0.01485  1.0000
  F   F290      1.0  0.04814  0.02625  0.50671  1.0000
  F   F291      1.0  0.03978  0.53451  0.01848  1.0000
  F   F292      1.0  0.04747  0.53601  0.52294  1.0000
  F   F293      1.0  0.29373  0.03664  0.02235  1.0000
  F   F294      1.0  0.30402  0.02652  0.50566  1.0000
  F   F295      1.0  0.28770  0.52999  0.01841  1.0000
  F   F296      1.0  0.28512  0.52341  0.52708  1.0000
  F   F297      1.0  0.54515  0.02974  0.01375  1.0000
  F   F298      1.0  0.53933  0.02476  0.53631  1.0000
  F   F299      1.0  0.54528  0.52756  0.03094  1.0000
  F   F300      1.0  0.54272  0.51614  0.53409  1.0000
  F   F301      1.0  0.80511  0.02263  0.02685  1.0000
  F   F302      1.0  0.78735  0.03467  0.53664  1.0000
  F   F303      1.0  0.78982  0.53069  0.03317  1.0000
  F   F304      1.0  0.79774  0.53919  0.52800  1.0000
  F   F305      1.0  0.23584  0.39285  0.22188  1.0000
  F   F306      1.0  0.22904  0.43315  0.71466  1.0000
  F   F307      1.0  0.23251  0.92081  0.21749  1.0000
  F   F308      1.0  0.23643  0.90844  0.72757  1.0000
  F   F309      1.0  0.47906  0.41691  0.22876  1.0000
  F   F310      1.0  0.48926  0.40713  0.74021  1.0000
  F   F311      1.0  0.49048  0.90511  0.22400  1.0000
  F   F312      1.0  0.48994  0.90853  0.73286  1.0000
  F   F313      1.0  0.73483  0.38866  0.23818  1.0000
  F   F314      1.0  0.73458  0.41764  0.73014  1.0000
  F   F315      1.0  0.73781  0.91154  0.22736  1.0000
  F   F316      1.0  0.73606  0.91434  0.72307  1.0000
  F   F317      1.0  0.98747  0.41618  0.22272  1.0000
  F   F318      1.0  0.98326  0.41437  0.73059  1.0000
  F   F319      1.0  0.98746  0.92349  0.21898  1.0000
  F   F320      1.0  0.98488  0.92615  0.72850  1.0000
  F   F321      1.0  0.20716  0.45695  0.47598  1.0000
  F   F322      1.0  0.20874  0.45868  0.97179  1.0000
  F   F323      1.0  0.21290  0.96369  0.45597  1.0000
  F   F324      1.0  0.21474  0.97006  0.97092  1.0000
  F   F325      1.0  0.46257  0.46982  0.47157  1.0000
  F   F326      1.0  0.46668  0.46904  0.96977  1.0000
  F   F327      1.0  0.45694  0.96374  0.46829  1.0000
  F   F328      1.0  0.45447  0.96879  0.97145  1.0000
  F   F329      1.0  0.70735  0.46174  0.48302  1.0000
  F   F330      1.0  0.68887  0.47755  0.00023  1.0000
  F   F331      1.0  0.70612  0.95586  0.48685  1.0000
  F   F332      1.0  0.70981  0.97122  0.97052  1.0000
  F   F333      1.0  0.95589  0.47572  0.46775  1.0000
  F   F334      1.0  0.95728  0.46601  0.96102  1.0000
  F   F335      1.0  0.95768  0.98557  0.46201  1.0000
  F   F336      1.0  0.95643  0.97140  0.96848  1.0000
  F   F337      1.0  0.01224  0.11053  0.26377  1.0000
  F   F338      1.0  0.01487  0.08427  0.76842  1.0000
  F   F339      1.0  0.01681  0.58611  0.26835  1.0000
  F   F340      1.0  0.01408  0.61301  0.74923  1.0000
  F   F341      1.0  0.26451  0.10300  0.26579  1.0000
  F   F342      1.0  0.26466  0.10622  0.75858  1.0000
  F   F343      1.0  0.26621  0.58793  0.28408  1.0000
  F   F344      1.0  0.26469  0.57929  0.79083  1.0000
  F   F345      1.0  0.52074  0.06457  0.27978  1.0000
  F   F346      1.0  0.51502  0.09122  0.75883  1.0000
  F   F347      1.0  0.51551  0.59195  0.27284  1.0000
  F   F348      1.0  0.51702  0.59398  0.77495  1.0000
  F   F349      1.0  0.76441  0.08317  0.27143  1.0000
  F   F350      1.0  0.76917  0.09938  0.75678  1.0000
  F   F351      1.0  0.76345  0.58417  0.27018  1.0000
  F   F352      1.0  0.76075  0.57037  0.78948  1.0000
  F   F353      1.0  0.09956  0.39461  0.46820  1.0000
  F   F354      1.0  0.09922  0.41541  0.94677  1.0000
  F   F355      1.0  0.10223  0.89821  0.45745  1.0000
  F   F356      1.0  0.09791  0.89342  0.96679  1.0000
  F   F357      1.0  0.35390  0.41096  0.46465  1.0000
  F   F358      1.0  0.34938  0.40966  0.95253  1.0000
  F   F359      1.0  0.35473  0.89036  0.46448  1.0000
  F   F360      1.0  0.35536  0.92076  0.95384  1.0000
  F   F361      1.0  0.60532  0.38583  0.48131  1.0000
  F   F362      1.0  0.60228  0.40191  0.97378  1.0000
  F   F363      1.0  0.59695  0.91430  0.46500  1.0000
  F   F364      1.0  0.60217  0.91520  0.95776  1.0000
  F   F365      1.0  0.85599  0.42228  0.46583  1.0000
  F   F366      1.0  0.85030  0.41644  0.95589  1.0000
  F   F367      1.0  0.85000  0.90930  0.47108  1.0000
  F   F368      1.0  0.84916  0.90103  0.95674  1.0000
  F   F369      1.0  0.04552  0.30278  0.27290  1.0000
  F   F370      1.0  0.04997  0.30992  0.78504  1.0000
  F   F371      1.0  0.05238  0.79188  0.28200  1.0000
  F   F372      1.0  0.05361  0.80008  0.77890  1.0000
  F   F373      1.0  0.30735  0.30869  0.29036  1.0000
  F   F374      1.0  0.28780  0.29583  0.78066  1.0000
  F   F375      1.0  0.29808  0.79680  0.27311  1.0000
  F   F376      1.0  0.30406  0.79959  0.78735  1.0000
  F   F377      1.0  0.53726  0.30604  0.29215  1.0000
  F   F378      1.0  0.54669  0.30318  0.79901  1.0000
  F   F379      1.0  0.55959  0.78206  0.30439  1.0000
  F   F380      1.0  0.54418  0.79335  0.79957  1.0000
  F   F381      1.0  0.79845  0.30596  0.29146  1.0000
  F   F382      1.0  0.80068  0.29789  0.79769  1.0000
  F   F383      1.0  0.79658  0.79798  0.29345  1.0000
  F   F384      1.0  0.79863  0.79213  0.79098  1.0000
