data_image0
_chemical_formula_structural       Hf96F384
_chemical_formula_sum              "Hf96 F384"
_cell_length_a       31.0117
_cell_length_b       15.5058
_cell_length_c       15.5
_cell_angle_alpha    63.342
_cell_angle_beta     63.342
_cell_angle_gamma    80.1625

_space_group_name_H-M_alt    "P 1"
_space_group_IT_number       1

loop_
  _space_group_symop_operation_xyz
  'x, y, z'

loop_
  _atom_site_type_symbol
  _atom_site_label
  _atom_site_symmetry_multiplicity
  _atom_site_fract_x
  _atom_site_fract_y
  _atom_site_fract_z
  _atom_site_occupancy
  Hf  Hf1       1.0  0.19581  0.11128  0.37744  1.0000
  Hf  Hf2       1.0  0.19706  0.10793  0.86918  1.0000
  Hf  Hf3       1.0  0.19383  0.60621  0.37106  1.0000
  Hf  Hf4       1.0  0.19832  0.61151  0.86798  1.0000
  Hf  Hf5       1.0  0.44723  0.10836  0.37234  1.0000
  Hf  Hf6       1.0  0.44560  0.11238  0.87325  1.0000
  Hf  Hf7       1.0  0.44585  0.61247  0.37262  1.0000
  Hf  Hf8       1.0  0.44392  0.60617  0.87647  1.0000
  Hf  Hf9       1.0  0.69746  0.10559  0.37227  1.0000
  Hf  Hf10      1.0  0.69465  0.09744  0.88663  1.0000
  Hf  Hf11      1.0  0.69636  0.60631  0.37292  1.0000
  Hf  Hf12      1.0  0.69817  0.60741  0.87078  1.0000
  Hf  Hf13      1.0  0.95286  0.11739  0.35867  1.0000
  Hf  Hf14      1.0  0.94433  0.10187  0.88165  1.0000
  Hf  Hf15      1.0  0.94588  0.60515  0.37947  1.0000
  Hf  Hf16      1.0  0.94427  0.60166  0.88753  1.0000
  Hf  Hf17      1.0  0.05304  0.39446  0.12669  1.0000
  Hf  Hf18      1.0  0.05562  0.39284  0.62772  1.0000
  Hf  Hf19      1.0  0.05011  0.89838  0.13006  1.0000
  Hf  Hf20      1.0  0.05747  0.89584  0.61375  1.0000
  Hf  Hf21      1.0  0.30370  0.39214  0.12550  1.0000
  Hf  Hf22      1.0  0.29965  0.39099  0.63696  1.0000
  Hf  Hf23      1.0  0.30335  0.89645  0.11808  1.0000
  Hf  Hf24      1.0  0.30196  0.90414  0.62089  1.0000
  Hf  Hf25      1.0  0.55617  0.38635  0.12360  1.0000
  Hf  Hf26      1.0  0.55563  0.39870  0.61983  1.0000
  Hf  Hf27      1.0  0.55173  0.88705  0.13136  1.0000
  Hf  Hf28      1.0  0.55087  0.89093  0.62739  1.0000
  Hf  Hf29      1.0  0.80429  0.39170  0.12532  1.0000
  Hf  Hf30      1.0  0.80867  0.39514  0.62131  1.0000
  Hf  Hf31      1.0  0.80474  0.88994  0.12410  1.0000
  Hf  Hf32      1.0  0.80340  0.88963  0.62659  1.0000
  Hf  Hf33      1.0  0.05651  0.18697  0.41610  1.0000
  Hf  Hf34      1.0  0.05479  0.18103  0.91310  1.0000
  Hf  Hf35      1.0  0.05550  0.68735  0.41628  1.0000
  Hf  Hf36      1.0  0.05653  0.68493  0.91682  1.0000
  Hf  Hf37      1.0  0.30672  0.18567  0.41211  1.0000
  Hf  Hf38      1.0  0.30633  0.18285  0.91306  1.0000
  Hf  Hf39      1.0  0.30623  0.68420  0.41382  1.0000
  Hf  Hf40      1.0  0.30125  0.68264  0.91957  1.0000
  Hf  Hf41      1.0  0.55625  0.18414  0.41857  1.0000
  Hf  Hf42      1.0  0.55361  0.17604  0.91761  1.0000
  Hf  Hf43      1.0  0.55550  0.67673  0.41721  1.0000
  Hf  Hf44      1.0  0.55674  0.67764  0.91312  1.0000
  Hf  Hf45      1.0  0.80684  0.18310  0.42376  1.0000
  Hf  Hf46      1.0  0.80560  0.17369  0.92057  1.0000
  Hf  Hf47      1.0  0.80825  0.68892  0.41756  1.0000
  Hf  Hf48      1.0  0.80392  0.68501  0.91701  1.0000
  Hf  Hf49      1.0  0.15688  0.38453  0.33488  1.0000
  Hf  Hf50      1.0  0.15689  0.38693  0.83681  1.0000
  Hf  Hf51      1.0  0.16144  0.89622  0.32708  1.0000
  Hf  Hf52      1.0  0.15662  0.88814  0.83540  1.0000
  Hf  Hf53      1.0  0.40736  0.39292  0.32932  1.0000
  Hf  Hf54      1.0  0.40772  0.39393  0.83268  1.0000
  Hf  Hf55      1.0  0.40556  0.89021  0.34069  1.0000
  Hf  Hf56      1.0  0.40961  0.88554  0.83383  1.0000
  Hf  Hf57      1.0  0.65929  0.38405  0.33213  1.0000
  Hf  Hf58      1.0  0.66519  0.38180  0.83198  1.0000
  Hf  Hf59      1.0  0.65658  0.88438  0.33614  1.0000
  Hf  Hf60      1.0  0.66003  0.89064  0.83485  1.0000
  Hf  Hf61      1.0  0.90952  0.38950  0.33364  1.0000
  Hf  Hf62      1.0  0.91047  0.38513  0.83030  1.0000
  Hf  Hf63      1.0  0.90876  0.89164  0.33985  1.0000
  Hf  Hf64      1.0  0.90953  0.88943  0.82956  1.0000
  Hf  Hf65      1.0  0.19792  0.32246  0.07639  1.0000
  Hf  Hf66      1.0  0.19486  0.31506  0.58413  1.0000
  Hf  Hf67      1.0  0.19158  0.81652  0.08482  1.0000
  Hf  Hf68      1.0  0.19441  0.81720  0.58389  1.0000
  Hf  Hf69      1.0  0.44524  0.31495  0.08346  1.0000
  Hf  Hf70      1.0  0.44381  0.32751  0.57312  1.0000
  Hf  Hf71      1.0  0.44363  0.82172  0.08051  1.0000
  Hf  Hf72      1.0  0.44274  0.82251  0.58582  1.0000
  Hf  Hf73      1.0  0.69595  0.31625  0.07809  1.0000
  Hf  Hf74      1.0  0.69487  0.31637  0.58680  1.0000
  Hf  Hf75      1.0  0.69265  0.81137  0.08933  1.0000
  Hf  Hf76      1.0  0.69211  0.81258  0.58540  1.0000
  Hf  Hf77      1.0  0.94718  0.32264  0.07806  1.0000
  Hf  Hf78      1.0  0.94395  0.30773  0.59492  1.0000
  Hf  Hf79      1.0  0.94317  0.81795  0.08177  1.0000
  Hf  Hf80      1.0  0.94424  0.81093  0.58807  1.0000
  Hf  Hf81      1.0  0.09416  0.12002  0.15486  1.0000
  Hf  Hf82      1.0  0.08858  0.10716  0.67337  1.0000
  Hf  Hf83      1.0  0.09171  0.61354  0.17072  1.0000
  Hf  Hf84      1.0  0.09052  0.60857  0.67358  1.0000
  Hf  Hf85      1.0  0.33884  0.11266  0.16503  1.0000
  Hf  Hf86      1.0  0.34012  0.11616  0.66544  1.0000
  Hf  Hf87      1.0  0.34251  0.61410  0.16415  1.0000
  Hf  Hf88      1.0  0.34149  0.62165  0.66110  1.0000
  Hf  Hf89      1.0  0.59563  0.10698  0.16413  1.0000
  Hf  Hf90      1.0  0.59170  0.11176  0.66931  1.0000
  Hf  Hf91      1.0  0.58927  0.60343  0.16663  1.0000
  Hf  Hf92      1.0  0.59019  0.60861  0.66648  1.0000
  Hf  Hf93      1.0  0.84190  0.10908  0.17386  1.0000
  Hf  Hf94      1.0  0.84442  0.11091  0.66785  1.0000
  Hf  Hf95      1.0  0.83843  0.60534  0.17547  1.0000
  Hf  Hf96      1.0  0.84601  0.61331  0.66691  1.0000
  F   F1        1.0  0.08457  0.15075  0.29122  1.0000
  F   F2        1.0  0.07598  0.10119  0.81410  1.0000
  F   F3        1.0  0.08199  0.62146  0.30672  1.0000
  F   F4        1.0  0.07395  0.62161  0.81805  1.0000
  F   F5        1.0  0.33016  0.14637  0.28972  1.0000
  F   F6        1.0  0.32697  0.12802  0.80462  1.0000
  F   F7        1.0  0.32589  0.63198  0.30348  1.0000
  F   F8        1.0  0.32504  0.64837  0.79141  1.0000
  F   F9        1.0  0.58087  0.13876  0.29191  1.0000
  F   F10       1.0  0.57984  0.12155  0.80899  1.0000
  F   F11       1.0  0.57944  0.61842  0.30037  1.0000
  F   F12       1.0  0.58343  0.62802  0.79535  1.0000
  F   F13       1.0  0.82771  0.10720  0.31920  1.0000
  F   F14       1.0  0.82959  0.12215  0.80518  1.0000
  F   F15       1.0  0.81974  0.61977  0.32219  1.0000
  F   F16       1.0  0.83226  0.62471  0.80212  1.0000
  F   F17       1.0  0.18902  0.34163  0.43684  1.0000
  F   F18       1.0  0.19410  0.34389  0.93772  1.0000
  F   F19       1.0  0.17963  0.84352  0.44675  1.0000
  F   F20       1.0  0.18148  0.84101  0.95027  1.0000
  F   F21       1.0  0.44187  0.35264  0.43613  1.0000
  F   F22       1.0  0.43640  0.34706  0.93903  1.0000
  F   F23       1.0  0.42901  0.84916  0.44880  1.0000
  F   F24       1.0  0.43883  0.83814  0.94307  1.0000
  F   F25       1.0  0.69456  0.33806  0.44038  1.0000
  F   F26       1.0  0.69082  0.33207  0.94416  1.0000
  F   F27       1.0  0.68570  0.84746  0.44710  1.0000
  F   F28       1.0  0.68965  0.83400  0.94754  1.0000
  F   F29       1.0  0.92753  0.32950  0.45879  1.0000
  F   F30       1.0  0.93376  0.32718  0.95393  1.0000
  F   F31       1.0  0.93980  0.83932  0.44852  1.0000
  F   F32       1.0  0.93187  0.84090  0.95441  1.0000
  F   F33       1.0  0.17256  0.36797  0.19448  1.0000
  F   F34       1.0  0.16842  0.38402  0.68759  1.0000
  F   F35       1.0  0.17272  0.87687  0.19184  1.0000
  F   F36       1.0  0.16629  0.86526  0.69416  1.0000
  F   F37       1.0  0.42214  0.39344  0.17239  1.0000
  F   F38       1.0  0.42026  0.39035  0.69387  1.0000
  F   F39       1.0  0.41143  0.88008  0.20506  1.0000
  F   F40       1.0  0.41941  0.86647  0.70309  1.0000
  F   F41       1.0  0.67089  0.37171  0.19577  1.0000
  F   F42       1.0  0.67434  0.36982  0.70084  1.0000
  F   F43       1.0  0.66664  0.86265  0.20097  1.0000
  F   F44       1.0  0.67131  0.87524  0.69695  1.0000
  F   F45       1.0  0.92033  0.35908  0.20822  1.0000
  F   F46       1.0  0.92807  0.37388  0.69205  1.0000
  F   F47       1.0  0.92080  0.86971  0.19952  1.0000
  F   F48       1.0  0.92517  0.87410  0.69126  1.0000
  F   F49       1.0  0.05756  0.16748  0.05845  1.0000
  F   F50       1.0  0.06768  0.16641  0.54853  1.0000
  F   F51       1.0  0.06377  0.66595  0.05020  1.0000
  F   F52       1.0  0.05821  0.64731  0.57336  1.0000
  F   F53       1.0  0.32031  0.16527  0.03941  1.0000
  F   F54       1.0  0.32122  0.17607  0.53807  1.0000
  F   F55       1.0  0.30691  0.65722  0.06692  1.0000
  F   F56       1.0  0.30836  0.66324  0.55219  1.0000
  F   F57       1.0  0.56025  0.15574  0.05464  1.0000
  F   F58       1.0  0.56500  0.15612  0.55548  1.0000
  F   F59       1.0  0.56099  0.65322  0.05643  1.0000
  F   F60       1.0  0.56483  0.65271  0.55282  1.0000
  F   F61       1.0  0.82035  0.16261  0.04765  1.0000
  F   F62       1.0  0.81649  0.15924  0.55912  1.0000
  F   F63       1.0  0.81820  0.65631  0.05729  1.0000
  F   F64       1.0  0.82069  0.65897  0.55417  1.0000
  F   F65       1.0  0.20409  0.20696  0.21701  1.0000
  F   F66       1.0  0.21425  0.20167  0.70207  1.0000
  F   F67       1.0  0.19659  0.70152  0.20776  1.0000
  F   F68       1.0  0.20912  0.70475  0.70843  1.0000
  F   F69       1.0  0.45920  0.21611  0.20839  1.0000
  F   F70       1.0  0.44501  0.21184  0.70824  1.0000
  F   F71       1.0  0.45345  0.71308  0.22058  1.0000
  F   F72       1.0  0.45135  0.70186  0.70608  1.0000
  F   F73       1.0  0.69571  0.19916  0.21553  1.0000
  F   F74       1.0  0.69782  0.19549  0.72579  1.0000
  F   F75       1.0  0.69775  0.69361  0.22226  1.0000
  F   F76       1.0  0.70283  0.69337  0.70333  1.0000
  F   F77       1.0  0.96279  0.19110  0.20111  1.0000
  F   F78       1.0  0.95547  0.19720  0.72162  1.0000
  F   F79       1.0  0.95505  0.70626  0.20920  1.0000
  F   F80       1.0  0.95544  0.69312  0.70710  1.0000
  F   F81       1.0  0.14802  0.08958  0.02775  1.0000
  F   F82       1.0  0.14822  0.10830  0.54131  1.0000
  F   F83       1.0  0.14866  0.59636  0.03437  1.0000
  F   F84       1.0  0.14485  0.60199  0.53935  1.0000
  F   F85       1.0  0.40000  0.08202  0.03682  1.0000
  F   F86       1.0  0.40257  0.09483  0.52705  1.0000
  F   F87       1.0  0.39512  0.60032  0.03632  1.0000
  F   F88       1.0  0.39998  0.59752  0.54347  1.0000
  F   F89       1.0  0.65241  0.07255  0.03582  1.0000
  F   F90       1.0  0.65036  0.09186  0.54524  1.0000
  F   F91       1.0  0.65030  0.58858  0.03524  1.0000
  F   F92       1.0  0.64728  0.59640  0.53966  1.0000
  F   F93       1.0  0.90402  0.09156  0.03922  1.0000
  F   F94       1.0  0.89892  0.11311  0.52534  1.0000
  F   F95       1.0  0.89638  0.57634  0.03982  1.0000
  F   F96       1.0  0.89957  0.58343  0.54450  1.0000
  F   F97       1.0  0.15412  0.18222  0.12382  1.0000
  F   F98       1.0  0.14987  0.19552  0.64746  1.0000
  F   F99       1.0  0.15074  0.68745  0.13033  1.0000
  F   F100      1.0  0.15101  0.70046  0.63768  1.0000
  F   F101      1.0  0.40636  0.18872  0.11567  1.0000
  F   F102      1.0  0.40012  0.19167  0.61129  1.0000
  F   F103      1.0  0.40090  0.69808  0.12694  1.0000
  F   F104      1.0  0.39837  0.71379  0.61828  1.0000
  F   F105      1.0  0.65269  0.18746  0.11319  1.0000
  F   F106      1.0  0.65181  0.19425  0.63249  1.0000
  F   F107      1.0  0.64879  0.69577  0.11883  1.0000
  F   F108      1.0  0.65286  0.70125  0.62120  1.0000
  F   F109      1.0  0.90113  0.18801  0.13092  1.0000
  F   F110      1.0  0.90179  0.17381  0.64750  1.0000
  F   F111      1.0  0.90033  0.68796  0.12016  1.0000
  F   F112      1.0  0.90715  0.69006  0.61451  1.0000
  F   F113      1.0  0.09432  0.31058  0.36449  1.0000
  F   F114      1.0  0.09994  0.30655  0.88055  1.0000
  F   F115      1.0  0.10021  0.80654  0.37786  1.0000
  F   F116      1.0  0.09431  0.81154  0.88057  1.0000
  F   F117      1.0  0.34872  0.30786  0.35780  1.0000
  F   F118      1.0  0.34765  0.31619  0.86607  1.0000
  F   F119      1.0  0.34285  0.80670  0.37553  1.0000
  F   F120      1.0  0.35045  0.79487  0.87983  1.0000
  F   F121      1.0  0.59600  0.30160  0.37145  1.0000
  F   F122      1.0  0.60585  0.29646  0.89089  1.0000
  F   F123      1.0  0.59243  0.79564  0.38151  1.0000
  F   F124      1.0  0.59954  0.79832  0.88011  1.0000
  F   F125      1.0  0.84679  0.31550  0.39569  1.0000
  F   F126      1.0  0.85131  0.30217  0.86714  1.0000
  F   F127      1.0  0.84983  0.80546  0.38109  1.0000
  F   F128      1.0  0.84786  0.81618  0.88128  1.0000
  F   F129      1.0  0.06797  0.25762  0.13029  1.0000
  F   F130      1.0  0.07038  0.24594  0.64098  1.0000
  F   F131      1.0  0.06771  0.75622  0.13896  1.0000
  F   F132      1.0  0.07521  0.75708  0.62807  1.0000
  F   F133      1.0  0.31207  0.24780  0.13695  1.0000
  F   F134      1.0  0.30505  0.24954  0.65029  1.0000
  F   F135      1.0  0.31848  0.75718  0.13073  1.0000
  F   F136      1.0  0.31590  0.76496  0.63306  1.0000
  F   F137      1.0  0.56439  0.24837  0.13562  1.0000
  F   F138      1.0  0.56909  0.26146  0.62754  1.0000
  F   F139      1.0  0.56500  0.75734  0.13208  1.0000
  F   F140      1.0  0.56342  0.75266  0.64935  1.0000
  F   F141      1.0  0.81013  0.24360  0.16456  1.0000
  F   F142      1.0  0.82603  0.25606  0.62259  1.0000
  F   F143      1.0  0.81728  0.74962  0.13333  1.0000
  F   F144      1.0  0.81666  0.75626  0.63359  1.0000
  F   F145      1.0  0.12780  0.36453  0.10380  1.0000
  F   F146      1.0  0.12498  0.37501  0.61245  1.0000
  F   F147      1.0  0.12345  0.87890  0.10382  1.0000
  F   F148      1.0  0.12466  0.89006  0.59074  1.0000
  F   F149      1.0  0.37543  0.36010  0.11460  1.0000
  F   F150      1.0  0.37253  0.35794  0.61716  1.0000
  F   F151      1.0  0.37667  0.87272  0.09651  1.0000
  F   F152      1.0  0.37542  0.88347  0.60147  1.0000
  F   F153      1.0  0.62606  0.35133  0.12048  1.0000
  F   F154      1.0  0.62692  0.36881  0.60951  1.0000
  F   F155      1.0  0.62401  0.86113  0.11426  1.0000
  F   F156      1.0  0.61982  0.87255  0.61685  1.0000
  F   F157      1.0  0.87448  0.36666  0.11313  1.0000
  F   F158      1.0  0.87640  0.36404  0.61722  1.0000
  F   F159      1.0  0.87492  0.86634  0.10822  1.0000
  F   F160      1.0  0.87455  0.84057  0.63329  1.0000
  F   F161      1.0  0.17784  0.24608  0.36841  1.0000
  F   F162      1.0  0.18011  0.24456  0.85925  1.0000
  F   F163      1.0  0.18986  0.75885  0.33746  1.0000
  F   F164      1.0  0.18255  0.75284  0.85911  1.0000
  F   F165      1.0  0.43201  0.25305  0.35097  1.0000
  F   F166      1.0  0.43289  0.25198  0.86101  1.0000
  F   F167      1.0  0.43146  0.75595  0.36290  1.0000
  F   F168      1.0  0.43650  0.74453  0.85865  1.0000
  F   F169      1.0  0.67640  0.24084  0.36715  1.0000
  F   F170      1.0  0.69390  0.24286  0.85755  1.0000
  F   F171      1.0  0.67599  0.73776  0.37398  1.0000
  F   F172      1.0  0.69472  0.74804  0.84711  1.0000
  F   F173      1.0  0.94471  0.25962  0.34013  1.0000
  F   F174      1.0  0.93889  0.24947  0.85319  1.0000
  F   F175      1.0  0.92820  0.73791  0.37870  1.0000
  F   F176      1.0  0.93305  0.73812  0.87418  1.0000
  F   F177      1.0  0.12203  0.10992  0.41489  1.0000
  F   F178      1.0  0.12356  0.14626  0.86816  1.0000
  F   F179      1.0  0.12045  0.62654  0.40455  1.0000
  F   F180      1.0  0.12584  0.64555  0.88306  1.0000
  F   F181      1.0  0.37297  0.12708  0.39420  1.0000
  F   F182      1.0  0.37561  0.13574  0.88356  1.0000
  F   F183      1.0  0.37564  0.64244  0.37460  1.0000
  F   F184      1.0  0.37385  0.62615  0.89408  1.0000
  F   F185      1.0  0.62594  0.10472  0.40066  1.0000
  F   F186      1.0  0.62559  0.12824  0.89288  1.0000
  F   F187      1.0  0.62479  0.61089  0.40218  1.0000
  F   F188      1.0  0.63079  0.62247  0.88192  1.0000
  F   F189      1.0  0.87789  0.14595  0.37936  1.0000
  F   F190      1.0  0.87473  0.11609  0.89214  1.0000
  F   F191      1.0  0.87540  0.63333  0.37829  1.0000
  F   F192      1.0  0.87375  0.64021  0.88779  1.0000
  F   F193      1.0  0.00993  0.36429  0.07330  1.0000
  F   F194      1.0  0.00713  0.35548  0.57186  1.0000
  F   F195      1.0  0.00976  0.87315  0.06967  1.0000
  F   F196      1.0  0.00748  0.85909  0.58480  1.0000
  F   F197      1.0  0.26206  0.35831  0.05938  1.0000
  F   F198      1.0  0.25382  0.36487  0.57789  1.0000
  F   F199      1.0  0.25595  0.84948  0.08833  1.0000
  F   F200      1.0  0.25767  0.87001  0.56489  1.0000
  F   F201      1.0  0.50905  0.36494  0.06087  1.0000
  F   F202      1.0  0.50449  0.36106  0.57377  1.0000
  F   F203      1.0  0.50883  0.86161  0.07281  1.0000
  F   F204      1.0  0.50707  0.85777  0.57789  1.0000
  F   F205      1.0  0.75549  0.36479  0.06806  1.0000
  F   F206      1.0  0.75699  0.35800  0.57792  1.0000
  F   F207      1.0  0.75751  0.84686  0.08315  1.0000
  F   F208      1.0  0.75564  0.86900  0.57324  1.0000
  F   F209      1.0  0.07318  0.47903  0.16470  1.0000
  F   F210      1.0  0.07085  0.46606  0.69190  1.0000
  F   F211      1.0  0.06563  0.98828  0.17620  1.0000
  F   F212      1.0  0.06951  0.97981  0.68533  1.0000
  F   F213      1.0  0.31664  0.49169  0.16918  1.0000
  F   F214      1.0  0.32678  0.47994  0.66594  1.0000
  F   F215      1.0  0.31831  0.99857  0.14558  1.0000
  F   F216      1.0  0.32006  0.99082  0.66431  1.0000
  F   F217      1.0  0.57385  0.47499  0.17150  1.0000
  F   F218      1.0  0.56837  0.48083  0.67988  1.0000
  F   F219      1.0  0.57160  0.98404  0.17562  1.0000
  F   F220      1.0  0.56688  0.98260  0.69285  1.0000
  F   F221      1.0  0.81797  0.47908  0.17437  1.0000
  F   F222      1.0  0.81426  0.48578  0.68404  1.0000
  F   F223      1.0  0.82121  0.99167  0.16150  1.0000
  F   F224      1.0  0.82221  0.97129  0.67677  1.0000
  F   F225      1.0  0.24238  0.14935  0.41539  1.0000
  F   F226      1.0  0.24164  0.14926  0.90751  1.0000
  F   F227      1.0  0.23693  0.63553  0.43359  1.0000
  F   F228      1.0  0.24121  0.63895  0.92356  1.0000
  F   F229      1.0  0.48860  0.13838  0.43108  1.0000
  F   F230      1.0  0.49062  0.14334  0.92946  1.0000
  F   F231      1.0  0.49055  0.63533  0.43437  1.0000
  F   F232      1.0  0.49698  0.62884  0.92476  1.0000
  F   F233      1.0  0.74469  0.15171  0.41081  1.0000
  F   F234      1.0  0.74550  0.11428  0.93381  1.0000
  F   F235      1.0  0.74130  0.64534  0.42069  1.0000
  F   F236      1.0  0.74401  0.63552  0.92431  1.0000
  F   F237      1.0  0.99327  0.14744  0.42099  1.0000
  F   F238      1.0  0.99060  0.12740  0.92707  1.0000
  F   F239      1.0  0.99411  0.64776  0.42132  1.0000
  F   F240      1.0  0.99127  0.64105  0.93764  1.0000
  F   F241      1.0  0.18407  0.02474  0.31099  1.0000
  F   F242      1.0  0.18009  0.01434  0.81949  1.0000
  F   F243      1.0  0.18172  0.51639  0.31930  1.0000
  F   F244      1.0  0.18160  0.52728  0.81039  1.0000
  F   F245      1.0  0.42809  0.01661  0.32621  1.0000
  F   F246      1.0  0.42831  0.01797  0.82486  1.0000
  F   F247      1.0  0.42278  0.52703  0.32727  1.0000
  F   F248      1.0  0.42826  0.51275  0.82649  1.0000
  F   F249      1.0  0.68317  0.01115  0.30663  1.0000
  F   F250      1.0  0.68151  0.00462  0.83625  1.0000
  F   F251      1.0  0.68044  0.50291  0.31652  1.0000
  F   F252      1.0  0.68343  0.51179  0.81794  1.0000
  F   F253      1.0  0.92710  0.00754  0.34050  1.0000
  F   F254      1.0  0.93217  0.01609  0.81341  1.0000
  F   F255      1.0  0.93431  0.51723  0.32359  1.0000
  F   F256      1.0  0.92491  0.50337  0.84118  1.0000
  F   F257      1.0  0.00006  0.25822  0.99295  1.0000
  F   F258      1.0  0.99751  0.24571  0.50430  1.0000
  F   F259      1.0  0.00050  0.75606  0.00056  1.0000
  F   F260      1.0  0.00682  0.76475  0.49005  1.0000
  F   F261      1.0  0.25020  0.24078  0.00213  1.0000
  F   F262      1.0  0.25095  0.24166  0.50291  1.0000
  F   F263      1.0  0.25099  0.76248  0.98894  1.0000
  F   F264      1.0  0.24931  0.75389  0.49996  1.0000
  F   F265      1.0  0.49854  0.25654  0.99087  1.0000
  F   F266      1.0  0.49599  0.24303  0.50492  1.0000
  F   F267      1.0  0.49698  0.74262  0.00824  1.0000
  F   F268      1.0  0.49615  0.74724  0.50321  1.0000
  F   F269      1.0  0.74993  0.25042  0.99877  1.0000
  F   F270      1.0  0.75123  0.24168  0.51161  1.0000
  F   F271      1.0  0.74954  0.73105  0.01631  1.0000
  F   F272      1.0  0.74746  0.74174  0.50276  1.0000
  F   F273      1.0  0.12154  0.00606  0.24969  1.0000
  F   F274      1.0  0.13425  0.99621  0.73034  1.0000
  F   F275      1.0  0.12330  0.49542  0.25516  1.0000
  F   F276      1.0  0.12452  0.49900  0.74878  1.0000
  F   F277      1.0  0.36368  0.99510  0.26057  1.0000
  F   F278      1.0  0.37705  0.99897  0.74605  1.0000
  F   F279      1.0  0.36515  0.49536  0.25932  1.0000
  F   F280      1.0  0.36443  0.51058  0.75744  1.0000
  F   F281      1.0  0.61993  0.98970  0.25342  1.0000
  F   F282      1.0  0.62674  0.00197  0.75361  1.0000
  F   F283      1.0  0.62023  0.48861  0.26258  1.0000
  F   F284      1.0  0.62736  0.50189  0.75578  1.0000
  F   F285      1.0  0.87955  0.99679  0.24486  1.0000
  F   F286      1.0  0.87062  0.99039  0.75984  1.0000
  F   F287      1.0  0.88191  0.51381  0.23479  1.0000
  F   F288      1.0  0.88311  0.50371  0.74068  1.0000
  F   F289      1.0  0.04511  0.04160  0.01878  1.0000
  F   F290      1.0  0.03296  0.03427  0.54046  1.0000
  F   F291      1.0  0.04579  0.52980  0.02370  1.0000
  F   F292      1.0  0.04337  0.53351  0.52004  1.0000
  F   F293      1.0  0.28764  0.03708  0.01139  1.0000
  F   F294      1.0  0.29159  0.04336  0.52172  1.0000
  F   F295      1.0  0.28744  0.53313  0.02692  1.0000
  F   F296      1.0  0.29427  0.52797  0.52298  1.0000
  F   F297      1.0  0.54594  0.02751  0.03094  1.0000
  F   F298      1.0  0.54271  0.02491  0.52128  1.0000
  F   F299      1.0  0.54582  0.52262  0.01890  1.0000
  F   F300      1.0  0.53700  0.52546  0.52410  1.0000
  F   F301      1.0  0.78946  0.03160  0.02739  1.0000
  F   F302      1.0  0.79159  0.02893  0.52145  1.0000
  F   F303      1.0  0.79082  0.53627  0.02509  1.0000
  F   F304      1.0  0.79002  0.53529  0.53301  1.0000
  F   F305      1.0  0.23302  0.41622  0.22075  1.0000
  F   F306      1.0  0.23530  0.40213  0.74190  1.0000
  F   F307      1.0  0.23444  0.93722  0.21282  1.0000
  F   F308      1.0  0.23110  0.91429  0.72096  1.0000
  F   F309      1.0  0.48225  0.41639  0.23453  1.0000
  F   F310      1.0  0.48717  0.40498  0.73344  1.0000
  F   F311      1.0  0.48293  0.91010  0.22632  1.0000
  F   F312      1.0  0.48377  0.90231  0.73483  1.0000
  F   F313      1.0  0.73418  0.40193  0.21959  1.0000
  F   F314      1.0  0.73661  0.40478  0.72734  1.0000
  F   F315      1.0  0.73389  0.89789  0.22997  1.0000
  F   F316      1.0  0.73423  0.91889  0.72855  1.0000
  F   F317      1.0  0.98503  0.42573  0.21251  1.0000
  F   F318      1.0  0.98784  0.41566  0.72812  1.0000
  F   F319      1.0  0.98105  0.91976  0.23071  1.0000
  F   F320      1.0  0.98409  0.89213  0.74212  1.0000
  F   F321      1.0  0.20325  0.47176  0.47839  1.0000
  F   F322      1.0  0.19853  0.47165  0.99095  1.0000
  F   F323      1.0  0.20450  0.97564  0.46756  1.0000
  F   F324      1.0  0.20657  0.96704  0.98148  1.0000
  F   F325      1.0  0.45020  0.48208  0.48365  1.0000
  F   F326      1.0  0.45804  0.46980  0.97570  1.0000
  F   F327      1.0  0.46143  0.96552  0.47342  1.0000
  F   F328      1.0  0.46022  0.97754  0.96676  1.0000
  F   F329      1.0  0.70769  0.47393  0.47572  1.0000
  F   F330      1.0  0.70593  0.46113  0.96992  1.0000
  F   F331      1.0  0.70498  0.96890  0.47939  1.0000
  F   F332      1.0  0.71122  0.96195  0.97696  1.0000
  F   F333      1.0  0.96082  0.47062  0.47024  1.0000
  F   F334      1.0  0.95970  0.46212  0.98431  1.0000
  F   F335      1.0  0.95668  0.98382  0.47822  1.0000
  F   F336      1.0  0.95911  0.96303  0.97172  1.0000
  F   F337      1.0  0.02170  0.08935  0.27334  1.0000
  F   F338      1.0  0.00933  0.09014  0.77492  1.0000
  F   F339      1.0  0.02018  0.59190  0.26131  1.0000
  F   F340      1.0  0.01091  0.57633  0.78356  1.0000
  F   F341      1.0  0.26570  0.08213  0.27518  1.0000
  F   F342      1.0  0.26630  0.07470  0.77441  1.0000
  F   F343      1.0  0.25971  0.59909  0.26735  1.0000
  F   F344      1.0  0.26630  0.58120  0.77293  1.0000
  F   F345      1.0  0.51511  0.08878  0.28295  1.0000
  F   F346      1.0  0.51075  0.10476  0.76918  1.0000
  F   F347      1.0  0.51133  0.57625  0.28114  1.0000
  F   F348      1.0  0.51345  0.58267  0.77125  1.0000
  F   F349      1.0  0.76502  0.08042  0.27072  1.0000
  F   F350      1.0  0.76669  0.08157  0.76392  1.0000
  F   F351      1.0  0.76370  0.57705  0.27343  1.0000
  F   F352      1.0  0.76873  0.58702  0.77015  1.0000
  F   F353      1.0  0.10003  0.40626  0.46328  1.0000
  F   F354      1.0  0.10608  0.40379  0.96443  1.0000
  F   F355      1.0  0.10261  0.91874  0.45562  1.0000
  F   F356      1.0  0.09934  0.92089  0.96179  1.0000
  F   F357      1.0  0.35081  0.39608  0.45582  1.0000
  F   F358      1.0  0.35174  0.41384  0.96415  1.0000
  F   F359      1.0  0.34710  0.92114  0.46739  1.0000
  F   F360      1.0  0.35288  0.90706  0.95162  1.0000
  F   F361      1.0  0.60600  0.40251  0.46496  1.0000
  F   F362      1.0  0.60384  0.41622  0.96659  1.0000
  F   F363      1.0  0.60008  0.91124  0.45056  1.0000
  F   F364      1.0  0.60017  0.90819  0.97384  1.0000
  F   F365      1.0  0.85346  0.42874  0.45887  1.0000
  F   F366      1.0  0.84523  0.38925  0.97182  1.0000
  F   F367      1.0  0.85318  0.91722  0.46817  1.0000
  F   F368      1.0  0.85078  0.91916  0.96128  1.0000
  F   F369      1.0  0.03614  0.29810  0.28666  1.0000
  F   F370      1.0  0.04548  0.28417  0.78524  1.0000
  F   F371      1.0  0.04535  0.80302  0.28959  1.0000
  F   F372      1.0  0.04979  0.80341  0.78277  1.0000
  F   F373      1.0  0.29371  0.30384  0.27811  1.0000
  F   F374      1.0  0.30055  0.29703  0.78298  1.0000
  F   F375      1.0  0.29259  0.80580  0.27966  1.0000
  F   F376      1.0  0.29432  0.81541  0.79119  1.0000
  F   F377      1.0  0.54184  0.29277  0.29605  1.0000
  F   F378      1.0  0.55621  0.29837  0.78208  1.0000
  F   F379      1.0  0.54264  0.79317  0.28873  1.0000
  F   F380      1.0  0.54322  0.79642  0.79912  1.0000
  F   F381      1.0  0.80183  0.30543  0.29507  1.0000
  F   F382      1.0  0.79856  0.29049  0.78922  1.0000
  F   F383      1.0  0.80171  0.81047  0.27680  1.0000
  F   F384      1.0  0.78740  0.78836  0.79742  1.0000
