data_image0
_chemical_formula_structural       Hf96F384
_chemical_formula_sum              "Hf96 F384"
_cell_length_a       31.0418
_cell_length_b       15.5226
_cell_length_c       15.5112
_cell_angle_alpha    63.342
_cell_angle_beta     63.342
_cell_angle_gamma    80.1625

_space_group_name_H-M_alt    "P 1"
_space_group_IT_number       1

loop_
  _space_group_symop_operation_xyz
  'x, y, z'

loop_
  _atom_site_type_symbol
  _atom_site_label
  _atom_site_symmetry_multiplicity
  _atom_site_fract_x
  _atom_site_fract_y
  _atom_site_fract_z
  _atom_site_occupancy
  Hf  Hf1       1.0  0.19608  0.09676  0.38139  1.0000
  Hf  Hf2       1.0  0.19644  0.11059  0.87105  1.0000
  Hf  Hf3       1.0  0.19801  0.61189  0.36862  1.0000
  Hf  Hf4       1.0  0.19711  0.61412  0.87157  1.0000
  Hf  Hf5       1.0  0.44371  0.10080  0.38165  1.0000
  Hf  Hf6       1.0  0.44715  0.10896  0.87289  1.0000
  Hf  Hf7       1.0  0.44966  0.60948  0.36925  1.0000
  Hf  Hf8       1.0  0.44529  0.60722  0.87626  1.0000
  Hf  Hf9       1.0  0.69995  0.10861  0.36991  1.0000
  Hf  Hf10      1.0  0.69492  0.11027  0.87412  1.0000
  Hf  Hf11      1.0  0.69672  0.60829  0.37234  1.0000
  Hf  Hf12      1.0  0.69598  0.59929  0.88105  1.0000
  Hf  Hf13      1.0  0.94303  0.10740  0.38095  1.0000
  Hf  Hf14      1.0  0.94532  0.10830  0.86647  1.0000
  Hf  Hf15      1.0  0.94880  0.61779  0.37410  1.0000
  Hf  Hf16      1.0  0.94866  0.60923  0.87322  1.0000
  Hf  Hf17      1.0  0.05311  0.39631  0.12357  1.0000
  Hf  Hf18      1.0  0.05247  0.39285  0.62814  1.0000
  Hf  Hf19      1.0  0.05271  0.88835  0.12156  1.0000
  Hf  Hf20      1.0  0.05525  0.89718  0.61817  1.0000
  Hf  Hf21      1.0  0.30213  0.38667  0.12577  1.0000
  Hf  Hf22      1.0  0.30454  0.39426  0.61385  1.0000
  Hf  Hf23      1.0  0.30578  0.88521  0.11795  1.0000
  Hf  Hf24      1.0  0.30603  0.88558  0.63716  1.0000
  Hf  Hf25      1.0  0.55243  0.39608  0.12200  1.0000
  Hf  Hf26      1.0  0.55459  0.39873  0.62076  1.0000
  Hf  Hf27      1.0  0.55371  0.89660  0.12499  1.0000
  Hf  Hf28      1.0  0.55399  0.89378  0.63236  1.0000
  Hf  Hf29      1.0  0.80027  0.39260  0.12592  1.0000
  Hf  Hf30      1.0  0.80201  0.39126  0.63060  1.0000
  Hf  Hf31      1.0  0.80726  0.90535  0.10361  1.0000
  Hf  Hf32      1.0  0.80538  0.89380  0.62512  1.0000
  Hf  Hf33      1.0  0.05381  0.19002  0.41282  1.0000
  Hf  Hf34      1.0  0.05610  0.18490  0.91524  1.0000
  Hf  Hf35      1.0  0.05676  0.69181  0.41149  1.0000
  Hf  Hf36      1.0  0.05950  0.68954  0.91080  1.0000
  Hf  Hf37      1.0  0.30582  0.18210  0.41656  1.0000
  Hf  Hf38      1.0  0.30606  0.18279  0.91288  1.0000
  Hf  Hf39      1.0  0.30565  0.68187  0.42370  1.0000
  Hf  Hf40      1.0  0.30563  0.67781  0.91811  1.0000
  Hf  Hf41      1.0  0.55574  0.18192  0.42955  1.0000
  Hf  Hf42      1.0  0.55720  0.18711  0.91360  1.0000
  Hf  Hf43      1.0  0.55387  0.68339  0.41497  1.0000
  Hf  Hf44      1.0  0.55849  0.68365  0.91384  1.0000
  Hf  Hf45      1.0  0.80608  0.18478  0.41112  1.0000
  Hf  Hf46      1.0  0.80507  0.18778  0.91331  1.0000
  Hf  Hf47      1.0  0.80286  0.65733  0.42860  1.0000
  Hf  Hf48      1.0  0.80805  0.68424  0.91401  1.0000
  Hf  Hf49      1.0  0.16126  0.38255  0.32712  1.0000
  Hf  Hf50      1.0  0.15985  0.39541  0.82766  1.0000
  Hf  Hf51      1.0  0.16304  0.89555  0.32430  1.0000
  Hf  Hf52      1.0  0.15795  0.88461  0.83380  1.0000
  Hf  Hf53      1.0  0.40575  0.38422  0.33842  1.0000
  Hf  Hf54      1.0  0.40759  0.38328  0.83585  1.0000
  Hf  Hf55      1.0  0.40798  0.88152  0.33984  1.0000
  Hf  Hf56      1.0  0.41079  0.88765  0.83649  1.0000
  Hf  Hf57      1.0  0.65762  0.39057  0.32507  1.0000
  Hf  Hf58      1.0  0.65656  0.39125  0.83278  1.0000
  Hf  Hf59      1.0  0.65950  0.88190  0.33524  1.0000
  Hf  Hf60      1.0  0.65980  0.87894  0.83540  1.0000
  Hf  Hf61      1.0  0.90885  0.39146  0.33821  1.0000
  Hf  Hf62      1.0  0.90767  0.39625  0.83732  1.0000
  Hf  Hf63      1.0  0.90817  0.89924  0.32931  1.0000
  Hf  Hf64      1.0  0.90895  0.89017  0.83203  1.0000
  Hf  Hf65      1.0  0.18929  0.31788  0.08511  1.0000
  Hf  Hf66      1.0  0.19341  0.31830  0.58130  1.0000
  Hf  Hf67      1.0  0.19633  0.81943  0.08266  1.0000
  Hf  Hf68      1.0  0.19406  0.81244  0.58683  1.0000
  Hf  Hf69      1.0  0.44403  0.31162  0.08343  1.0000
  Hf  Hf70      1.0  0.44237  0.32368  0.58475  1.0000
  Hf  Hf71      1.0  0.44598  0.82059  0.08224  1.0000
  Hf  Hf72      1.0  0.44554  0.81684  0.59148  1.0000
  Hf  Hf73      1.0  0.69188  0.31139  0.08253  1.0000
  Hf  Hf74      1.0  0.69333  0.31918  0.58278  1.0000
  Hf  Hf75      1.0  0.69565  0.81602  0.08323  1.0000
  Hf  Hf76      1.0  0.69758  0.81545  0.57952  1.0000
  Hf  Hf77      1.0  0.94328  0.32067  0.08260  1.0000
  Hf  Hf78      1.0  0.94242  0.32422  0.58239  1.0000
  Hf  Hf79      1.0  0.94150  0.81300  0.08775  1.0000
  Hf  Hf80      1.0  0.94114  0.81264  0.58563  1.0000
  Hf  Hf81      1.0  0.08780  0.11363  0.16565  1.0000
  Hf  Hf82      1.0  0.09079  0.11033  0.66858  1.0000
  Hf  Hf83      1.0  0.09154  0.61112  0.16905  1.0000
  Hf  Hf84      1.0  0.09282  0.61040  0.66440  1.0000
  Hf  Hf85      1.0  0.34491  0.10770  0.16465  1.0000
  Hf  Hf86      1.0  0.34277  0.11075  0.67142  1.0000
  Hf  Hf87      1.0  0.34199  0.60999  0.17103  1.0000
  Hf  Hf88      1.0  0.33713  0.60044  0.67243  1.0000
  Hf  Hf89      1.0  0.58750  0.10428  0.18527  1.0000
  Hf  Hf90      1.0  0.59512  0.11421  0.66560  1.0000
  Hf  Hf91      1.0  0.59351  0.61483  0.16650  1.0000
  Hf  Hf92      1.0  0.59045  0.61717  0.65813  1.0000
  Hf  Hf93      1.0  0.84296  0.11481  0.15210  1.0000
  Hf  Hf94      1.0  0.83823  0.11284  0.66725  1.0000
  Hf  Hf95      1.0  0.84386  0.60846  0.16852  1.0000
  Hf  Hf96      1.0  0.83801  0.61028  0.66834  1.0000
  F   F1        1.0  0.07796  0.12984  0.30005  1.0000
  F   F2        1.0  0.07843  0.11818  0.80876  1.0000
  F   F3        1.0  0.08055  0.63479  0.30106  1.0000
  F   F4        1.0  0.08030  0.63236  0.79397  1.0000
  F   F5        1.0  0.32983  0.10532  0.30389  1.0000
  F   F6        1.0  0.33674  0.14903  0.78760  1.0000
  F   F7        1.0  0.33311  0.62489  0.31516  1.0000
  F   F8        1.0  0.32705  0.61951  0.80296  1.0000
  F   F9        1.0  0.57461  0.11342  0.32542  1.0000
  F   F10       1.0  0.58209  0.15509  0.78613  1.0000
  F   F11       1.0  0.57828  0.63480  0.30042  1.0000
  F   F12       1.0  0.58333  0.64457  0.79766  1.0000
  F   F13       1.0  0.83043  0.12941  0.29155  1.0000
  F   F14       1.0  0.83295  0.14221  0.78613  1.0000
  F   F15       1.0  0.82492  0.59971  0.31609  1.0000
  F   F16       1.0  0.83788  0.63008  0.80994  1.0000
  F   F17       1.0  0.19485  0.35289  0.43208  1.0000
  F   F18       1.0  0.18583  0.33931  0.94054  1.0000
  F   F19       1.0  0.18164  0.84591  0.44463  1.0000
  F   F20       1.0  0.17993  0.84117  0.95648  1.0000
  F   F21       1.0  0.43002  0.35216  0.45039  1.0000
  F   F22       1.0  0.43148  0.33243  0.95138  1.0000
  F   F23       1.0  0.43523  0.84322  0.44518  1.0000
  F   F24       1.0  0.43641  0.84316  0.95021  1.0000
  F   F25       1.0  0.67849  0.34812  0.44306  1.0000
  F   F26       1.0  0.67723  0.34080  0.95433  1.0000
  F   F27       1.0  0.69743  0.84541  0.43708  1.0000
  F   F28       1.0  0.68700  0.84164  0.95271  1.0000
  F   F29       1.0  0.94073  0.34917  0.44484  1.0000
  F   F30       1.0  0.92376  0.33340  0.96299  1.0000
  F   F31       1.0  0.92601  0.83536  0.45473  1.0000
  F   F32       1.0  0.94033  0.85125  0.93612  1.0000
  F   F33       1.0  0.16354  0.37799  0.19144  1.0000
  F   F34       1.0  0.17405  0.38462  0.68581  1.0000
  F   F35       1.0  0.17491  0.88018  0.18712  1.0000
  F   F36       1.0  0.16047  0.84209  0.71628  1.0000
  F   F37       1.0  0.42048  0.36865  0.19444  1.0000
  F   F38       1.0  0.42608  0.37375  0.68711  1.0000
  F   F39       1.0  0.41761  0.85614  0.21513  1.0000
  F   F40       1.0  0.42411  0.87010  0.70476  1.0000
  F   F41       1.0  0.67188  0.36727  0.19355  1.0000
  F   F42       1.0  0.67237  0.37876  0.69236  1.0000
  F   F43       1.0  0.67809  0.87577  0.19098  1.0000
  F   F44       1.0  0.67654  0.87157  0.69755  1.0000
  F   F45       1.0  0.92500  0.37276  0.19441  1.0000
  F   F46       1.0  0.91695  0.38490  0.69766  1.0000
  F   F47       1.0  0.91704  0.85824  0.20048  1.0000
  F   F48       1.0  0.92243  0.87610  0.69150  1.0000
  F   F49       1.0  0.05366  0.15412  0.06563  1.0000
  F   F50       1.0  0.06458  0.16380  0.54986  1.0000
  F   F51       1.0  0.06644  0.65990  0.04942  1.0000
  F   F52       1.0  0.05377  0.65510  0.55836  1.0000
  F   F53       1.0  0.31459  0.15725  0.05726  1.0000
  F   F54       1.0  0.32187  0.16067  0.54924  1.0000
  F   F55       1.0  0.32874  0.67018  0.03425  1.0000
  F   F56       1.0  0.30641  0.65332  0.56539  1.0000
  F   F57       1.0  0.57279  0.16221  0.05720  1.0000
  F   F58       1.0  0.56693  0.16675  0.55320  1.0000
  F   F59       1.0  0.57605  0.66876  0.03873  1.0000
  F   F60       1.0  0.56787  0.66315  0.54565  1.0000
  F   F61       1.0  0.80272  0.14677  0.06059  1.0000
  F   F62       1.0  0.81536  0.16156  0.55823  1.0000
  F   F63       1.0  0.81365  0.65731  0.06527  1.0000
  F   F64       1.0  0.81374  0.64424  0.55755  1.0000
  F   F65       1.0  0.19426  0.21135  0.22364  1.0000
  F   F66       1.0  0.21263  0.20799  0.70140  1.0000
  F   F67       1.0  0.20448  0.70447  0.21664  1.0000
  F   F68       1.0  0.21523  0.69504  0.71307  1.0000
  F   F69       1.0  0.45575  0.19754  0.22364  1.0000
  F   F70       1.0  0.45137  0.19507  0.71076  1.0000
  F   F71       1.0  0.45427  0.70006  0.20829  1.0000
  F   F72       1.0  0.46088  0.70030  0.71926  1.0000
  F   F73       1.0  0.71163  0.21145  0.19426  1.0000
  F   F74       1.0  0.69954  0.19929  0.72232  1.0000
  F   F75       1.0  0.70481  0.70578  0.22563  1.0000
  F   F76       1.0  0.70695  0.70439  0.71415  1.0000
  F   F77       1.0  0.95392  0.21006  0.20919  1.0000
  F   F78       1.0  0.94994  0.19022  0.69901  1.0000
  F   F79       1.0  0.95147  0.68905  0.22147  1.0000
  F   F80       1.0  0.95150  0.70198  0.70797  1.0000
  F   F81       1.0  0.14361  0.08901  0.04435  1.0000
  F   F82       1.0  0.15114  0.08769  0.54043  1.0000
  F   F83       1.0  0.15475  0.60743  0.03039  1.0000
  F   F84       1.0  0.14582  0.59441  0.54093  1.0000
  F   F85       1.0  0.40974  0.07903  0.03818  1.0000
  F   F86       1.0  0.39978  0.06915  0.55378  1.0000
  F   F87       1.0  0.39600  0.58084  0.02909  1.0000
  F   F88       1.0  0.40313  0.60337  0.55562  1.0000
  F   F89       1.0  0.65125  0.09742  0.05412  1.0000
  F   F90       1.0  0.64754  0.09339  0.54470  1.0000
  F   F91       1.0  0.65751  0.57674  0.05037  1.0000
  F   F92       1.0  0.64876  0.58629  0.53662  1.0000
  F   F93       1.0  0.89887  0.11080  0.02222  1.0000
  F   F94       1.0  0.89506  0.09429  0.53856  1.0000
  F   F95       1.0  0.89880  0.60329  0.04153  1.0000
  F   F96       1.0  0.89411  0.60057  0.53388  1.0000
  F   F97       1.0  0.14886  0.19610  0.11909  1.0000
  F   F98       1.0  0.15065  0.19890  0.62588  1.0000
  F   F99       1.0  0.16431  0.68830  0.12548  1.0000
  F   F100      1.0  0.15605  0.69458  0.63187  1.0000
  F   F101      1.0  0.40340  0.18083  0.13272  1.0000
  F   F102      1.0  0.40305  0.20468  0.60809  1.0000
  F   F103      1.0  0.39892  0.69344  0.11392  1.0000
  F   F104      1.0  0.39849  0.70819  0.65797  1.0000
  F   F105      1.0  0.64532  0.19761  0.14552  1.0000
  F   F106      1.0  0.66068  0.19088  0.61502  1.0000
  F   F107      1.0  0.65633  0.67914  0.13965  1.0000
  F   F108      1.0  0.65622  0.70187  0.61778  1.0000
  F   F109      1.0  0.91364  0.18807  0.11434  1.0000
  F   F110      1.0  0.89128  0.21818  0.60700  1.0000
  F   F111      1.0  0.90165  0.69930  0.12704  1.0000
  F   F112      1.0  0.89888  0.67425  0.64192  1.0000
  F   F113      1.0  0.09321  0.30480  0.37557  1.0000
  F   F114      1.0  0.10064  0.30380  0.87272  1.0000
  F   F115      1.0  0.09685  0.80416  0.37801  1.0000
  F   F116      1.0  0.09275  0.80617  0.87938  1.0000
  F   F117      1.0  0.34490  0.30423  0.36607  1.0000
  F   F118      1.0  0.35223  0.30523  0.86835  1.0000
  F   F119      1.0  0.34768  0.79092  0.40124  1.0000
  F   F120      1.0  0.34458  0.79738  0.86099  1.0000
  F   F121      1.0  0.60297  0.30222  0.37236  1.0000
  F   F122      1.0  0.59434  0.30660  0.87657  1.0000
  F   F123      1.0  0.59789  0.80723  0.36998  1.0000
  F   F124      1.0  0.60103  0.79756  0.85671  1.0000
  F   F125      1.0  0.84802  0.30271  0.36590  1.0000
  F   F126      1.0  0.84575  0.30204  0.90542  1.0000
  F   F127      1.0  0.85126  0.81707  0.40194  1.0000
  F   F128      1.0  0.85262  0.79926  0.89366  1.0000
  F   F129      1.0  0.06857  0.25729  0.12954  1.0000
  F   F130      1.0  0.06330  0.24232  0.64425  1.0000
  F   F131      1.0  0.06524  0.74287  0.14202  1.0000
  F   F132      1.0  0.07751  0.75729  0.62221  1.0000
  F   F133      1.0  0.31733  0.24453  0.14156  1.0000
  F   F134      1.0  0.31203  0.25726  0.64780  1.0000
  F   F135      1.0  0.30017  0.74382  0.16582  1.0000
  F   F136      1.0  0.31781  0.74439  0.64145  1.0000
  F   F137      1.0  0.55865  0.24542  0.16813  1.0000
  F   F138      1.0  0.57148  0.26321  0.62384  1.0000
  F   F139      1.0  0.56750  0.75674  0.13489  1.0000
  F   F140      1.0  0.56456  0.74844  0.65400  1.0000
  F   F141      1.0  0.82011  0.25020  0.12215  1.0000
  F   F142      1.0  0.80070  0.25301  0.65885  1.0000
  F   F143      1.0  0.81514  0.75321  0.15442  1.0000
  F   F144      1.0  0.80748  0.74335  0.65444  1.0000
  F   F145      1.0  0.12240  0.36649  0.10317  1.0000
  F   F146      1.0  0.12528  0.37248  0.60489  1.0000
  F   F147      1.0  0.12165  0.86176  0.11800  1.0000
  F   F148      1.0  0.12975  0.88650  0.58839  1.0000
  F   F149      1.0  0.37423  0.34714  0.12260  1.0000
  F   F150      1.0  0.37368  0.37221  0.61611  1.0000
  F   F151      1.0  0.37220  0.84631  0.11652  1.0000
  F   F152      1.0  0.37493  0.87294  0.62127  1.0000
  F   F153      1.0  0.62197  0.38342  0.10000  1.0000
  F   F154      1.0  0.62611  0.37548  0.61222  1.0000
  F   F155      1.0  0.62373  0.86071  0.11897  1.0000
  F   F156      1.0  0.62314  0.85844  0.63267  1.0000
  F   F157      1.0  0.87530  0.36164  0.12248  1.0000
  F   F158      1.0  0.87168  0.37772  0.60588  1.0000
  F   F159      1.0  0.87755  0.88066  0.09463  1.0000
  F   F160      1.0  0.87178  0.84079  0.62319  1.0000
  F   F161      1.0  0.17989  0.24471  0.36858  1.0000
  F   F162      1.0  0.18406  0.25199  0.84971  1.0000
  F   F163      1.0  0.18570  0.75399  0.35441  1.0000
  F   F164      1.0  0.18755  0.75625  0.85717  1.0000
  F   F165      1.0  0.42354  0.24135  0.37887  1.0000
  F   F166      1.0  0.43658  0.24859  0.85220  1.0000
  F   F167      1.0  0.44131  0.74795  0.35352  1.0000
  F   F168      1.0  0.42613  0.74942  0.87259  1.0000
  F   F169      1.0  0.68675  0.24310  0.35633  1.0000
  F   F170      1.0  0.67882  0.25270  0.86188  1.0000
  F   F171      1.0  0.67874  0.73760  0.38287  1.0000
  F   F172      1.0  0.68240  0.74761  0.87811  1.0000
  F   F173      1.0  0.92538  0.24640  0.37458  1.0000
  F   F174      1.0  0.94214  0.25054  0.82133  1.0000
  F   F175      1.0  0.93794  0.75511  0.35245  1.0000
  F   F176      1.0  0.94425  0.74842  0.84145  1.0000
  F   F177      1.0  0.12231  0.12582  0.39575  1.0000
  F   F178      1.0  0.12632  0.12493  0.89248  1.0000
  F   F179      1.0  0.12786  0.62333  0.39514  1.0000
  F   F180      1.0  0.12683  0.64643  0.87397  1.0000
  F   F181      1.0  0.37164  0.12925  0.39021  1.0000
  F   F182      1.0  0.37642  0.13993  0.88894  1.0000
  F   F183      1.0  0.37861  0.63109  0.41005  1.0000
  F   F184      1.0  0.37294  0.61956  0.88619  1.0000
  F   F185      1.0  0.62707  0.12201  0.39539  1.0000
  F   F186      1.0  0.62691  0.12829  0.90015  1.0000
  F   F187      1.0  0.62047  0.62745  0.39649  1.0000
  F   F188      1.0  0.62842  0.62170  0.89916  1.0000
  F   F189      1.0  0.87543  0.12776  0.39255  1.0000
  F   F190      1.0  0.87503  0.14618  0.87706  1.0000
  F   F191      1.0  0.87348  0.64742  0.38827  1.0000
  F   F192      1.0  0.87580  0.60531  0.91366  1.0000
  F   F193      1.0  0.01035  0.36194  0.07684  1.0000
  F   F194      1.0  0.00307  0.35235  0.59377  1.0000
  F   F195      1.0  0.00248  0.85273  0.08125  1.0000
  F   F196      1.0  0.00779  0.85122  0.58579  1.0000
  F   F197      1.0  0.25865  0.36301  0.07874  1.0000
  F   F198      1.0  0.25825  0.35841  0.56783  1.0000
  F   F199      1.0  0.26138  0.86938  0.05721  1.0000
  F   F200      1.0  0.25711  0.85703  0.58076  1.0000
  F   F201      1.0  0.50945  0.35093  0.07629  1.0000
  F   F202      1.0  0.50889  0.37270  0.55956  1.0000
  F   F203      1.0  0.50738  0.86363  0.08267  1.0000
  F   F204      1.0  0.51067  0.86853  0.57889  1.0000
  F   F205      1.0  0.76236  0.36455  0.06252  1.0000
  F   F206      1.0  0.75846  0.35226  0.57631  1.0000
  F   F207      1.0  0.76296  0.83952  0.06133  1.0000
  F   F208      1.0  0.76120  0.87534  0.56062  1.0000
  F   F209      1.0  0.07220  0.49018  0.17049  1.0000
  F   F210      1.0  0.07339  0.48597  0.66855  1.0000
  F   F211      1.0  0.05874  0.98166  0.18353  1.0000
  F   F212      1.0  0.06836  0.98040  0.68232  1.0000
  F   F213      1.0  0.32046  0.47257  0.17583  1.0000
  F   F214      1.0  0.31157  0.48011  0.68192  1.0000
  F   F215      1.0  0.32248  0.98838  0.15308  1.0000
  F   F216      1.0  0.32122  0.97449  0.69011  1.0000
  F   F217      1.0  0.56535  0.48768  0.16903  1.0000
  F   F218      1.0  0.57096  0.48410  0.68195  1.0000
  F   F219      1.0  0.57219  0.98795  0.17074  1.0000
  F   F220      1.0  0.56643  0.99223  0.67596  1.0000
  F   F221      1.0  0.81432  0.47778  0.18206  1.0000
  F   F222      1.0  0.81793  0.48613  0.68228  1.0000
  F   F223      1.0  0.81918  0.98080  0.17012  1.0000
  F   F224      1.0  0.81579  0.97991  0.67577  1.0000
  F   F225      1.0  0.23769  0.10829  0.43857  1.0000
  F   F226      1.0  0.24158  0.14711  0.91476  1.0000
  F   F227      1.0  0.23734  0.63296  0.43395  1.0000
  F   F228      1.0  0.24269  0.62855  0.93031  1.0000
  F   F229      1.0  0.48939  0.13609  0.42209  1.0000
  F   F230      1.0  0.49640  0.14927  0.91479  1.0000
  F   F231      1.0  0.49815  0.64063  0.41632  1.0000
  F   F232      1.0  0.48608  0.64636  0.92728  1.0000
  F   F233      1.0  0.74222  0.13735  0.41665  1.0000
  F   F234      1.0  0.74095  0.15298  0.91661  1.0000
  F   F235      1.0  0.74000  0.63540  0.42811  1.0000
  F   F236      1.0  0.74847  0.63376  0.90500  1.0000
  F   F237      1.0  0.99105  0.13301  0.43233  1.0000
  F   F238      1.0  0.99487  0.16132  0.91412  1.0000
  F   F239      1.0  0.99426  0.64030  0.42865  1.0000
  F   F240      1.0  0.99518  0.63180  0.92653  1.0000
  F   F241      1.0  0.18274  0.02456  0.31381  1.0000
  F   F242      1.0  0.18246  0.01587  0.81510  1.0000
  F   F243      1.0  0.18902  0.51336  0.32782  1.0000
  F   F244      1.0  0.18466  0.51485  0.81542  1.0000
  F   F245      1.0  0.43098  0.01766  0.32137  1.0000
  F   F246      1.0  0.43183  0.02060  0.82449  1.0000
  F   F247      1.0  0.43779  0.51115  0.31387  1.0000
  F   F248      1.0  0.42955  0.51180  0.82716  1.0000
  F   F249      1.0  0.68196  0.02213  0.31604  1.0000
  F   F250      1.0  0.67974  0.00922  0.81916  1.0000
  F   F251      1.0  0.68532  0.51916  0.31565  1.0000
  F   F252      1.0  0.67906  0.51863  0.82220  1.0000
  F   F253      1.0  0.93094  0.02095  0.31577  1.0000
  F   F254      1.0  0.93224  0.01943  0.81882  1.0000
  F   F255      1.0  0.93284  0.50408  0.35369  1.0000
  F   F256      1.0  0.93298  0.52729  0.81004  1.0000
  F   F257      1.0  0.99770  0.26359  0.99577  1.0000
  F   F258      1.0  0.00052  0.24557  0.50381  1.0000
  F   F259      1.0  0.00146  0.74563  0.99552  1.0000
  F   F260      1.0  0.99803  0.77549  0.48549  1.0000
  F   F261      1.0  0.24497  0.24888  0.00852  1.0000
  F   F262      1.0  0.24678  0.23791  0.51079  1.0000
  F   F263      1.0  0.25468  0.74402  0.99975  1.0000
  F   F264      1.0  0.24587  0.75168  0.49438  1.0000
  F   F265      1.0  0.50142  0.23569  0.01084  1.0000
  F   F266      1.0  0.50040  0.24722  0.50255  1.0000
  F   F267      1.0  0.50010  0.75308  0.00477  1.0000
  F   F268      1.0  0.49810  0.75866  0.49867  1.0000
  F   F269      1.0  0.75447  0.26631  0.98062  1.0000
  F   F270      1.0  0.75115  0.24370  0.49887  1.0000
  F   F271      1.0  0.74768  0.73239  0.00972  1.0000
  F   F272      1.0  0.75032  0.73240  0.52620  1.0000
  F   F273      1.0  0.12359  0.99600  0.25331  1.0000
  F   F274      1.0  0.12766  0.99723  0.74792  1.0000
  F   F275      1.0  0.12699  0.50638  0.24376  1.0000
  F   F276      1.0  0.12468  0.50686  0.74414  1.0000
  F   F277      1.0  0.37244  0.98545  0.25851  1.0000
  F   F278      1.0  0.37525  0.99561  0.76674  1.0000
  F   F279      1.0  0.37127  0.49479  0.25670  1.0000
  F   F280      1.0  0.37844  0.49102  0.74332  1.0000
  F   F281      1.0  0.62054  0.99300  0.26736  1.0000
  F   F282      1.0  0.61314  0.99612  0.76874  1.0000
  F   F283      1.0  0.61944  0.50000  0.25763  1.0000
  F   F284      1.0  0.62367  0.50831  0.74587  1.0000
  F   F285      1.0  0.87848  0.00616  0.23424  1.0000
  F   F286      1.0  0.86930  0.00012  0.75394  1.0000
  F   F287      1.0  0.87890  0.50024  0.24360  1.0000
  F   F288      1.0  0.87337  0.50106  0.75107  1.0000
  F   F289      1.0  0.04924  0.03152  0.01467  1.0000
  F   F290      1.0  0.03843  0.02816  0.52741  1.0000
  F   F291      1.0  0.05177  0.53898  0.01388  1.0000
  F   F292      1.0  0.04741  0.52793  0.52344  1.0000
  F   F293      1.0  0.29564  0.03349  0.01244  1.0000
  F   F294      1.0  0.29444  0.02478  0.53623  1.0000
  F   F295      1.0  0.28387  0.52899  0.04701  1.0000
  F   F296      1.0  0.28973  0.52908  0.52110  1.0000
  F   F297      1.0  0.54312  0.03110  0.03310  1.0000
  F   F298      1.0  0.54228  0.03082  0.53595  1.0000
  F   F299      1.0  0.53592  0.54104  0.02831  1.0000
  F   F300      1.0  0.54193  0.53101  0.51270  1.0000
  F   F301      1.0  0.78679  0.02678  0.01483  1.0000
  F   F302      1.0  0.78602  0.04320  0.52458  1.0000
  F   F303      1.0  0.78718  0.53531  0.03678  1.0000
  F   F304      1.0  0.78362  0.51591  0.53770  1.0000
  F   F305      1.0  0.23369  0.39952  0.23469  1.0000
  F   F306      1.0  0.23899  0.40201  0.72205  1.0000
  F   F307      1.0  0.23711  0.92111  0.21377  1.0000
  F   F308      1.0  0.23292  0.92986  0.71545  1.0000
  F   F309      1.0  0.48564  0.39281  0.22849  1.0000
  F   F310      1.0  0.48202  0.42481  0.71970  1.0000
  F   F311      1.0  0.48322  0.92975  0.21801  1.0000
  F   F312      1.0  0.48113  0.91903  0.73040  1.0000
  F   F313      1.0  0.72915  0.41803  0.22299  1.0000
  F   F314      1.0  0.73672  0.40423  0.73879  1.0000
  F   F315      1.0  0.73763  0.88917  0.23331  1.0000
  F   F316      1.0  0.73667  0.90228  0.74003  1.0000
  F   F317      1.0  0.98645  0.43718  0.21690  1.0000
  F   F318      1.0  0.98056  0.40825  0.74908  1.0000
  F   F319      1.0  0.97903  0.92779  0.21516  1.0000
  F   F320      1.0  0.98283  0.92150  0.71917  1.0000
  F   F321      1.0  0.20344  0.47240  0.49088  1.0000
  F   F322      1.0  0.20145  0.46607  0.98231  1.0000
  F   F323      1.0  0.21006  0.95681  0.46817  1.0000
  F   F324      1.0  0.20771  0.97439  0.96700  1.0000
  F   F325      1.0  0.45138  0.48092  0.48264  1.0000
  F   F326      1.0  0.45614  0.45943  0.98934  1.0000
  F   F327      1.0  0.45668  0.96671  0.47526  1.0000
  F   F328      1.0  0.46198  0.96280  0.98093  1.0000
  F   F329      1.0  0.71173  0.45417  0.47009  1.0000
  F   F330      1.0  0.70714  0.46251  0.98123  1.0000
  F   F331      1.0  0.70128  0.97116  0.48070  1.0000
  F   F332      1.0  0.70861  0.97421  0.97824  1.0000
  F   F333      1.0  0.95789  0.48123  0.49394  1.0000
  F   F334      1.0  0.95607  0.47380  0.98339  1.0000
  F   F335      1.0  0.94725  0.96593  0.47900  1.0000
  F   F336      1.0  0.95348  0.98282  0.97922  1.0000
  F   F337      1.0  0.00785  0.09954  0.27055  1.0000
  F   F338      1.0  0.01675  0.09634  0.75930  1.0000
  F   F339      1.0  0.01520  0.59259  0.27379  1.0000
  F   F340      1.0  0.01287  0.58437  0.76780  1.0000
  F   F341      1.0  0.26230  0.08937  0.26846  1.0000
  F   F342      1.0  0.26999  0.09362  0.76802  1.0000
  F   F343      1.0  0.27089  0.57552  0.27451  1.0000
  F   F344      1.0  0.26605  0.56168  0.79455  1.0000
  F   F345      1.0  0.51461  0.07668  0.27239  1.0000
  F   F346      1.0  0.51523  0.09228  0.77112  1.0000
  F   F347      1.0  0.51467  0.60888  0.25536  1.0000
  F   F348      1.0  0.51931  0.58131  0.77668  1.0000
  F   F349      1.0  0.76727  0.08332  0.26501  1.0000
  F   F350      1.0  0.76221  0.07843  0.77976  1.0000
  F   F351      1.0  0.76740  0.59670  0.26350  1.0000
  F   F352      1.0  0.76479  0.57444  0.77567  1.0000
  F   F353      1.0  0.10513  0.40007  0.45211  1.0000
  F   F354      1.0  0.10273  0.41715  0.94754  1.0000
  F   F355      1.0  0.10012  0.92360  0.44592  1.0000
  F   F356      1.0  0.09917  0.91214  0.96252  1.0000
  F   F357      1.0  0.35019  0.39734  0.46146  1.0000
  F   F358      1.0  0.35302  0.41368  0.96178  1.0000
  F   F359      1.0  0.35370  0.90681  0.46246  1.0000
  F   F360      1.0  0.35399  0.89047  0.97244  1.0000
  F   F361      1.0  0.59931  0.41739  0.45576  1.0000
  F   F362      1.0  0.59637  0.41285  0.95884  1.0000
  F   F363      1.0  0.60591  0.89423  0.47257  1.0000
  F   F364      1.0  0.60275  0.89279  0.96890  1.0000
  F   F365      1.0  0.84856  0.39587  0.46461  1.0000
  F   F366      1.0  0.85298  0.42224  0.97598  1.0000
  F   F367      1.0  0.85170  0.94619  0.47000  1.0000
  F   F368      1.0  0.84857  0.92940  0.94695  1.0000
  F   F369      1.0  0.03678  0.30595  0.29090  1.0000
  F   F370      1.0  0.05339  0.30038  0.77832  1.0000
  F   F371      1.0  0.04303  0.79591  0.27815  1.0000
  F   F372      1.0  0.04389  0.79552  0.78092  1.0000
  F   F373      1.0  0.28709  0.27902  0.29948  1.0000
  F   F374      1.0  0.29335  0.29216  0.79482  1.0000
  F   F375      1.0  0.30180  0.80390  0.28504  1.0000
  F   F376      1.0  0.28687  0.78117  0.79810  1.0000
  F   F377      1.0  0.54901  0.30023  0.29348  1.0000
  F   F378      1.0  0.54364  0.30732  0.78289  1.0000
  F   F379      1.0  0.54937  0.80105  0.28161  1.0000
  F   F380      1.0  0.54137  0.80655  0.78856  1.0000
  F   F381      1.0  0.78954  0.29089  0.28039  1.0000
  F   F382      1.0  0.80382  0.29905  0.78251  1.0000
  F   F383      1.0  0.80902  0.77446  0.30652  1.0000
  F   F384      1.0  0.80184  0.80210  0.79789  1.0000
