data_image0
_chemical_formula_structural       Hf96F384
_chemical_formula_sum              "Hf96 F384"
_cell_length_a       31.0172
_cell_length_b       15.5066
_cell_length_c       15.4987
_cell_angle_alpha    63.342
_cell_angle_beta     63.342
_cell_angle_gamma    80.1625

_space_group_name_H-M_alt    "P 1"
_space_group_IT_number       1

loop_
  _space_group_symop_operation_xyz
  'x, y, z'

loop_
  _atom_site_type_symbol
  _atom_site_label
  _atom_site_symmetry_multiplicity
  _atom_site_fract_x
  _atom_site_fract_y
  _atom_site_fract_z
  _atom_site_occupancy
  Hf  Hf1       1.0  0.19892  0.09595  0.38029  1.0000
  Hf  Hf2       1.0  0.19494  0.10870  0.87730  1.0000
  Hf  Hf3       1.0  0.19621  0.60321  0.37484  1.0000
  Hf  Hf4       1.0  0.19803  0.60021  0.88077  1.0000
  Hf  Hf5       1.0  0.44579  0.10546  0.38186  1.0000
  Hf  Hf6       1.0  0.44306  0.10288  0.87833  1.0000
  Hf  Hf7       1.0  0.44674  0.60298  0.37559  1.0000
  Hf  Hf8       1.0  0.44649  0.61524  0.86396  1.0000
  Hf  Hf9       1.0  0.69652  0.11449  0.37085  1.0000
  Hf  Hf10      1.0  0.69573  0.10309  0.87372  1.0000
  Hf  Hf11      1.0  0.70258  0.61222  0.36688  1.0000
  Hf  Hf12      1.0  0.69571  0.60593  0.87809  1.0000
  Hf  Hf13      1.0  0.94421  0.11174  0.37490  1.0000
  Hf  Hf14      1.0  0.94844  0.10711  0.87070  1.0000
  Hf  Hf15      1.0  0.94447  0.60832  0.37925  1.0000
  Hf  Hf16      1.0  0.94652  0.60920  0.87821  1.0000
  Hf  Hf17      1.0  0.05777  0.39452  0.11931  1.0000
  Hf  Hf18      1.0  0.05693  0.39029  0.61950  1.0000
  Hf  Hf19      1.0  0.04946  0.88379  0.13133  1.0000
  Hf  Hf20      1.0  0.05499  0.89159  0.62638  1.0000
  Hf  Hf21      1.0  0.30472  0.39452  0.12403  1.0000
  Hf  Hf22      1.0  0.29981  0.38564  0.63140  1.0000
  Hf  Hf23      1.0  0.30394  0.89149  0.12555  1.0000
  Hf  Hf24      1.0  0.30170  0.89179  0.62492  1.0000
  Hf  Hf25      1.0  0.55273  0.39154  0.12566  1.0000
  Hf  Hf26      1.0  0.55528  0.40423  0.61612  1.0000
  Hf  Hf27      1.0  0.55257  0.88912  0.12728  1.0000
  Hf  Hf28      1.0  0.55137  0.89660  0.62619  1.0000
  Hf  Hf29      1.0  0.80664  0.39470  0.11867  1.0000
  Hf  Hf30      1.0  0.80544  0.39457  0.61883  1.0000
  Hf  Hf31      1.0  0.80415  0.90243  0.11737  1.0000
  Hf  Hf32      1.0  0.80148  0.89180  0.62649  1.0000
  Hf  Hf33      1.0  0.05912  0.17792  0.41148  1.0000
  Hf  Hf34      1.0  0.05894  0.18355  0.91061  1.0000
  Hf  Hf35      1.0  0.05329  0.68018  0.42545  1.0000
  Hf  Hf36      1.0  0.05576  0.67723  0.92182  1.0000
  Hf  Hf37      1.0  0.30938  0.18302  0.41422  1.0000
  Hf  Hf38      1.0  0.30436  0.17876  0.92312  1.0000
  Hf  Hf39      1.0  0.30615  0.68032  0.42018  1.0000
  Hf  Hf40      1.0  0.30485  0.68705  0.91774  1.0000
  Hf  Hf41      1.0  0.55460  0.17904  0.42122  1.0000
  Hf  Hf42      1.0  0.55294  0.18062  0.92212  1.0000
  Hf  Hf43      1.0  0.56014  0.69295  0.40614  1.0000
  Hf  Hf44      1.0  0.55576  0.69066  0.90726  1.0000
  Hf  Hf45      1.0  0.80333  0.18408  0.41340  1.0000
  Hf  Hf46      1.0  0.80532  0.18905  0.91135  1.0000
  Hf  Hf47      1.0  0.80593  0.69039  0.41194  1.0000
  Hf  Hf48      1.0  0.80955  0.68745  0.90947  1.0000
  Hf  Hf49      1.0  0.16088  0.37882  0.33643  1.0000
  Hf  Hf50      1.0  0.15905  0.39397  0.83151  1.0000
  Hf  Hf51      1.0  0.15556  0.88245  0.34132  1.0000
  Hf  Hf52      1.0  0.15544  0.87943  0.84285  1.0000
  Hf  Hf53      1.0  0.40962  0.38293  0.33541  1.0000
  Hf  Hf54      1.0  0.40897  0.38742  0.83607  1.0000
  Hf  Hf55      1.0  0.40620  0.89029  0.33869  1.0000
  Hf  Hf56      1.0  0.40589  0.88923  0.84007  1.0000
  Hf  Hf57      1.0  0.65666  0.39465  0.32699  1.0000
  Hf  Hf58      1.0  0.65154  0.38769  0.83710  1.0000
  Hf  Hf59      1.0  0.66078  0.89263  0.33344  1.0000
  Hf  Hf60      1.0  0.65805  0.88901  0.83320  1.0000
  Hf  Hf61      1.0  0.91101  0.39254  0.32775  1.0000
  Hf  Hf62      1.0  0.91451  0.38928  0.82740  1.0000
  Hf  Hf63      1.0  0.90713  0.89070  0.32813  1.0000
  Hf  Hf64      1.0  0.91059  0.89116  0.82899  1.0000
  Hf  Hf65      1.0  0.19223  0.30891  0.09640  1.0000
  Hf  Hf66      1.0  0.19451  0.31431  0.58757  1.0000
  Hf  Hf67      1.0  0.19446  0.82400  0.07907  1.0000
  Hf  Hf68      1.0  0.19312  0.80457  0.59179  1.0000
  Hf  Hf69      1.0  0.44682  0.32583  0.07484  1.0000
  Hf  Hf70      1.0  0.44269  0.31171  0.58998  1.0000
  Hf  Hf71      1.0  0.44336  0.80955  0.09196  1.0000
  Hf  Hf72      1.0  0.44254  0.82107  0.58493  1.0000
  Hf  Hf73      1.0  0.69476  0.32142  0.07393  1.0000
  Hf  Hf74      1.0  0.69285  0.32203  0.58145  1.0000
  Hf  Hf75      1.0  0.69579  0.82010  0.07794  1.0000
  Hf  Hf76      1.0  0.69225  0.81198  0.58600  1.0000
  Hf  Hf77      1.0  0.94617  0.31996  0.08672  1.0000
  Hf  Hf78      1.0  0.94376  0.31575  0.58652  1.0000
  Hf  Hf79      1.0  0.94514  0.82171  0.07502  1.0000
  Hf  Hf80      1.0  0.94184  0.81991  0.58488  1.0000
  Hf  Hf81      1.0  0.09117  0.10856  0.16921  1.0000
  Hf  Hf82      1.0  0.09753  0.10728  0.66519  1.0000
  Hf  Hf83      1.0  0.09225  0.60932  0.17202  1.0000
  Hf  Hf84      1.0  0.08848  0.60632  0.67069  1.0000
  Hf  Hf85      1.0  0.34288  0.11077  0.16960  1.0000
  Hf  Hf86      1.0  0.34004  0.10837  0.66882  1.0000
  Hf  Hf87      1.0  0.34149  0.60734  0.16901  1.0000
  Hf  Hf88      1.0  0.33888  0.60831  0.66996  1.0000
  Hf  Hf89      1.0  0.59420  0.10865  0.16688  1.0000
  Hf  Hf90      1.0  0.58913  0.11579  0.67352  1.0000
  Hf  Hf91      1.0  0.59028  0.61308  0.16714  1.0000
  Hf  Hf92      1.0  0.59093  0.61654  0.66179  1.0000
  Hf  Hf93      1.0  0.84610  0.11473  0.15898  1.0000
  Hf  Hf94      1.0  0.83730  0.11230  0.66622  1.0000
  Hf  Hf95      1.0  0.84218  0.61373  0.16014  1.0000
  Hf  Hf96      1.0  0.84052  0.61242  0.66440  1.0000
  F   F1        1.0  0.07723  0.11275  0.30982  1.0000
  F   F2        1.0  0.08540  0.11415  0.81025  1.0000
  F   F3        1.0  0.07659  0.61744  0.31434  1.0000
  F   F4        1.0  0.08083  0.62534  0.80636  1.0000
  F   F5        1.0  0.33516  0.12581  0.29827  1.0000
  F   F6        1.0  0.32924  0.12438  0.80910  1.0000
  F   F7        1.0  0.32959  0.63079  0.30550  1.0000
  F   F8        1.0  0.32440  0.61982  0.81265  1.0000
  F   F9        1.0  0.59122  0.15256  0.28841  1.0000
  F   F10       1.0  0.58297  0.13840  0.80209  1.0000
  F   F11       1.0  0.58216  0.64087  0.29540  1.0000
  F   F12       1.0  0.57552  0.62420  0.80988  1.0000
  F   F13       1.0  0.83166  0.12968  0.30111  1.0000
  F   F14       1.0  0.82909  0.11740  0.80974  1.0000
  F   F15       1.0  0.83092  0.65427  0.29021  1.0000
  F   F16       1.0  0.83730  0.63273  0.79231  1.0000
  F   F17       1.0  0.18927  0.34565  0.43904  1.0000
  F   F18       1.0  0.18065  0.34125  0.94530  1.0000
  F   F19       1.0  0.18485  0.84410  0.44432  1.0000
  F   F20       1.0  0.18195  0.84750  0.95141  1.0000
  F   F21       1.0  0.43781  0.33808  0.44316  1.0000
  F   F22       1.0  0.44363  0.35358  0.92764  1.0000
  F   F23       1.0  0.43336  0.84128  0.44754  1.0000
  F   F24       1.0  0.44231  0.84317  0.94322  1.0000
  F   F25       1.0  0.67944  0.33514  0.45496  1.0000
  F   F26       1.0  0.67904  0.34989  0.94483  1.0000
  F   F27       1.0  0.68728  0.85027  0.44366  1.0000
  F   F28       1.0  0.68354  0.84631  0.94865  1.0000
  F   F29       1.0  0.93511  0.33373  0.44762  1.0000
  F   F30       1.0  0.94366  0.34878  0.93924  1.0000
  F   F31       1.0  0.93076  0.84058  0.45460  1.0000
  F   F32       1.0  0.92883  0.83255  0.95593  1.0000
  F   F33       1.0  0.17110  0.36568  0.19815  1.0000
  F   F34       1.0  0.17301  0.37776  0.69110  1.0000
  F   F35       1.0  0.16830  0.85907  0.19869  1.0000
  F   F36       1.0  0.17047  0.87494  0.69010  1.0000
  F   F37       1.0  0.42041  0.37362  0.19709  1.0000
  F   F38       1.0  0.42145  0.37824  0.70021  1.0000
  F   F39       1.0  0.41559  0.86262  0.20517  1.0000
  F   F40       1.0  0.41433  0.87188  0.70650  1.0000
  F   F41       1.0  0.67068  0.39143  0.18113  1.0000
  F   F42       1.0  0.66914  0.37912  0.70125  1.0000
  F   F43       1.0  0.67719  0.88761  0.18886  1.0000
  F   F44       1.0  0.66798  0.86127  0.70599  1.0000
  F   F45       1.0  0.92971  0.38791  0.18530  1.0000
  F   F46       1.0  0.92501  0.36829  0.69444  1.0000
  F   F47       1.0  0.91522  0.86365  0.19905  1.0000
  F   F48       1.0  0.92336  0.87578  0.69296  1.0000
  F   F49       1.0  0.06664  0.15740  0.05184  1.0000
  F   F50       1.0  0.07322  0.14760  0.54264  1.0000
  F   F51       1.0  0.06711  0.67259  0.05855  1.0000
  F   F52       1.0  0.05135  0.64214  0.57433  1.0000
  F   F53       1.0  0.31420  0.16812  0.06075  1.0000
  F   F54       1.0  0.31889  0.15837  0.54656  1.0000
  F   F55       1.0  0.30385  0.65457  0.06368  1.0000
  F   F56       1.0  0.31131  0.65718  0.55504  1.0000
  F   F57       1.0  0.57287  0.15907  0.04075  1.0000
  F   F58       1.0  0.55816  0.16692  0.55326  1.0000
  F   F59       1.0  0.56606  0.65448  0.04821  1.0000
  F   F60       1.0  0.56402  0.66940  0.54586  1.0000
  F   F61       1.0  0.81928  0.16292  0.05014  1.0000
  F   F62       1.0  0.80829  0.16505  0.54266  1.0000
  F   F63       1.0  0.81145  0.65383  0.05710  1.0000
  F   F64       1.0  0.81534  0.66576  0.55115  1.0000
  F   F65       1.0  0.21275  0.20182  0.21512  1.0000
  F   F66       1.0  0.20820  0.20052  0.70859  1.0000
  F   F67       1.0  0.20578  0.70060  0.21449  1.0000
  F   F68       1.0  0.20769  0.69494  0.71600  1.0000
  F   F69       1.0  0.45343  0.20748  0.21065  1.0000
  F   F70       1.0  0.45038  0.20809  0.71641  1.0000
  F   F71       1.0  0.45057  0.69347  0.21435  1.0000
  F   F72       1.0  0.46356  0.70576  0.69900  1.0000
  F   F73       1.0  0.70546  0.21344  0.20416  1.0000
  F   F74       1.0  0.70138  0.20495  0.71775  1.0000
  F   F75       1.0  0.70682  0.71209  0.20477  1.0000
  F   F76       1.0  0.70721  0.69718  0.71037  1.0000
  F   F77       1.0  0.94800  0.19414  0.20492  1.0000
  F   F78       1.0  0.96137  0.20238  0.70721  1.0000
  F   F79       1.0  0.95583  0.70369  0.21786  1.0000
  F   F80       1.0  0.94544  0.69981  0.71366  1.0000
  F   F81       1.0  0.14975  0.10429  0.03606  1.0000
  F   F82       1.0  0.15611  0.08806  0.54610  1.0000
  F   F83       1.0  0.15219  0.59959  0.03624  1.0000
  F   F84       1.0  0.14352  0.58846  0.54613  1.0000
  F   F85       1.0  0.39695  0.08159  0.04216  1.0000
  F   F86       1.0  0.39891  0.08520  0.54623  1.0000
  F   F87       1.0  0.39338  0.59234  0.03647  1.0000
  F   F88       1.0  0.40162  0.59961  0.54139  1.0000
  F   F89       1.0  0.64881  0.07774  0.05033  1.0000
  F   F90       1.0  0.64691  0.11146  0.54059  1.0000
  F   F91       1.0  0.65316  0.58141  0.04056  1.0000
  F   F92       1.0  0.64776  0.58800  0.54521  1.0000
  F   F93       1.0  0.89741  0.08509  0.03922  1.0000
  F   F94       1.0  0.89537  0.10854  0.53320  1.0000
  F   F95       1.0  0.90142  0.59932  0.04210  1.0000
  F   F96       1.0  0.89676  0.58249  0.54151  1.0000
  F   F97       1.0  0.15486  0.18730  0.14443  1.0000
  F   F98       1.0  0.15575  0.19615  0.62505  1.0000
  F   F99       1.0  0.14925  0.69672  0.13393  1.0000
  F   F100      1.0  0.15217  0.68884  0.62685  1.0000
  F   F101      1.0  0.40318  0.19467  0.11915  1.0000
  F   F102      1.0  0.40241  0.18304  0.63287  1.0000
  F   F103      1.0  0.39695  0.69233  0.13031  1.0000
  F   F104      1.0  0.39985  0.69201  0.64208  1.0000
  F   F105      1.0  0.65545  0.19967  0.12589  1.0000
  F   F106      1.0  0.65334  0.21030  0.62496  1.0000
  F   F107      1.0  0.65116  0.69564  0.13104  1.0000
  F   F108      1.0  0.65027  0.70098  0.63022  1.0000
  F   F109      1.0  0.90226  0.20389  0.10407  1.0000
  F   F110      1.0  0.89743  0.20294  0.62266  1.0000
  F   F111      1.0  0.90680  0.69638  0.12349  1.0000
  F   F112      1.0  0.89986  0.68522  0.61615  1.0000
  F   F113      1.0  0.10110  0.29689  0.39250  1.0000
  F   F114      1.0  0.10208  0.29638  0.87976  1.0000
  F   F115      1.0  0.09529  0.80009  0.37896  1.0000
  F   F116      1.0  0.10186  0.79296  0.87260  1.0000
  F   F117      1.0  0.35063  0.30446  0.36900  1.0000
  F   F118      1.0  0.34705  0.29343  0.86685  1.0000
  F   F119      1.0  0.34605  0.79749  0.38550  1.0000
  F   F120      1.0  0.34632  0.79856  0.88820  1.0000
  F   F121      1.0  0.59585  0.30469  0.38020  1.0000
  F   F122      1.0  0.58967  0.31014  0.88653  1.0000
  F   F123      1.0  0.60246  0.80606  0.35156  1.0000
  F   F124      1.0  0.59687  0.80719  0.87777  1.0000
  F   F125      1.0  0.85579  0.31274  0.36146  1.0000
  F   F126      1.0  0.85193  0.30461  0.86567  1.0000
  F   F127      1.0  0.84240  0.81001  0.37056  1.0000
  F   F128      1.0  0.85483  0.79989  0.86635  1.0000
  F   F129      1.0  0.07561  0.24809  0.12816  1.0000
  F   F130      1.0  0.07291  0.25275  0.62694  1.0000
  F   F131      1.0  0.05579  0.73545  0.17119  1.0000
  F   F132      1.0  0.06706  0.74240  0.64801  1.0000
  F   F133      1.0  0.31526  0.25302  0.15147  1.0000
  F   F134      1.0  0.30783  0.25219  0.64226  1.0000
  F   F135      1.0  0.31140  0.74985  0.14459  1.0000
  F   F136      1.0  0.31745  0.75096  0.63957  1.0000
  F   F137      1.0  0.57070  0.24502  0.14010  1.0000
  F   F138      1.0  0.56403  0.26046  0.63967  1.0000
  F   F139      1.0  0.56378  0.74473  0.14082  1.0000
  F   F140      1.0  0.56123  0.74865  0.65282  1.0000
  F   F141      1.0  0.81264  0.24856  0.14583  1.0000
  F   F142      1.0  0.81122  0.24716  0.64026  1.0000
  F   F143      1.0  0.82499  0.76453  0.11719  1.0000
  F   F144      1.0  0.81116  0.75243  0.65025  1.0000
  F   F145      1.0  0.13040  0.38940  0.08993  1.0000
  F   F146      1.0  0.12546  0.36333  0.61752  1.0000
  F   F147      1.0  0.11706  0.87114  0.11302  1.0000
  F   F148      1.0  0.12932  0.86656  0.59910  1.0000
  F   F149      1.0  0.38288  0.38065  0.08541  1.0000
  F   F150      1.0  0.37450  0.34773  0.61554  1.0000
  F   F151      1.0  0.37596  0.87436  0.10258  1.0000
  F   F152      1.0  0.37086  0.88712  0.59950  1.0000
  F   F153      1.0  0.62511  0.35244  0.11574  1.0000
  F   F154      1.0  0.62163  0.37668  0.61566  1.0000
  F   F155      1.0  0.62414  0.87167  0.11951  1.0000
  F   F156      1.0  0.62248  0.86117  0.61726  1.0000
  F   F157      1.0  0.87526  0.36467  0.13191  1.0000
  F   F158      1.0  0.87644  0.38379  0.60342  1.0000
  F   F159      1.0  0.87800  0.88155  0.09458  1.0000
  F   F160      1.0  0.87294  0.87242  0.61522  1.0000
  F   F161      1.0  0.18378  0.23445  0.37500  1.0000
  F   F162      1.0  0.18739  0.24732  0.84670  1.0000
  F   F163      1.0  0.17893  0.75138  0.36307  1.0000
  F   F164      1.0  0.18549  0.75112  0.86019  1.0000
  F   F165      1.0  0.43516  0.25579  0.35748  1.0000
  F   F166      1.0  0.43120  0.24883  0.86839  1.0000
  F   F167      1.0  0.42877  0.74281  0.36037  1.0000
  F   F168      1.0  0.42674  0.74801  0.87684  1.0000
  F   F169      1.0  0.67985  0.26169  0.34532  1.0000
  F   F170      1.0  0.67190  0.23724  0.87928  1.0000
  F   F171      1.0  0.68134  0.75049  0.36290  1.0000
  F   F172      1.0  0.68309  0.75312  0.86419  1.0000
  F   F173      1.0  0.94358  0.25065  0.34757  1.0000
  F   F174      1.0  0.93972  0.24551  0.86806  1.0000
  F   F175      1.0  0.93341  0.74803  0.36516  1.0000
  F   F176      1.0  0.94035  0.74548  0.85094  1.0000
  F   F177      1.0  0.13314  0.12991  0.36634  1.0000
  F   F178      1.0  0.12720  0.13838  0.88792  1.0000
  F   F179      1.0  0.12653  0.62532  0.38343  1.0000
  F   F180      1.0  0.12468  0.63024  0.89817  1.0000
  F   F181      1.0  0.37488  0.12139  0.40078  1.0000
  F   F182      1.0  0.37188  0.12249  0.90153  1.0000
  F   F183      1.0  0.37516  0.62437  0.39702  1.0000
  F   F184      1.0  0.37838  0.64541  0.87157  1.0000
  F   F185      1.0  0.62206  0.11991  0.41290  1.0000
  F   F186      1.0  0.62347  0.10865  0.90253  1.0000
  F   F187      1.0  0.63021  0.62753  0.38800  1.0000
  F   F188      1.0  0.62380  0.63882  0.88262  1.0000
  F   F189      1.0  0.87373  0.14863  0.38874  1.0000
  F   F190      1.0  0.88008  0.14160  0.88363  1.0000
  F   F191      1.0  0.87306  0.63385  0.39655  1.0000
  F   F192      1.0  0.87256  0.62634  0.90792  1.0000
  F   F193      1.0  0.01107  0.35238  0.07498  1.0000
  F   F194      1.0  0.00929  0.35284  0.58053  1.0000
  F   F195      1.0  0.00303  0.86799  0.07093  1.0000
  F   F196      1.0  0.00906  0.86154  0.57554  1.0000
  F   F197      1.0  0.25735  0.35580  0.07659  1.0000
  F   F198      1.0  0.25750  0.36564  0.57576  1.0000
  F   F199      1.0  0.25913  0.86360  0.07552  1.0000
  F   F200      1.0  0.26171  0.85245  0.57265  1.0000
  F   F201      1.0  0.51141  0.36861  0.05956  1.0000
  F   F202      1.0  0.50996  0.36708  0.56875  1.0000
  F   F203      1.0  0.50974  0.85128  0.07967  1.0000
  F   F204      1.0  0.50613  0.86916  0.57771  1.0000
  F   F205      1.0  0.76306  0.36368  0.05493  1.0000
  F   F206      1.0  0.75369  0.36330  0.57275  1.0000
  F   F207      1.0  0.75919  0.86650  0.07041  1.0000
  F   F208      1.0  0.75688  0.85738  0.56586  1.0000
  F   F209      1.0  0.07360  0.48216  0.17125  1.0000
  F   F210      1.0  0.06724  0.47588  0.67909  1.0000
  F   F211      1.0  0.06254  0.97860  0.19682  1.0000
  F   F212      1.0  0.07344  0.98427  0.67561  1.0000
  F   F213      1.0  0.32087  0.48324  0.16744  1.0000
  F   F214      1.0  0.32382  0.47904  0.66595  1.0000
  F   F215      1.0  0.32100  0.98361  0.17352  1.0000
  F   F216      1.0  0.31404  0.98679  0.67691  1.0000
  F   F217      1.0  0.56945  0.47907  0.17364  1.0000
  F   F218      1.0  0.56959  0.48497  0.67474  1.0000
  F   F219      1.0  0.56110  0.98585  0.18071  1.0000
  F   F220      1.0  0.57096  0.99407  0.65281  1.0000
  F   F221      1.0  0.82142  0.48593  0.16521  1.0000
  F   F222      1.0  0.81404  0.48133  0.67515  1.0000
  F   F223      1.0  0.82101  0.98590  0.16886  1.0000
  F   F224      1.0  0.81693  0.98184  0.67720  1.0000
  F   F225      1.0  0.24525  0.13741  0.41837  1.0000
  F   F226      1.0  0.24231  0.12874  0.93620  1.0000
  F   F227      1.0  0.24038  0.63119  0.42714  1.0000
  F   F228      1.0  0.23914  0.64189  0.92659  1.0000
  F   F229      1.0  0.49006  0.13895  0.42592  1.0000
  F   F230      1.0  0.48596  0.13013  0.93301  1.0000
  F   F231      1.0  0.49419  0.64206  0.41221  1.0000
  F   F232      1.0  0.48935  0.64542  0.92218  1.0000
  F   F233      1.0  0.73658  0.14458  0.42475  1.0000
  F   F234      1.0  0.74262  0.14315  0.90801  1.0000
  F   F235      1.0  0.74534  0.62712  0.42728  1.0000
  F   F236      1.0  0.74464  0.64813  0.91454  1.0000
  F   F237      1.0  0.99657  0.14079  0.42687  1.0000
  F   F238      1.0  0.99873  0.12288  0.91804  1.0000
  F   F239      1.0  0.99005  0.63637  0.43797  1.0000
  F   F240      1.0  0.99025  0.62915  0.94183  1.0000
  F   F241      1.0  0.18687  0.01113  0.32552  1.0000
  F   F242      1.0  0.18192  0.01387  0.83116  1.0000
  F   F243      1.0  0.18622  0.51723  0.31835  1.0000
  F   F244      1.0  0.17582  0.51860  0.82834  1.0000
  F   F245      1.0  0.43241  0.02363  0.32217  1.0000
  F   F246      1.0  0.43178  0.01713  0.81922  1.0000
  F   F247      1.0  0.44148  0.51765  0.31750  1.0000
  F   F248      1.0  0.42502  0.52207  0.82387  1.0000
  F   F249      1.0  0.67742  0.02071  0.32694  1.0000
  F   F250      1.0  0.68602  0.01001  0.80770  1.0000
  F   F251      1.0  0.68837  0.52014  0.31084  1.0000
  F   F252      1.0  0.67629  0.51729  0.83360  1.0000
  F   F253      1.0  0.92647  0.01071  0.32954  1.0000
  F   F254      1.0  0.93192  0.01884  0.82264  1.0000
  F   F255      1.0  0.92596  0.51637  0.32834  1.0000
  F   F256      1.0  0.93471  0.51832  0.81315  1.0000
  F   F257      1.0  0.00174  0.24032  0.99721  1.0000
  F   F258      1.0  0.00453  0.23852  0.50896  1.0000
  F   F259      1.0  0.00277  0.76176  0.98645  1.0000
  F   F260      1.0  0.99891  0.75394  0.50462  1.0000
  F   F261      1.0  0.24872  0.25890  0.99870  1.0000
  F   F262      1.0  0.25335  0.24946  0.49941  1.0000
  F   F263      1.0  0.25039  0.76944  0.98822  1.0000
  F   F264      1.0  0.24355  0.73205  0.51315  1.0000
  F   F265      1.0  0.49625  0.24503  0.00735  1.0000
  F   F266      1.0  0.49578  0.24563  0.50665  1.0000
  F   F267      1.0  0.49986  0.75297  0.00707  1.0000
  F   F268      1.0  0.49732  0.75493  0.49685  1.0000
  F   F269      1.0  0.74220  0.24430  0.99623  1.0000
  F   F270      1.0  0.74860  0.27327  0.48312  1.0000
  F   F271      1.0  0.75162  0.76566  0.99455  1.0000
  F   F272      1.0  0.74635  0.72798  0.51321  1.0000
  F   F273      1.0  0.13061  0.99570  0.24246  1.0000
  F   F274      1.0  0.12376  0.99111  0.75622  1.0000
  F   F275      1.0  0.13148  0.49524  0.24935  1.0000
  F   F276      1.0  0.11423  0.49035  0.76380  1.0000
  F   F277      1.0  0.37123  0.99229  0.26169  1.0000
  F   F278      1.0  0.36632  0.99248  0.76314  1.0000
  F   F279      1.0  0.37907  0.50553  0.24535  1.0000
  F   F280      1.0  0.37090  0.49500  0.75132  1.0000
  F   F281      1.0  0.61871  0.99981  0.26123  1.0000
  F   F282      1.0  0.62479  0.99716  0.74747  1.0000
  F   F283      1.0  0.62099  0.50340  0.24937  1.0000
  F   F284      1.0  0.62195  0.50058  0.75746  1.0000
  F   F285      1.0  0.87581  0.00035  0.24832  1.0000
  F   F286      1.0  0.87803  0.00489  0.74360  1.0000
  F   F287      1.0  0.86347  0.50445  0.26598  1.0000
  F   F288      1.0  0.87666  0.49895  0.75011  1.0000
  F   F289      1.0  0.04650  0.02481  0.03798  1.0000
  F   F290      1.0  0.05123  0.02614  0.52101  1.0000
  F   F291      1.0  0.03541  0.53377  0.04421  1.0000
  F   F292      1.0  0.04771  0.52344  0.51299  1.0000
  F   F293      1.0  0.29247  0.02584  0.03404  1.0000
  F   F294      1.0  0.29068  0.03062  0.52366  1.0000
  F   F295      1.0  0.29996  0.52472  0.00870  1.0000
  F   F296      1.0  0.28639  0.53153  0.52916  1.0000
  F   F297      1.0  0.53617  0.03518  0.03383  1.0000
  F   F298      1.0  0.53672  0.03407  0.52069  1.0000
  F   F299      1.0  0.54082  0.54132  0.00855  1.0000
  F   F300      1.0  0.54388  0.55244  0.50713  1.0000
  F   F301      1.0  0.79120  0.04958  0.01683  1.0000
  F   F302      1.0  0.79422  0.03197  0.51693  1.0000
  F   F303      1.0  0.79748  0.52955  0.01155  1.0000
  F   F304      1.0  0.79780  0.53366  0.51188  1.0000
  F   F305      1.0  0.23833  0.40573  0.22292  1.0000
  F   F306      1.0  0.23014  0.42058  0.72878  1.0000
  F   F307      1.0  0.23053  0.90498  0.23148  1.0000
  F   F308      1.0  0.23317  0.90941  0.73050  1.0000
  F   F309      1.0  0.48195  0.41714  0.21674  1.0000
  F   F310      1.0  0.48905  0.43140  0.70608  1.0000
  F   F311      1.0  0.47822  0.92421  0.22005  1.0000
  F   F312      1.0  0.48340  0.91673  0.73043  1.0000
  F   F313      1.0  0.73781  0.41191  0.21572  1.0000
  F   F314      1.0  0.73123  0.40210  0.72276  1.0000
  F   F315      1.0  0.73492  0.92314  0.21989  1.0000
  F   F316      1.0  0.73633  0.91043  0.71692  1.0000
  F   F317      1.0  0.99027  0.41063  0.22860  1.0000
  F   F318      1.0  0.98672  0.40131  0.73178  1.0000
  F   F319      1.0  0.97935  0.90494  0.22784  1.0000
  F   F320      1.0  0.98402  0.92696  0.72285  1.0000
  F   F321      1.0  0.20606  0.46297  0.48032  1.0000
  F   F322      1.0  0.21483  0.46543  0.97596  1.0000
  F   F323      1.0  0.21019  0.95594  0.48649  1.0000
  F   F324      1.0  0.20458  0.96980  0.98778  1.0000
  F   F325      1.0  0.44895  0.46101  0.48606  1.0000
  F   F326      1.0  0.45641  0.48319  0.97215  1.0000
  F   F327      1.0  0.45583  0.96359  0.48252  1.0000
  F   F328      1.0  0.46001  0.96551  0.97455  1.0000
  F   F329      1.0  0.71149  0.47060  0.46358  1.0000
  F   F330      1.0  0.71672  0.46770  0.96657  1.0000
  F   F331      1.0  0.69719  0.97321  0.48223  1.0000
  F   F332      1.0  0.70542  0.97234  0.96756  1.0000
  F   F333      1.0  0.96126  0.46083  0.47424  1.0000
  F   F334      1.0  0.95289  0.47934  0.98079  1.0000
  F   F335      1.0  0.95797  0.98364  0.47359  1.0000
  F   F336      1.0  0.95598  0.96552  0.97026  1.0000
  F   F337      1.0  0.01131  0.11185  0.26696  1.0000
  F   F338      1.0  0.01694  0.08916  0.76143  1.0000
  F   F339      1.0  0.00871  0.57986  0.28747  1.0000
  F   F340      1.0  0.01384  0.58301  0.77931  1.0000
  F   F341      1.0  0.26632  0.08157  0.27742  1.0000
  F   F342      1.0  0.26689  0.08275  0.77899  1.0000
  F   F343      1.0  0.26858  0.57916  0.26138  1.0000
  F   F344      1.0  0.26563  0.58423  0.77070  1.0000
  F   F345      1.0  0.52007  0.08602  0.28156  1.0000
  F   F346      1.0  0.51613  0.08915  0.77022  1.0000
  F   F347      1.0  0.52123  0.56444  0.28730  1.0000
  F   F348      1.0  0.51500  0.58680  0.77031  1.0000
  F   F349      1.0  0.76352  0.09831  0.27445  1.0000
  F   F350      1.0  0.76550  0.09582  0.75703  1.0000
  F   F351      1.0  0.77093  0.59307  0.26986  1.0000
  F   F352      1.0  0.76851  0.57799  0.77680  1.0000
  F   F353      1.0  0.10796  0.40804  0.46843  1.0000
  F   F354      1.0  0.09478  0.41869  0.96526  1.0000
  F   F355      1.0  0.10096  0.90547  0.46805  1.0000
  F   F356      1.0  0.09565  0.87639  0.97714  1.0000
  F   F357      1.0  0.35209  0.41219  0.45609  1.0000
  F   F358      1.0  0.35068  0.38582  0.96339  1.0000
  F   F359      1.0  0.34818  0.91595  0.45755  1.0000
  F   F360      1.0  0.35029  0.91447  0.95948  1.0000
  F   F361      1.0  0.60346  0.42317  0.45421  1.0000
  F   F362      1.0  0.59849  0.40683  0.97221  1.0000
  F   F363      1.0  0.60092  0.90509  0.46854  1.0000
  F   F364      1.0  0.60395  0.91281  0.96606  1.0000
  F   F365      1.0  0.84996  0.40677  0.46762  1.0000
  F   F366      1.0  0.85885  0.39566  0.96447  1.0000
  F   F367      1.0  0.84921  0.90512  0.46948  1.0000
  F   F368      1.0  0.85078  0.92446  0.95237  1.0000
  F   F369      1.0  0.06346  0.30327  0.26418  1.0000
  F   F370      1.0  0.05042  0.28888  0.78162  1.0000
  F   F371      1.0  0.04250  0.79366  0.30043  1.0000
  F   F372      1.0  0.04871  0.79760  0.78198  1.0000
  F   F373      1.0  0.29583  0.29215  0.30340  1.0000
  F   F374      1.0  0.28977  0.28609  0.78715  1.0000
  F   F375      1.0  0.29307  0.79594  0.30394  1.0000
  F   F376      1.0  0.30255  0.79954  0.78074  1.0000
  F   F377      1.0  0.53892  0.29843  0.28730  1.0000
  F   F378      1.0  0.54371  0.29665  0.79636  1.0000
  F   F379      1.0  0.53484  0.80148  0.28798  1.0000
  F   F380      1.0  0.54288  0.81804  0.79379  1.0000
  F   F381      1.0  0.79235  0.29454  0.29367  1.0000
  F   F382      1.0  0.79644  0.29932  0.78052  1.0000
  F   F383      1.0  0.79259  0.80996  0.27656  1.0000
  F   F384      1.0  0.79697  0.79681  0.78963  1.0000
