data_image0
_chemical_formula_structural       Hf96F384
_chemical_formula_sum              "Hf96 F384"
_cell_length_a       31.01
_cell_length_b       15.5059
_cell_length_c       15.4971
_cell_angle_alpha    63.342
_cell_angle_beta     63.342
_cell_angle_gamma    80.1625

_space_group_name_H-M_alt    "P 1"
_space_group_IT_number       1

loop_
  _space_group_symop_operation_xyz
  'x, y, z'

loop_
  _atom_site_type_symbol
  _atom_site_label
  _atom_site_symmetry_multiplicity
  _atom_site_fract_x
  _atom_site_fract_y
  _atom_site_fract_z
  _atom_site_occupancy
  Hf  Hf1       1.0  0.19219  0.11088  0.37836  1.0000
  Hf  Hf2       1.0  0.19889  0.10396  0.87545  1.0000
  Hf  Hf3       1.0  0.19461  0.61499  0.37001  1.0000
  Hf  Hf4       1.0  0.19327  0.60250  0.88103  1.0000
  Hf  Hf5       1.0  0.45005  0.11738  0.36357  1.0000
  Hf  Hf6       1.0  0.44492  0.11359  0.86781  1.0000
  Hf  Hf7       1.0  0.44291  0.60413  0.38365  1.0000
  Hf  Hf8       1.0  0.44368  0.61048  0.87467  1.0000
  Hf  Hf9       1.0  0.69685  0.10356  0.38055  1.0000
  Hf  Hf10      1.0  0.69426  0.09310  0.88291  1.0000
  Hf  Hf11      1.0  0.69402  0.60553  0.38095  1.0000
  Hf  Hf12      1.0  0.69237  0.60112  0.88184  1.0000
  Hf  Hf13      1.0  0.94824  0.10714  0.36918  1.0000
  Hf  Hf14      1.0  0.94291  0.10699  0.87677  1.0000
  Hf  Hf15      1.0  0.95072  0.59986  0.36932  1.0000
  Hf  Hf16      1.0  0.94528  0.60263  0.88251  1.0000
  Hf  Hf17      1.0  0.05596  0.39215  0.11607  1.0000
  Hf  Hf18      1.0  0.05355  0.38968  0.63260  1.0000
  Hf  Hf19      1.0  0.05270  0.89191  0.12354  1.0000
  Hf  Hf20      1.0  0.05297  0.89372  0.62382  1.0000
  Hf  Hf21      1.0  0.30662  0.39299  0.12059  1.0000
  Hf  Hf22      1.0  0.30486  0.39429  0.62611  1.0000
  Hf  Hf23      1.0  0.30410  0.89080  0.12569  1.0000
  Hf  Hf24      1.0  0.30468  0.87885  0.63675  1.0000
  Hf  Hf25      1.0  0.55567  0.39534  0.11956  1.0000
  Hf  Hf26      1.0  0.55548  0.40010  0.61613  1.0000
  Hf  Hf27      1.0  0.55365  0.88759  0.12950  1.0000
  Hf  Hf28      1.0  0.55233  0.88945  0.63395  1.0000
  Hf  Hf29      1.0  0.80401  0.39053  0.12426  1.0000
  Hf  Hf30      1.0  0.80499  0.39436  0.62055  1.0000
  Hf  Hf31      1.0  0.80215  0.89464  0.12852  1.0000
  Hf  Hf32      1.0  0.80263  0.89162  0.63021  1.0000
  Hf  Hf33      1.0  0.05479  0.18839  0.41687  1.0000
  Hf  Hf34      1.0  0.05642  0.17492  0.91370  1.0000
  Hf  Hf35      1.0  0.05564  0.68564  0.41055  1.0000
  Hf  Hf36      1.0  0.05498  0.68669  0.91920  1.0000
  Hf  Hf37      1.0  0.30461  0.18318  0.41770  1.0000
  Hf  Hf38      1.0  0.30569  0.18139  0.91599  1.0000
  Hf  Hf39      1.0  0.30560  0.68579  0.41107  1.0000
  Hf  Hf40      1.0  0.30109  0.68066  0.92581  1.0000
  Hf  Hf41      1.0  0.55646  0.17950  0.41981  1.0000
  Hf  Hf42      1.0  0.55622  0.18449  0.91624  1.0000
  Hf  Hf43      1.0  0.55469  0.69029  0.40994  1.0000
  Hf  Hf44      1.0  0.55377  0.69233  0.91248  1.0000
  Hf  Hf45      1.0  0.80947  0.18168  0.41314  1.0000
  Hf  Hf46      1.0  0.80478  0.18096  0.91517  1.0000
  Hf  Hf47      1.0  0.80761  0.68331  0.41701  1.0000
  Hf  Hf48      1.0  0.80729  0.68470  0.91497  1.0000
  Hf  Hf49      1.0  0.15868  0.39350  0.33447  1.0000
  Hf  Hf50      1.0  0.16120  0.39624  0.83270  1.0000
  Hf  Hf51      1.0  0.15785  0.88828  0.33412  1.0000
  Hf  Hf52      1.0  0.16003  0.88996  0.82594  1.0000
  Hf  Hf53      1.0  0.41237  0.39075  0.32289  1.0000
  Hf  Hf54      1.0  0.40924  0.38983  0.83547  1.0000
  Hf  Hf55      1.0  0.40473  0.88865  0.33771  1.0000
  Hf  Hf56      1.0  0.40634  0.88910  0.83157  1.0000
  Hf  Hf57      1.0  0.66081  0.38784  0.32849  1.0000
  Hf  Hf58      1.0  0.66124  0.38401  0.83055  1.0000
  Hf  Hf59      1.0  0.66181  0.88714  0.33979  1.0000
  Hf  Hf60      1.0  0.65732  0.88903  0.83497  1.0000
  Hf  Hf61      1.0  0.91100  0.38778  0.33219  1.0000
  Hf  Hf62      1.0  0.91041  0.39257  0.83439  1.0000
  Hf  Hf63      1.0  0.90943  0.89005  0.33331  1.0000
  Hf  Hf64      1.0  0.90682  0.88381  0.84217  1.0000
  Hf  Hf65      1.0  0.19721  0.31845  0.08057  1.0000
  Hf  Hf66      1.0  0.19451  0.31661  0.59193  1.0000
  Hf  Hf67      1.0  0.19105  0.82096  0.08310  1.0000
  Hf  Hf68      1.0  0.19564  0.82092  0.57993  1.0000
  Hf  Hf69      1.0  0.44657  0.32434  0.07739  1.0000
  Hf  Hf70      1.0  0.44736  0.32001  0.56885  1.0000
  Hf  Hf71      1.0  0.44190  0.81787  0.08563  1.0000
  Hf  Hf72      1.0  0.44926  0.81753  0.58163  1.0000
  Hf  Hf73      1.0  0.69452  0.31882  0.08017  1.0000
  Hf  Hf74      1.0  0.69648  0.31290  0.58035  1.0000
  Hf  Hf75      1.0  0.69409  0.81323  0.08667  1.0000
  Hf  Hf76      1.0  0.69461  0.81153  0.59223  1.0000
  Hf  Hf77      1.0  0.94516  0.31847  0.08754  1.0000
  Hf  Hf78      1.0  0.94118  0.31709  0.59006  1.0000
  Hf  Hf79      1.0  0.94345  0.81648  0.08250  1.0000
  Hf  Hf80      1.0  0.94229  0.81389  0.58876  1.0000
  Hf  Hf81      1.0  0.09319  0.11623  0.16450  1.0000
  Hf  Hf82      1.0  0.08907  0.11530  0.65838  1.0000
  Hf  Hf83      1.0  0.09252  0.61242  0.16226  1.0000
  Hf  Hf84      1.0  0.09015  0.61642  0.66741  1.0000
  Hf  Hf85      1.0  0.34168  0.11485  0.16487  1.0000
  Hf  Hf86      1.0  0.34246  0.11292  0.66169  1.0000
  Hf  Hf87      1.0  0.33928  0.61029  0.17172  1.0000
  Hf  Hf88      1.0  0.34317  0.60897  0.66881  1.0000
  Hf  Hf89      1.0  0.59302  0.10506  0.17158  1.0000
  Hf  Hf90      1.0  0.59165  0.11506  0.66388  1.0000
  Hf  Hf91      1.0  0.58921  0.60633  0.17445  1.0000
  Hf  Hf92      1.0  0.59105  0.61199  0.67184  1.0000
  Hf  Hf93      1.0  0.84187  0.10860  0.17087  1.0000
  Hf  Hf94      1.0  0.84346  0.11148  0.66316  1.0000
  Hf  Hf95      1.0  0.83872  0.60669  0.17522  1.0000
  Hf  Hf96      1.0  0.84123  0.60778  0.66583  1.0000
  F   F1        1.0  0.07985  0.12832  0.30532  1.0000
  F   F2        1.0  0.07154  0.11583  0.80852  1.0000
  F   F3        1.0  0.08333  0.62757  0.29245  1.0000
  F   F4        1.0  0.08298  0.63745  0.79504  1.0000
  F   F5        1.0  0.32194  0.13372  0.30406  1.0000
  F   F6        1.0  0.32906  0.12582  0.80801  1.0000
  F   F7        1.0  0.32546  0.61755  0.31035  1.0000
  F   F8        1.0  0.32371  0.62264  0.81141  1.0000
  F   F9        1.0  0.57962  0.11878  0.30307  1.0000
  F   F10       1.0  0.58028  0.12554  0.80633  1.0000
  F   F11       1.0  0.57659  0.62375  0.30703  1.0000
  F   F12       1.0  0.58310  0.64108  0.79719  1.0000
  F   F13       1.0  0.82654  0.11076  0.31352  1.0000
  F   F14       1.0  0.83025  0.12497  0.80237  1.0000
  F   F15       1.0  0.83117  0.62128  0.31232  1.0000
  F   F16       1.0  0.83072  0.61704  0.80874  1.0000
  F   F17       1.0  0.17626  0.32898  0.46263  1.0000
  F   F18       1.0  0.19262  0.35624  0.93607  1.0000
  F   F19       1.0  0.19622  0.85378  0.43134  1.0000
  F   F20       1.0  0.18309  0.84408  0.94509  1.0000
  F   F21       1.0  0.44158  0.34144  0.43464  1.0000
  F   F22       1.0  0.43931  0.34789  0.94398  1.0000
  F   F23       1.0  0.43117  0.84476  0.45052  1.0000
  F   F24       1.0  0.43753  0.84938  0.94342  1.0000
  F   F25       1.0  0.68419  0.34162  0.44131  1.0000
  F   F26       1.0  0.68863  0.33896  0.94247  1.0000
  F   F27       1.0  0.68346  0.83880  0.46137  1.0000
  F   F28       1.0  0.68099  0.83450  0.95232  1.0000
  F   F29       1.0  0.92734  0.33089  0.45907  1.0000
  F   F30       1.0  0.93897  0.34569  0.94197  1.0000
  F   F31       1.0  0.93801  0.85037  0.44453  1.0000
  F   F32       1.0  0.93046  0.83970  0.95560  1.0000
  F   F33       1.0  0.17701  0.37923  0.19036  1.0000
  F   F34       1.0  0.17261  0.37805  0.69482  1.0000
  F   F35       1.0  0.16654  0.87815  0.19357  1.0000
  F   F36       1.0  0.17252  0.87326  0.69710  1.0000
  F   F37       1.0  0.41695  0.38618  0.18883  1.0000
  F   F38       1.0  0.41460  0.36368  0.68293  1.0000
  F   F39       1.0  0.41948  0.87596  0.19970  1.0000
  F   F40       1.0  0.42166  0.86537  0.70000  1.0000
  F   F41       1.0  0.67553  0.39412  0.18184  1.0000
  F   F42       1.0  0.66757  0.36601  0.69481  1.0000
  F   F43       1.0  0.67146  0.87381  0.19859  1.0000
  F   F44       1.0  0.67669  0.88582  0.68072  1.0000
  F   F45       1.0  0.92099  0.38166  0.19347  1.0000
  F   F46       1.0  0.92013  0.38187  0.69642  1.0000
  F   F47       1.0  0.92013  0.86043  0.19676  1.0000
  F   F48       1.0  0.91814  0.86272  0.70648  1.0000
  F   F49       1.0  0.07232  0.16784  0.04207  1.0000
  F   F50       1.0  0.05833  0.15494  0.55506  1.0000
  F   F51       1.0  0.05661  0.64717  0.06183  1.0000
  F   F52       1.0  0.05978  0.65837  0.56175  1.0000
  F   F53       1.0  0.31446  0.15831  0.05123  1.0000
  F   F54       1.0  0.31159  0.16644  0.55759  1.0000
  F   F55       1.0  0.30763  0.65357  0.05957  1.0000
  F   F56       1.0  0.31864  0.66064  0.55357  1.0000
  F   F57       1.0  0.56509  0.15555  0.05126  1.0000
  F   F58       1.0  0.57242  0.15457  0.54277  1.0000
  F   F59       1.0  0.56508  0.66514  0.05164  1.0000
  F   F60       1.0  0.56309  0.66274  0.55491  1.0000
  F   F61       1.0  0.81031  0.14652  0.06394  1.0000
  F   F62       1.0  0.80504  0.15013  0.56236  1.0000
  F   F63       1.0  0.81614  0.66092  0.04986  1.0000
  F   F64       1.0  0.81250  0.64908  0.56027  1.0000
  F   F65       1.0  0.20182  0.20253  0.20909  1.0000
  F   F66       1.0  0.21144  0.21492  0.71013  1.0000
  F   F67       1.0  0.19571  0.70399  0.21666  1.0000
  F   F68       1.0  0.19693  0.70980  0.71834  1.0000
  F   F69       1.0  0.45773  0.20741  0.19517  1.0000
  F   F70       1.0  0.45542  0.19950  0.70831  1.0000
  F   F71       1.0  0.45346  0.70669  0.21884  1.0000
  F   F72       1.0  0.45871  0.70132  0.70475  1.0000
  F   F73       1.0  0.69577  0.19784  0.20740  1.0000
  F   F74       1.0  0.70256  0.19534  0.71191  1.0000
  F   F75       1.0  0.70541  0.69780  0.22055  1.0000
  F   F76       1.0  0.70061  0.69586  0.72120  1.0000
  F   F77       1.0  0.96572  0.19649  0.20597  1.0000
  F   F78       1.0  0.94833  0.20406  0.71869  1.0000
  F   F79       1.0  0.96272  0.70176  0.20311  1.0000
  F   F80       1.0  0.95453  0.70121  0.71577  1.0000
  F   F81       1.0  0.15267  0.08087  0.03806  1.0000
  F   F82       1.0  0.14554  0.10470  0.54068  1.0000
  F   F83       1.0  0.15177  0.59965  0.03470  1.0000
  F   F84       1.0  0.14799  0.59261  0.53735  1.0000
  F   F85       1.0  0.39797  0.08984  0.03854  1.0000
  F   F86       1.0  0.39842  0.11430  0.53121  1.0000
  F   F87       1.0  0.38974  0.59517  0.03730  1.0000
  F   F88       1.0  0.40446  0.57574  0.54976  1.0000
  F   F89       1.0  0.64954  0.07088  0.04767  1.0000
  F   F90       1.0  0.65205  0.08935  0.53646  1.0000
  F   F91       1.0  0.64603  0.58442  0.05008  1.0000
  F   F92       1.0  0.64458  0.58823  0.53453  1.0000
  F   F93       1.0  0.89783  0.09795  0.04293  1.0000
  F   F94       1.0  0.89115  0.09978  0.52706  1.0000
  F   F95       1.0  0.89420  0.57850  0.04736  1.0000
  F   F96       1.0  0.90143  0.60212  0.54062  1.0000
  F   F97       1.0  0.15630  0.19806  0.11477  1.0000
  F   F98       1.0  0.15913  0.19353  0.64403  1.0000
  F   F99       1.0  0.15013  0.69789  0.12043  1.0000
  F   F100      1.0  0.15279  0.70534  0.61857  1.0000
  F   F101      1.0  0.40302  0.18439  0.13772  1.0000
  F   F102      1.0  0.40104  0.19876  0.62083  1.0000
  F   F103      1.0  0.40183  0.70083  0.13070  1.0000
  F   F104      1.0  0.40160  0.70610  0.62260  1.0000
  F   F105      1.0  0.64591  0.20820  0.10880  1.0000
  F   F106      1.0  0.65471  0.19556  0.61354  1.0000
  F   F107      1.0  0.65164  0.69885  0.13952  1.0000
  F   F108      1.0  0.65331  0.68684  0.61767  1.0000
  F   F109      1.0  0.90560  0.19540  0.13241  1.0000
  F   F110      1.0  0.90653  0.17514  0.62146  1.0000
  F   F111      1.0  0.90669  0.69317  0.12527  1.0000
  F   F112      1.0  0.89962  0.70383  0.62705  1.0000
  F   F113      1.0  0.09524  0.30797  0.37914  1.0000
  F   F114      1.0  0.09304  0.29794  0.85202  1.0000
  F   F115      1.0  0.09571  0.80160  0.36716  1.0000
  F   F116      1.0  0.10057  0.79699  0.88053  1.0000
  F   F117      1.0  0.34791  0.29001  0.36642  1.0000
  F   F118      1.0  0.34829  0.30303  0.86980  1.0000
  F   F119      1.0  0.34469  0.80499  0.36015  1.0000
  F   F120      1.0  0.34804  0.80262  0.87575  1.0000
  F   F121      1.0  0.59796  0.30292  0.37160  1.0000
  F   F122      1.0  0.60005  0.30232  0.87309  1.0000
  F   F123      1.0  0.59193  0.80872  0.36519  1.0000
  F   F124      1.0  0.59143  0.81775  0.86259  1.0000
  F   F125      1.0  0.85154  0.30248  0.38831  1.0000
  F   F126      1.0  0.84509  0.29584  0.87303  1.0000
  F   F127      1.0  0.85548  0.79508  0.38080  1.0000
  F   F128      1.0  0.84832  0.79766  0.87618  1.0000
  F   F129      1.0  0.06282  0.25141  0.13413  1.0000
  F   F130      1.0  0.08059  0.25861  0.61484  1.0000
  F   F131      1.0  0.06675  0.75042  0.13381  1.0000
  F   F132      1.0  0.06383  0.74994  0.64895  1.0000
  F   F133      1.0  0.32234  0.26011  0.11373  1.0000
  F   F134      1.0  0.31264  0.25046  0.64874  1.0000
  F   F135      1.0  0.32613  0.75802  0.11462  1.0000
  F   F136      1.0  0.30840  0.74295  0.65084  1.0000
  F   F137      1.0  0.56062  0.25797  0.13598  1.0000
  F   F138      1.0  0.57015  0.25411  0.62735  1.0000
  F   F139      1.0  0.57458  0.74237  0.14939  1.0000
  F   F140      1.0  0.55687  0.74952  0.65316  1.0000
  F   F141      1.0  0.82214  0.24834  0.13166  1.0000
  F   F142      1.0  0.81811  0.25376  0.63458  1.0000
  F   F143      1.0  0.80912  0.74313  0.15369  1.0000
  F   F144      1.0  0.81560  0.74065  0.64446  1.0000
  F   F145      1.0  0.12537  0.36396  0.11045  1.0000
  F   F146      1.0  0.12170  0.37923  0.62239  1.0000
  F   F147      1.0  0.12609  0.87987  0.09863  1.0000
  F   F148      1.0  0.12198  0.87717  0.61131  1.0000
  F   F149      1.0  0.37592  0.38356  0.09831  1.0000
  F   F150      1.0  0.37698  0.39606  0.56678  1.0000
  F   F151      1.0  0.37214  0.87124  0.11786  1.0000
  F   F152      1.0  0.37631  0.87445  0.60490  1.0000
  F   F153      1.0  0.62652  0.37552  0.10433  1.0000
  F   F154      1.0  0.62442  0.36385  0.60616  1.0000
  F   F155      1.0  0.62546  0.87824  0.10471  1.0000
  F   F156      1.0  0.62098  0.84371  0.63113  1.0000
  F   F157      1.0  0.87352  0.38033  0.10404  1.0000
  F   F158      1.0  0.87126  0.34834  0.63602  1.0000
  F   F159      1.0  0.87446  0.86204  0.11342  1.0000
  F   F160      1.0  0.87287  0.87845  0.60472  1.0000
  F   F161      1.0  0.17956  0.24580  0.36103  1.0000
  F   F162      1.0  0.16895  0.25222  0.88365  1.0000
  F   F163      1.0  0.18288  0.75474  0.35377  1.0000
  F   F164      1.0  0.18745  0.74543  0.85721  1.0000
  F   F165      1.0  0.43615  0.25492  0.34616  1.0000
  F   F166      1.0  0.43082  0.24750  0.86869  1.0000
  F   F167      1.0  0.42398  0.74595  0.37700  1.0000
  F   F168      1.0  0.44128  0.74239  0.85781  1.0000
  F   F169      1.0  0.68688  0.24249  0.35550  1.0000
  F   F170      1.0  0.68226  0.24286  0.86008  1.0000
  F   F171      1.0  0.67321  0.74469  0.37997  1.0000
  F   F172      1.0  0.68170  0.74900  0.85292  1.0000
  F   F173      1.0  0.93702  0.24584  0.35658  1.0000
  F   F174      1.0  0.92816  0.24783  0.87048  1.0000
  F   F175      1.0  0.93986  0.73282  0.36043  1.0000
  F   F176      1.0  0.93429  0.74577  0.86734  1.0000
  F   F177      1.0  0.12533  0.13255  0.38683  1.0000
  F   F178      1.0  0.12522  0.11780  0.89212  1.0000
  F   F179      1.0  0.12085  0.62496  0.40103  1.0000
  F   F180      1.0  0.12437  0.61847  0.90433  1.0000
  F   F181      1.0  0.37805  0.13013  0.38850  1.0000
  F   F182      1.0  0.37667  0.14146  0.88089  1.0000
  F   F183      1.0  0.37593  0.63479  0.38700  1.0000
  F   F184      1.0  0.37343  0.64090  0.87835  1.0000
  F   F185      1.0  0.62262  0.11150  0.40061  1.0000
  F   F186      1.0  0.62429  0.12951  0.89394  1.0000
  F   F187      1.0  0.62720  0.62656  0.37482  1.0000
  F   F188      1.0  0.62153  0.61930  0.90248  1.0000
  F   F189      1.0  0.88063  0.15096  0.36632  1.0000
  F   F190      1.0  0.87697  0.12709  0.88888  1.0000
  F   F191      1.0  0.88003  0.62560  0.39663  1.0000
  F   F192      1.0  0.87442  0.63065  0.89090  1.0000
  F   F193      1.0  0.01097  0.35965  0.06891  1.0000
  F   F194      1.0  0.01002  0.35178  0.57841  1.0000
  F   F195      1.0  0.00563  0.87254  0.07554  1.0000
  F   F196      1.0  0.00502  0.87227  0.57055  1.0000
  F   F197      1.0  0.26271  0.36611  0.06823  1.0000
  F   F198      1.0  0.26389  0.37551  0.56671  1.0000
  F   F199      1.0  0.25813  0.85007  0.09367  1.0000
  F   F200      1.0  0.25869  0.87647  0.56266  1.0000
  F   F201      1.0  0.50687  0.37757  0.06132  1.0000
  F   F202      1.0  0.50637  0.35942  0.57677  1.0000
  F   F203      1.0  0.50681  0.86802  0.08447  1.0000
  F   F204      1.0  0.51318  0.86699  0.55137  1.0000
  F   F205      1.0  0.76290  0.35492  0.06889  1.0000
  F   F206      1.0  0.75959  0.36655  0.57049  1.0000
  F   F207      1.0  0.75266  0.85133  0.09383  1.0000
  F   F208      1.0  0.76026  0.86591  0.57391  1.0000
  F   F209      1.0  0.07134  0.48512  0.15766  1.0000
  F   F210      1.0  0.06401  0.48343  0.68780  1.0000
  F   F211      1.0  0.06736  0.99244  0.15659  1.0000
  F   F212      1.0  0.06460  0.99302  0.67078  1.0000
  F   F213      1.0  0.31393  0.49022  0.18675  1.0000
  F   F214      1.0  0.32147  0.48292  0.68755  1.0000
  F   F215      1.0  0.31263  0.98138  0.19336  1.0000
  F   F216      1.0  0.31975  0.98934  0.66993  1.0000
  F   F217      1.0  0.56435  0.47548  0.18770  1.0000
  F   F218      1.0  0.56658  0.48244  0.67933  1.0000
  F   F219      1.0  0.56906  0.97701  0.18721  1.0000
  F   F220      1.0  0.56827  0.98083  0.67732  1.0000
  F   F221      1.0  0.81718  0.47309  0.19579  1.0000
  F   F222      1.0  0.82437  0.47999  0.66961  1.0000
  F   F223      1.0  0.81919  0.98767  0.17506  1.0000
  F   F224      1.0  0.81534  0.97841  0.68717  1.0000
  F   F225      1.0  0.23902  0.15571  0.43467  1.0000
  F   F226      1.0  0.24165  0.15143  0.91639  1.0000
  F   F227      1.0  0.24247  0.64594  0.41580  1.0000
  F   F228      1.0  0.23905  0.63061  0.94714  1.0000
  F   F229      1.0  0.49070  0.13815  0.43801  1.0000
  F   F230      1.0  0.49055  0.14004  0.93626  1.0000
  F   F231      1.0  0.48848  0.63707  0.43535  1.0000
  F   F232      1.0  0.49248  0.62942  0.93835  1.0000
  F   F233      1.0  0.74528  0.13556  0.42728  1.0000
  F   F234      1.0  0.73985  0.12942  0.93148  1.0000
  F   F235      1.0  0.74640  0.65951  0.40741  1.0000
  F   F236      1.0  0.74302  0.64345  0.91680  1.0000
  F   F237      1.0  0.99422  0.14442  0.42819  1.0000
  F   F238      1.0  0.98471  0.13443  0.94065  1.0000
  F   F239      1.0  0.99783  0.63075  0.41141  1.0000
  F   F240      1.0  0.99346  0.64108  0.92780  1.0000
  F   F241      1.0  0.17413  0.02093  0.32474  1.0000
  F   F242      1.0  0.18256  0.01675  0.82242  1.0000
  F   F243      1.0  0.18318  0.52071  0.31284  1.0000
  F   F244      1.0  0.18746  0.52719  0.79896  1.0000
  F   F245      1.0  0.43173  0.01982  0.31805  1.0000
  F   F246      1.0  0.43162  0.01530  0.81898  1.0000
  F   F247      1.0  0.43321  0.51316  0.32621  1.0000
  F   F248      1.0  0.43349  0.50947  0.82790  1.0000
  F   F249      1.0  0.68739  0.01123  0.32434  1.0000
  F   F250      1.0  0.67523  0.02132  0.82170  1.0000
  F   F251      1.0  0.68505  0.50909  0.31466  1.0000
  F   F252      1.0  0.68324  0.51310  0.82302  1.0000
  F   F253      1.0  0.93147  0.01626  0.32822  1.0000
  F   F254      1.0  0.93079  0.01114  0.83035  1.0000
  F   F255      1.0  0.93080  0.50962  0.32075  1.0000
  F   F256      1.0  0.92806  0.52187  0.82688  1.0000
  F   F257      1.0  0.00389  0.24894  0.98925  1.0000
  F   F258      1.0  0.99448  0.26465  0.48728  1.0000
  F   F259      1.0  0.00269  0.77460  0.98321  1.0000
  F   F260      1.0  0.00158  0.75893  0.48652  1.0000
  F   F261      1.0  0.25592  0.25552  0.99291  1.0000
  F   F262      1.0  0.25127  0.26685  0.50104  1.0000
  F   F263      1.0  0.25500  0.76422  0.00015  1.0000
  F   F264      1.0  0.25011  0.74334  0.50770  1.0000
  F   F265      1.0  0.50511  0.26189  0.99192  1.0000
  F   F266      1.0  0.50534  0.26078  0.48602  1.0000
  F   F267      1.0  0.49784  0.75614  0.00587  1.0000
  F   F268      1.0  0.49916  0.75584  0.49892  1.0000
  F   F269      1.0  0.74941  0.24546  0.00001  1.0000
  F   F270      1.0  0.75076  0.25370  0.48597  1.0000
  F   F271      1.0  0.74623  0.74360  0.00713  1.0000
  F   F272      1.0  0.75252  0.74989  0.50517  1.0000
  F   F273      1.0  0.11991  0.99282  0.25289  1.0000
  F   F274      1.0  0.12054  0.99485  0.74736  1.0000
  F   F275      1.0  0.12679  0.49699  0.23827  1.0000
  F   F276      1.0  0.12228  0.50561  0.75264  1.0000
  F   F277      1.0  0.36886  0.99920  0.26792  1.0000
  F   F278      1.0  0.37470  0.99530  0.74845  1.0000
  F   F279      1.0  0.38341  0.51276  0.23857  1.0000
  F   F280      1.0  0.38553  0.51239  0.74209  1.0000
  F   F281      1.0  0.63788  0.00276  0.24637  1.0000
  F   F282      1.0  0.62995  0.01202  0.73553  1.0000
  F   F283      1.0  0.62265  0.49770  0.26103  1.0000
  F   F284      1.0  0.62425  0.50322  0.75521  1.0000
  F   F285      1.0  0.87586  0.99672  0.24979  1.0000
  F   F286      1.0  0.87851  0.99949  0.74103  1.0000
  F   F287      1.0  0.87686  0.50345  0.25228  1.0000
  F   F288      1.0  0.86892  0.49136  0.76134  1.0000
  F   F289      1.0  0.03834  0.03487  0.01521  1.0000
  F   F290      1.0  0.04807  0.02297  0.51447  1.0000
  F   F291      1.0  0.04280  0.53018  0.01032  1.0000
  F   F292      1.0  0.04061  0.52928  0.52348  1.0000
  F   F293      1.0  0.28707  0.03384  0.03008  1.0000
  F   F294      1.0  0.29765  0.02843  0.51008  1.0000
  F   F295      1.0  0.29011  0.53070  0.02876  1.0000
  F   F296      1.0  0.30207  0.53458  0.50999  1.0000
  F   F297      1.0  0.54374  0.02587  0.03105  1.0000
  F   F298      1.0  0.53725  0.02750  0.53446  1.0000
  F   F299      1.0  0.54553  0.53912  0.02926  1.0000
  F   F300      1.0  0.54139  0.53419  0.52602  1.0000
  F   F301      1.0  0.79374  0.02087  0.02238  1.0000
  F   F302      1.0  0.79835  0.02750  0.51116  1.0000
  F   F303      1.0  0.78986  0.52862  0.02580  1.0000
  F   F304      1.0  0.78962  0.53642  0.52633  1.0000
  F   F305      1.0  0.23991  0.40470  0.23500  1.0000
  F   F306      1.0  0.23634  0.42079  0.72175  1.0000
  F   F307      1.0  0.23247  0.92328  0.21931  1.0000
  F   F308      1.0  0.23619  0.92185  0.71551  1.0000
  F   F309      1.0  0.48383  0.41957  0.21140  1.0000
  F   F310      1.0  0.48112  0.41796  0.71557  1.0000
  F   F311      1.0  0.48595  0.90437  0.23595  1.0000
  F   F312      1.0  0.48465  0.90952  0.73039  1.0000
  F   F313      1.0  0.73675  0.40485  0.22655  1.0000
  F   F314      1.0  0.73179  0.40919  0.72678  1.0000
  F   F315      1.0  0.73702  0.90387  0.24457  1.0000
  F   F316      1.0  0.73321  0.91833  0.72696  1.0000
  F   F317      1.0  0.98737  0.39703  0.23310  1.0000
  F   F318      1.0  0.98359  0.41516  0.73522  1.0000
  F   F319      1.0  0.98208  0.90562  0.23550  1.0000
  F   F320      1.0  0.98094  0.90774  0.73554  1.0000
  F   F321      1.0  0.20712  0.47408  0.46207  1.0000
  F   F322      1.0  0.20881  0.46938  0.98306  1.0000
  F   F323      1.0  0.20077  0.98714  0.48600  1.0000
  F   F324      1.0  0.21406  0.96656  0.97104  1.0000
  F   F325      1.0  0.46182  0.46725  0.46408  1.0000
  F   F326      1.0  0.45123  0.47685  0.98249  1.0000
  F   F327      1.0  0.44747  0.98992  0.48060  1.0000
  F   F328      1.0  0.45201  0.97421  0.98447  1.0000
  F   F329      1.0  0.71125  0.48463  0.47684  1.0000
  F   F330      1.0  0.70658  0.46485  0.97678  1.0000
  F   F331      1.0  0.70487  0.96154  0.49643  1.0000
  F   F332      1.0  0.71522  0.95993  0.95554  1.0000
  F   F333      1.0  0.95667  0.45860  0.48063  1.0000
  F   F334      1.0  0.95440  0.46818  0.98582  1.0000
  F   F335      1.0  0.95885  0.98655  0.47675  1.0000
  F   F336      1.0  0.95512  0.97518  0.97139  1.0000
  F   F337      1.0  0.02030  0.07944  0.26718  1.0000
  F   F338      1.0  0.01274  0.10732  0.75541  1.0000
  F   F339      1.0  0.01854  0.57217  0.27432  1.0000
  F   F340      1.0  0.01447  0.59073  0.77667  1.0000
  F   F341      1.0  0.26112  0.09725  0.27129  1.0000
  F   F342      1.0  0.26217  0.07267  0.77814  1.0000
  F   F343      1.0  0.26163  0.59282  0.27104  1.0000
  F   F344      1.0  0.26187  0.57507  0.78525  1.0000
  F   F345      1.0  0.51639  0.08625  0.27215  1.0000
  F   F346      1.0  0.51906  0.07585  0.77970  1.0000
  F   F347      1.0  0.51487  0.59651  0.26434  1.0000
  F   F348      1.0  0.51146  0.58823  0.77694  1.0000
  F   F349      1.0  0.76207  0.10012  0.26426  1.0000
  F   F350      1.0  0.76455  0.09232  0.77183  1.0000
  F   F351      1.0  0.76287  0.57913  0.27479  1.0000
  F   F352      1.0  0.76098  0.58451  0.78504  1.0000
  F   F353      1.0  0.10236  0.41628  0.46470  1.0000
  F   F354      1.0  0.10274  0.40851  0.95294  1.0000
  F   F355      1.0  0.10483  0.87834  0.46942  1.0000
  F   F356      1.0  0.09613  0.89740  0.95884  1.0000
  F   F357      1.0  0.35074  0.39335  0.44094  1.0000
  F   F358      1.0  0.34909  0.42161  0.95222  1.0000
  F   F359      1.0  0.34670  0.88715  0.46461  1.0000
  F   F360      1.0  0.35040  0.91697  0.95410  1.0000
  F   F361      1.0  0.60056  0.40601  0.46322  1.0000
  F   F362      1.0  0.60012  0.40772  0.95467  1.0000
  F   F363      1.0  0.60202  0.89812  0.46972  1.0000
  F   F364      1.0  0.59993  0.91078  0.94807  1.0000
  F   F365      1.0  0.85181  0.41698  0.46997  1.0000
  F   F366      1.0  0.85307  0.39750  0.96109  1.0000
  F   F367      1.0  0.85447  0.90106  0.46427  1.0000
  F   F368      1.0  0.85135  0.88875  0.97238  1.0000
  F   F369      1.0  0.05225  0.30480  0.27922  1.0000
  F   F370      1.0  0.03535  0.28000  0.78794  1.0000
  F   F371      1.0  0.04428  0.79804  0.28441  1.0000
  F   F372      1.0  0.04930  0.80215  0.78752  1.0000
  F   F373      1.0  0.29853  0.29496  0.27663  1.0000
  F   F374      1.0  0.29739  0.30313  0.77720  1.0000
  F   F375      1.0  0.29657  0.79654  0.27386  1.0000
  F   F376      1.0  0.29593  0.79154  0.79142  1.0000
  F   F377      1.0  0.54991  0.28946  0.28002  1.0000
  F   F378      1.0  0.54192  0.29211  0.79093  1.0000
  F   F379      1.0  0.53990  0.79100  0.28964  1.0000
  F   F380      1.0  0.53187  0.79421  0.79458  1.0000
  F   F381      1.0  0.80128  0.29370  0.28357  1.0000
  F   F382      1.0  0.78792  0.29272  0.79649  1.0000
  F   F383      1.0  0.80392  0.79804  0.28354  1.0000
  F   F384      1.0  0.79863  0.79706  0.78703  1.0000
