data_image0
_chemical_formula_structural       Hf96F384
_chemical_formula_sum              "Hf96 F384"
_cell_length_a       31.026
_cell_length_b       15.5174
_cell_length_c       15.5064
_cell_angle_alpha    63.342
_cell_angle_beta     63.342
_cell_angle_gamma    80.1625

_space_group_name_H-M_alt    "P 1"
_space_group_IT_number       1

loop_
  _space_group_symop_operation_xyz
  'x, y, z'

loop_
  _atom_site_type_symbol
  _atom_site_label
  _atom_site_symmetry_multiplicity
  _atom_site_fract_x
  _atom_site_fract_y
  _atom_site_fract_z
  _atom_site_occupancy
  Hf  Hf1       1.0  0.19310  0.09803  0.38723  1.0000
  Hf  Hf2       1.0  0.19485  0.11228  0.87690  1.0000
  Hf  Hf3       1.0  0.19809  0.60549  0.36884  1.0000
  Hf  Hf4       1.0  0.19915  0.60297  0.87818  1.0000
  Hf  Hf5       1.0  0.44410  0.10150  0.38647  1.0000
  Hf  Hf6       1.0  0.44236  0.11058  0.87713  1.0000
  Hf  Hf7       1.0  0.45097  0.61154  0.36617  1.0000
  Hf  Hf8       1.0  0.44930  0.60803  0.87648  1.0000
  Hf  Hf9       1.0  0.69210  0.09966  0.38307  1.0000
  Hf  Hf10      1.0  0.69169  0.10859  0.87894  1.0000
  Hf  Hf11      1.0  0.69569  0.60313  0.38458  1.0000
  Hf  Hf12      1.0  0.69985  0.61156  0.86850  1.0000
  Hf  Hf13      1.0  0.94458  0.09888  0.37619  1.0000
  Hf  Hf14      1.0  0.94463  0.11206  0.87436  1.0000
  Hf  Hf15      1.0  0.95239  0.60851  0.36724  1.0000
  Hf  Hf16      1.0  0.94698  0.59893  0.87370  1.0000
  Hf  Hf17      1.0  0.04970  0.38873  0.13152  1.0000
  Hf  Hf18      1.0  0.05107  0.38846  0.62391  1.0000
  Hf  Hf19      1.0  0.05374  0.89701  0.11440  1.0000
  Hf  Hf20      1.0  0.05421  0.88741  0.62884  1.0000
  Hf  Hf21      1.0  0.30401  0.39214  0.13264  1.0000
  Hf  Hf22      1.0  0.30411  0.39555  0.61970  1.0000
  Hf  Hf23      1.0  0.30344  0.89056  0.12430  1.0000
  Hf  Hf24      1.0  0.30686  0.89298  0.63054  1.0000
  Hf  Hf25      1.0  0.54879  0.39339  0.13229  1.0000
  Hf  Hf26      1.0  0.55434  0.39409  0.62343  1.0000
  Hf  Hf27      1.0  0.55337  0.89075  0.12590  1.0000
  Hf  Hf28      1.0  0.55303  0.89940  0.63319  1.0000
  Hf  Hf29      1.0  0.80268  0.39040  0.12722  1.0000
  Hf  Hf30      1.0  0.80474  0.38836  0.62440  1.0000
  Hf  Hf31      1.0  0.80707  0.89017  0.11967  1.0000
  Hf  Hf32      1.0  0.80193  0.88678  0.63285  1.0000
  Hf  Hf33      1.0  0.05324  0.17449  0.41736  1.0000
  Hf  Hf34      1.0  0.05549  0.19401  0.90939  1.0000
  Hf  Hf35      1.0  0.05726  0.68512  0.41448  1.0000
  Hf  Hf36      1.0  0.05765  0.68063  0.91150  1.0000
  Hf  Hf37      1.0  0.30643  0.17668  0.41454  1.0000
  Hf  Hf38      1.0  0.30529  0.17970  0.91857  1.0000
  Hf  Hf39      1.0  0.30634  0.68193  0.41756  1.0000
  Hf  Hf40      1.0  0.30855  0.68566  0.90698  1.0000
  Hf  Hf41      1.0  0.55595  0.18770  0.42249  1.0000
  Hf  Hf42      1.0  0.55265  0.18749  0.91439  1.0000
  Hf  Hf43      1.0  0.55635  0.68404  0.41717  1.0000
  Hf  Hf44      1.0  0.55458  0.68469  0.92199  1.0000
  Hf  Hf45      1.0  0.80693  0.17927  0.41436  1.0000
  Hf  Hf46      1.0  0.80431  0.18007  0.91378  1.0000
  Hf  Hf47      1.0  0.81094  0.68438  0.41188  1.0000
  Hf  Hf48      1.0  0.80844  0.68422  0.91200  1.0000
  Hf  Hf49      1.0  0.15767  0.37779  0.33869  1.0000
  Hf  Hf50      1.0  0.16042  0.39072  0.82873  1.0000
  Hf  Hf51      1.0  0.15880  0.88964  0.33308  1.0000
  Hf  Hf52      1.0  0.16429  0.89285  0.82408  1.0000
  Hf  Hf53      1.0  0.40370  0.38596  0.34919  1.0000
  Hf  Hf54      1.0  0.40631  0.38859  0.84132  1.0000
  Hf  Hf55      1.0  0.40736  0.89445  0.32567  1.0000
  Hf  Hf56      1.0  0.40736  0.88693  0.82971  1.0000
  Hf  Hf57      1.0  0.65964  0.38299  0.33380  1.0000
  Hf  Hf58      1.0  0.65651  0.39431  0.82869  1.0000
  Hf  Hf59      1.0  0.65866  0.88666  0.32949  1.0000
  Hf  Hf60      1.0  0.66159  0.89021  0.83237  1.0000
  Hf  Hf61      1.0  0.90990  0.38834  0.33074  1.0000
  Hf  Hf62      1.0  0.90526  0.39145  0.83755  1.0000
  Hf  Hf63      1.0  0.90821  0.89302  0.32777  1.0000
  Hf  Hf64      1.0  0.90776  0.88820  0.83291  1.0000
  Hf  Hf65      1.0  0.19241  0.32327  0.09040  1.0000
  Hf  Hf66      1.0  0.19489  0.31655  0.58366  1.0000
  Hf  Hf67      1.0  0.19297  0.81522  0.08720  1.0000
  Hf  Hf68      1.0  0.19829  0.81384  0.58955  1.0000
  Hf  Hf69      1.0  0.44175  0.31279  0.08977  1.0000
  Hf  Hf70      1.0  0.44572  0.32888  0.58146  1.0000
  Hf  Hf71      1.0  0.44459  0.82737  0.07490  1.0000
  Hf  Hf72      1.0  0.44803  0.82240  0.57423  1.0000
  Hf  Hf73      1.0  0.69070  0.31722  0.08054  1.0000
  Hf  Hf74      1.0  0.69406  0.32019  0.58316  1.0000
  Hf  Hf75      1.0  0.69818  0.81895  0.08570  1.0000
  Hf  Hf76      1.0  0.69807  0.81623  0.57702  1.0000
  Hf  Hf77      1.0  0.93917  0.32050  0.09243  1.0000
  Hf  Hf78      1.0  0.94577  0.32291  0.57812  1.0000
  Hf  Hf79      1.0  0.94647  0.81552  0.07925  1.0000
  Hf  Hf80      1.0  0.94479  0.81367  0.57809  1.0000
  Hf  Hf81      1.0  0.08968  0.11214  0.16775  1.0000
  Hf  Hf82      1.0  0.09109  0.10596  0.67377  1.0000
  Hf  Hf83      1.0  0.09261  0.61535  0.16451  1.0000
  Hf  Hf84      1.0  0.09293  0.60943  0.66663  1.0000
  Hf  Hf85      1.0  0.33822  0.11398  0.16843  1.0000
  Hf  Hf86      1.0  0.33996  0.11355  0.66513  1.0000
  Hf  Hf87      1.0  0.34401  0.61392  0.16833  1.0000
  Hf  Hf88      1.0  0.34394  0.61384  0.66249  1.0000
  Hf  Hf89      1.0  0.58663  0.11166  0.17539  1.0000
  Hf  Hf90      1.0  0.59039  0.11283  0.67531  1.0000
  Hf  Hf91      1.0  0.59434  0.61672  0.15792  1.0000
  Hf  Hf92      1.0  0.59011  0.62058  0.66568  1.0000
  Hf  Hf93      1.0  0.84149  0.11372  0.15566  1.0000
  Hf  Hf94      1.0  0.84172  0.11206  0.66021  1.0000
  Hf  Hf95      1.0  0.84289  0.60866  0.16380  1.0000
  Hf  Hf96      1.0  0.84409  0.61023  0.66276  1.0000
  F   F1        1.0  0.08094  0.11906  0.29943  1.0000
  F   F2        1.0  0.07636  0.13093  0.79319  1.0000
  F   F3        1.0  0.08172  0.65117  0.28667  1.0000
  F   F4        1.0  0.07965  0.61954  0.80319  1.0000
  F   F5        1.0  0.33562  0.12643  0.30096  1.0000
  F   F6        1.0  0.33020  0.13514  0.79173  1.0000
  F   F7        1.0  0.33346  0.62462  0.31199  1.0000
  F   F8        1.0  0.32888  0.61991  0.80424  1.0000
  F   F9        1.0  0.57836  0.12851  0.30769  1.0000
  F   F10       1.0  0.57968  0.13744  0.80084  1.0000
  F   F11       1.0  0.59054  0.63832  0.29046  1.0000
  F   F12       1.0  0.57300  0.62976  0.81442  1.0000
  F   F13       1.0  0.82732  0.13061  0.29446  1.0000
  F   F14       1.0  0.82956  0.13196  0.79988  1.0000
  F   F15       1.0  0.82931  0.62739  0.30553  1.0000
  F   F16       1.0  0.83657  0.65392  0.77905  1.0000
  F   F17       1.0  0.18224  0.32355  0.45529  1.0000
  F   F18       1.0  0.18982  0.35240  0.93633  1.0000
  F   F19       1.0  0.18269  0.83092  0.44404  1.0000
  F   F20       1.0  0.18018  0.83894  0.95472  1.0000
  F   F21       1.0  0.43726  0.34244  0.45220  1.0000
  F   F22       1.0  0.43376  0.33678  0.95395  1.0000
  F   F23       1.0  0.42978  0.84477  0.44563  1.0000
  F   F24       1.0  0.43320  0.84565  0.94659  1.0000
  F   F25       1.0  0.68734  0.33940  0.44236  1.0000
  F   F26       1.0  0.68545  0.34394  0.94536  1.0000
  F   F27       1.0  0.68496  0.84732  0.44601  1.0000
  F   F28       1.0  0.68591  0.83910  0.96142  1.0000
  F   F29       1.0  0.93920  0.34053  0.44470  1.0000
  F   F30       1.0  0.92942  0.34379  0.95320  1.0000
  F   F31       1.0  0.93780  0.84883  0.44191  1.0000
  F   F32       1.0  0.93673  0.84338  0.94180  1.0000
  F   F33       1.0  0.16174  0.37100  0.20762  1.0000
  F   F34       1.0  0.17928  0.38460  0.68106  1.0000
  F   F35       1.0  0.16564  0.85334  0.20491  1.0000
  F   F36       1.0  0.17382  0.88027  0.68958  1.0000
  F   F37       1.0  0.41548  0.35696  0.21284  1.0000
  F   F38       1.0  0.42010  0.36889  0.70200  1.0000
  F   F39       1.0  0.41991  0.88121  0.18647  1.0000
  F   F40       1.0  0.42197  0.88290  0.68810  1.0000
  F   F41       1.0  0.66877  0.36248  0.21010  1.0000
  F   F42       1.0  0.67121  0.38499  0.68687  1.0000
  F   F43       1.0  0.67044  0.87867  0.19057  1.0000
  F   F44       1.0  0.66131  0.84999  0.70361  1.0000
  F   F45       1.0  0.91675  0.38817  0.18489  1.0000
  F   F46       1.0  0.92217  0.36652  0.70527  1.0000
  F   F47       1.0  0.91900  0.85401  0.20811  1.0000
  F   F48       1.0  0.92856  0.87268  0.69453  1.0000
  F   F49       1.0  0.06826  0.17442  0.04698  1.0000
  F   F50       1.0  0.06418  0.15408  0.56028  1.0000
  F   F51       1.0  0.06772  0.65216  0.05228  1.0000
  F   F52       1.0  0.06563  0.65640  0.55564  1.0000
  F   F53       1.0  0.30744  0.15301  0.06714  1.0000
  F   F54       1.0  0.31099  0.16446  0.55631  1.0000
  F   F55       1.0  0.31917  0.66561  0.04400  1.0000
  F   F56       1.0  0.31200  0.65475  0.56164  1.0000
  F   F57       1.0  0.56501  0.16212  0.05309  1.0000
  F   F58       1.0  0.56132  0.14916  0.56334  1.0000
  F   F59       1.0  0.55312  0.64690  0.07377  1.0000
  F   F60       1.0  0.56280  0.67090  0.55302  1.0000
  F   F61       1.0  0.82429  0.16405  0.03047  1.0000
  F   F62       1.0  0.81451  0.15669  0.54405  1.0000
  F   F63       1.0  0.83059  0.68089  0.03395  1.0000
  F   F64       1.0  0.82254  0.64861  0.55107  1.0000
  F   F65       1.0  0.20068  0.19758  0.22197  1.0000
  F   F66       1.0  0.19636  0.21128  0.71820  1.0000
  F   F67       1.0  0.20432  0.68622  0.20440  1.0000
  F   F68       1.0  0.20663  0.70432  0.71184  1.0000
  F   F69       1.0  0.45833  0.19879  0.22830  1.0000
  F   F70       1.0  0.45092  0.20476  0.71555  1.0000
  F   F71       1.0  0.45805  0.70360  0.20713  1.0000
  F   F72       1.0  0.46329  0.69561  0.70543  1.0000
  F   F73       1.0  0.69223  0.19503  0.23189  1.0000
  F   F74       1.0  0.70364  0.21059  0.71366  1.0000
  F   F75       1.0  0.70144  0.70545  0.21950  1.0000
  F   F76       1.0  0.70621  0.69308  0.71037  1.0000
  F   F77       1.0  0.94773  0.20844  0.21663  1.0000
  F   F78       1.0  0.94352  0.20655  0.71421  1.0000
  F   F79       1.0  0.96225  0.69280  0.21564  1.0000
  F   F80       1.0  0.95147  0.69487  0.71140  1.0000
  F   F81       1.0  0.15014  0.07808  0.03948  1.0000
  F   F82       1.0  0.15220  0.05732  0.53907  1.0000
  F   F83       1.0  0.15215  0.59120  0.03118  1.0000
  F   F84       1.0  0.15509  0.60051  0.52906  1.0000
  F   F85       1.0  0.39366  0.09112  0.03441  1.0000
  F   F86       1.0  0.39591  0.06944  0.54643  1.0000
  F   F87       1.0  0.39963  0.58481  0.03260  1.0000
  F   F88       1.0  0.40423  0.60740  0.53885  1.0000
  F   F89       1.0  0.65141  0.09867  0.03405  1.0000
  F   F90       1.0  0.64913  0.08599  0.55621  1.0000
  F   F91       1.0  0.64803  0.58842  0.02476  1.0000
  F   F92       1.0  0.64993  0.61018  0.54220  1.0000
  F   F93       1.0  0.89713  0.07716  0.04091  1.0000
  F   F94       1.0  0.89258  0.07123  0.54883  1.0000
  F   F95       1.0  0.89742  0.57015  0.05028  1.0000
  F   F96       1.0  0.90309  0.59345  0.54792  1.0000
  F   F97       1.0  0.14978  0.20160  0.13266  1.0000
  F   F98       1.0  0.15196  0.17794  0.62923  1.0000
  F   F99       1.0  0.15008  0.69739  0.12548  1.0000
  F   F100      1.0  0.15201  0.68953  0.63048  1.0000
  F   F101      1.0  0.40485  0.20023  0.12187  1.0000
  F   F102      1.0  0.39818  0.19584  0.61130  1.0000
  F   F103      1.0  0.39570  0.70856  0.12921  1.0000
  F   F104      1.0  0.40527  0.70801  0.63342  1.0000
  F   F105      1.0  0.64750  0.19763  0.13011  1.0000
  F   F106      1.0  0.64875  0.20087  0.63888  1.0000
  F   F107      1.0  0.65322  0.68792  0.11850  1.0000
  F   F108      1.0  0.64658  0.71152  0.62989  1.0000
  F   F109      1.0  0.89956  0.19838  0.11968  1.0000
  F   F110      1.0  0.90625  0.19003  0.60199  1.0000
  F   F111      1.0  0.90506  0.68603  0.13599  1.0000
  F   F112      1.0  0.90594  0.70120  0.61449  1.0000
  F   F113      1.0  0.09572  0.29045  0.38603  1.0000
  F   F114      1.0  0.09553  0.31867  0.86065  1.0000
  F   F115      1.0  0.10079  0.80300  0.38323  1.0000
  F   F116      1.0  0.10271  0.79595  0.87562  1.0000
  F   F117      1.0  0.34416  0.30605  0.38424  1.0000
  F   F118      1.0  0.34573  0.29696  0.88712  1.0000
  F   F119      1.0  0.34856  0.80022  0.36714  1.0000
  F   F120      1.0  0.34265  0.80794  0.87249  1.0000
  F   F121      1.0  0.59898  0.29975  0.37551  1.0000
  F   F122      1.0  0.59006  0.31645  0.86945  1.0000
  F   F123      1.0  0.60241  0.80129  0.36662  1.0000
  F   F124      1.0  0.60031  0.79063  0.90766  1.0000
  F   F125      1.0  0.85151  0.29633  0.36844  1.0000
  F   F126      1.0  0.84595  0.30739  0.89073  1.0000
  F   F127      1.0  0.84673  0.80301  0.37987  1.0000
  F   F128      1.0  0.85156  0.80899  0.85123  1.0000
  F   F129      1.0  0.05805  0.24957  0.15828  1.0000
  F   F130      1.0  0.05614  0.24720  0.65674  1.0000
  F   F131      1.0  0.06088  0.74978  0.13566  1.0000
  F   F132      1.0  0.06796  0.75637  0.64024  1.0000
  F   F133      1.0  0.31110  0.25604  0.14771  1.0000
  F   F134      1.0  0.31443  0.25503  0.64423  1.0000
  F   F135      1.0  0.31009  0.74056  0.15667  1.0000
  F   F136      1.0  0.32474  0.75350  0.63283  1.0000
  F   F137      1.0  0.55506  0.24439  0.17216  1.0000
  F   F138      1.0  0.56168  0.25389  0.63891  1.0000
  F   F139      1.0  0.56402  0.74863  0.13157  1.0000
  F   F140      1.0  0.55606  0.75409  0.65932  1.0000
  F   F141      1.0  0.81694  0.25621  0.12601  1.0000
  F   F142      1.0  0.81754  0.24582  0.64569  1.0000
  F   F143      1.0  0.81596  0.75203  0.14512  1.0000
  F   F144      1.0  0.81914  0.75700  0.62150  1.0000
  F   F145      1.0  0.12547  0.37106  0.10012  1.0000
  F   F146      1.0  0.12218  0.34314  0.63481  1.0000
  F   F147      1.0  0.11868  0.85937  0.11781  1.0000
  F   F148      1.0  0.12799  0.86525  0.61855  1.0000
  F   F149      1.0  0.37108  0.37032  0.12082  1.0000
  F   F150      1.0  0.37576  0.36837  0.61146  1.0000
  F   F151      1.0  0.37417  0.88738  0.10214  1.0000
  F   F152      1.0  0.37853  0.88694  0.59731  1.0000
  F   F153      1.0  0.62144  0.36393  0.12010  1.0000
  F   F154      1.0  0.62355  0.37068  0.60904  1.0000
  F   F155      1.0  0.62414  0.83946  0.13592  1.0000
  F   F156      1.0  0.62456  0.91434  0.57435  1.0000
  F   F157      1.0  0.87195  0.36175  0.11085  1.0000
  F   F158      1.0  0.87687  0.35399  0.61770  1.0000
  F   F159      1.0  0.87600  0.87145  0.10661  1.0000
  F   F160      1.0  0.87122  0.87656  0.60707  1.0000
  F   F161      1.0  0.18145  0.23128  0.37349  1.0000
  F   F162      1.0  0.18097  0.25433  0.86314  1.0000
  F   F163      1.0  0.18731  0.74744  0.33433  1.0000
  F   F164      1.0  0.19081  0.75444  0.85179  1.0000
  F   F165      1.0  0.42548  0.24502  0.37880  1.0000
  F   F166      1.0  0.42795  0.24479  0.87672  1.0000
  F   F167      1.0  0.43381  0.76068  0.34062  1.0000
  F   F168      1.0  0.43522  0.75422  0.85382  1.0000
  F   F169      1.0  0.68189  0.24120  0.36979  1.0000
  F   F170      1.0  0.68085  0.25606  0.86764  1.0000
  F   F171      1.0  0.68354  0.74483  0.35956  1.0000
  F   F172      1.0  0.68579  0.75033  0.85743  1.0000
  F   F173      1.0  0.92408  0.24209  0.38163  1.0000
  F   F174      1.0  0.93595  0.25585  0.85638  1.0000
  F   F175      1.0  0.93310  0.74966  0.36684  1.0000
  F   F176      1.0  0.93645  0.74214  0.85991  1.0000
  F   F177      1.0  0.12450  0.13194  0.38922  1.0000
  F   F178      1.0  0.12344  0.13794  0.88326  1.0000
  F   F179      1.0  0.12187  0.62358  0.40449  1.0000
  F   F180      1.0  0.13068  0.63012  0.87946  1.0000
  F   F181      1.0  0.37753  0.13674  0.38888  1.0000
  F   F182      1.0  0.37611  0.14390  0.87544  1.0000
  F   F183      1.0  0.37965  0.61623  0.41449  1.0000
  F   F184      1.0  0.38123  0.64862  0.86937  1.0000
  F   F185      1.0  0.62319  0.11898  0.40184  1.0000
  F   F186      1.0  0.62017  0.13345  0.90647  1.0000
  F   F187      1.0  0.62338  0.61886  0.41772  1.0000
  F   F188      1.0  0.62496  0.63422  0.88896  1.0000
  F   F189      1.0  0.87694  0.12246  0.38853  1.0000
  F   F190      1.0  0.87592  0.12749  0.88857  1.0000
  F   F191      1.0  0.87741  0.63317  0.38585  1.0000
  F   F192      1.0  0.87906  0.62457  0.89551  1.0000
  F   F193      1.0  0.00354  0.36872  0.08047  1.0000
  F   F194      1.0  0.01138  0.36067  0.56539  1.0000
  F   F195      1.0  0.00602  0.86143  0.06256  1.0000
  F   F196      1.0  0.00685  0.86037  0.57538  1.0000
  F   F197      1.0  0.25407  0.36650  0.08733  1.0000
  F   F198      1.0  0.26601  0.36297  0.55162  1.0000
  F   F199      1.0  0.25676  0.85113  0.07548  1.0000
  F   F200      1.0  0.26174  0.86025  0.58095  1.0000
  F   F201      1.0  0.50602  0.35112  0.09331  1.0000
  F   F202      1.0  0.50789  0.37995  0.56664  1.0000
  F   F203      1.0  0.50346  0.85797  0.08585  1.0000
  F   F204      1.0  0.50460  0.86749  0.58430  1.0000
  F   F205      1.0  0.75176  0.35626  0.07652  1.0000
  F   F206      1.0  0.76113  0.36364  0.56319  1.0000
  F   F207      1.0  0.76221  0.86624  0.06370  1.0000
  F   F208      1.0  0.75814  0.85345  0.58061  1.0000
  F   F209      1.0  0.07381  0.48339  0.16272  1.0000
  F   F210      1.0  0.07284  0.48199  0.66636  1.0000
  F   F211      1.0  0.06945  0.98293  0.16568  1.0000
  F   F212      1.0  0.06807  0.98689  0.66958  1.0000
  F   F213      1.0  0.31828  0.48174  0.18423  1.0000
  F   F214      1.0  0.31986  0.48239  0.67893  1.0000
  F   F215      1.0  0.31491  0.97940  0.18194  1.0000
  F   F216      1.0  0.31860  0.98411  0.67731  1.0000
  F   F217      1.0  0.56546  0.47879  0.18107  1.0000
  F   F218      1.0  0.56929  0.50037  0.66272  1.0000
  F   F219      1.0  0.57125  0.98222  0.16432  1.0000
  F   F220      1.0  0.57048  0.99224  0.68087  1.0000
  F   F221      1.0  0.81524  0.48719  0.17486  1.0000
  F   F222      1.0  0.81382  0.48028  0.68060  1.0000
  F   F223      1.0  0.81441  0.99217  0.17679  1.0000
  F   F224      1.0  0.81638  0.98786  0.67534  1.0000
  F   F225      1.0  0.24630  0.12318  0.43509  1.0000
  F   F226      1.0  0.23892  0.13420  0.92642  1.0000
  F   F227      1.0  0.24410  0.62850  0.41737  1.0000
  F   F228      1.0  0.24329  0.63788  0.92550  1.0000
  F   F229      1.0  0.49127  0.13564  0.43697  1.0000
  F   F230      1.0  0.48902  0.13773  0.93170  1.0000
  F   F231      1.0  0.50144  0.64548  0.40308  1.0000
  F   F232      1.0  0.49197  0.64419  0.92338  1.0000
  F   F233      1.0  0.74553  0.13714  0.42222  1.0000
  F   F234      1.0  0.74466  0.14188  0.90318  1.0000
  F   F235      1.0  0.74611  0.63619  0.42836  1.0000
  F   F236      1.0  0.74416  0.63032  0.92349  1.0000
  F   F237      1.0  0.99555  0.15888  0.38399  1.0000
  F   F238      1.0  0.99160  0.14372  0.92183  1.0000
  F   F239      1.0  0.98972  0.64810  0.42070  1.0000
  F   F240      1.0  0.99286  0.63077  0.92223  1.0000
  F   F241      1.0  0.17730  0.01265  0.33016  1.0000
  F   F242      1.0  0.17438  0.02416  0.82763  1.0000
  F   F243      1.0  0.18255  0.50691  0.32490  1.0000
  F   F244      1.0  0.18305  0.51587  0.81486  1.0000
  F   F245      1.0  0.42855  0.01515  0.32892  1.0000
  F   F246      1.0  0.42917  0.02426  0.82283  1.0000
  F   F247      1.0  0.43404  0.52225  0.31591  1.0000
  F   F248      1.0  0.42925  0.50808  0.83286  1.0000
  F   F249      1.0  0.68639  0.00768  0.32645  1.0000
  F   F250      1.0  0.67580  0.01459  0.83242  1.0000
  F   F251      1.0  0.68938  0.51490  0.31679  1.0000
  F   F252      1.0  0.68419  0.51449  0.81338  1.0000
  F   F253      1.0  0.93014  0.01845  0.31905  1.0000
  F   F254      1.0  0.92626  0.02442  0.81383  1.0000
  F   F255      1.0  0.92702  0.50787  0.33346  1.0000
  F   F256      1.0  0.92444  0.51700  0.82753  1.0000
  F   F257      1.0  0.99640  0.25851  0.00699  1.0000
  F   F258      1.0  0.99701  0.23262  0.50410  1.0000
  F   F259      1.0  0.99680  0.73674  0.99606  1.0000
  F   F260      1.0  0.00580  0.75914  0.49488  1.0000
  F   F261      1.0  0.24446  0.23939  0.01301  1.0000
  F   F262      1.0  0.24580  0.23982  0.50649  1.0000
  F   F263      1.0  0.24943  0.73995  0.99706  1.0000
  F   F264      1.0  0.25248  0.74487  0.50627  1.0000
  F   F265      1.0  0.49533  0.24306  0.01015  1.0000
  F   F266      1.0  0.50202  0.26454  0.49475  1.0000
  F   F267      1.0  0.50590  0.78705  0.96684  1.0000
  F   F268      1.0  0.50517  0.76411  0.48098  1.0000
  F   F269      1.0  0.74574  0.24055  0.00375  1.0000
  F   F270      1.0  0.74451  0.23533  0.51178  1.0000
  F   F271      1.0  0.74933  0.73224  0.01571  1.0000
  F   F272      1.0  0.75465  0.74879  0.50299  1.0000
  F   F273      1.0  0.12118  0.98779  0.25296  1.0000
  F   F274      1.0  0.12474  0.99930  0.74980  1.0000
  F   F275      1.0  0.11753  0.49915  0.27030  1.0000
  F   F276      1.0  0.11899  0.49183  0.75569  1.0000
  F   F277      1.0  0.37610  0.00474  0.23589  1.0000
  F   F278      1.0  0.37606  0.99910  0.75137  1.0000
  F   F279      1.0  0.38254  0.50811  0.23592  1.0000
  F   F280      1.0  0.39047  0.51708  0.72342  1.0000
  F   F281      1.0  0.62602  0.00367  0.24975  1.0000
  F   F282      1.0  0.62156  0.98658  0.76557  1.0000
  F   F283      1.0  0.63050  0.50155  0.24425  1.0000
  F   F284      1.0  0.61296  0.49628  0.76974  1.0000
  F   F285      1.0  0.88109  0.00914  0.23154  1.0000
  F   F286      1.0  0.87311  0.99931  0.75075  1.0000
  F   F287      1.0  0.87355  0.49795  0.24969  1.0000
  F   F288      1.0  0.87299  0.49902  0.75036  1.0000
  F   F289      1.0  0.03645  0.03420  0.03180  1.0000
  F   F290      1.0  0.03873  0.03255  0.51980  1.0000
  F   F291      1.0  0.04105  0.53046  0.01933  1.0000
  F   F292      1.0  0.03847  0.53223  0.51782  1.0000
  F   F293      1.0  0.29568  0.02580  0.01770  1.0000
  F   F294      1.0  0.30701  0.02436  0.51048  1.0000
  F   F295      1.0  0.30726  0.53078  0.01132  1.0000
  F   F296      1.0  0.28813  0.53433  0.53009  1.0000
  F   F297      1.0  0.54051  0.03828  0.01957  1.0000
  F   F298      1.0  0.54507  0.02015  0.51790  1.0000
  F   F299      1.0  0.53585  0.51804  0.01621  1.0000
  F   F300      1.0  0.53830  0.53905  0.52377  1.0000
  F   F301      1.0  0.79095  0.02991  0.03100  1.0000
  F   F302      1.0  0.79774  0.02210  0.52287  1.0000
  F   F303      1.0  0.78541  0.53891  0.04001  1.0000
  F   F304      1.0  0.80791  0.52086  0.50424  1.0000
  F   F305      1.0  0.23206  0.40466  0.23706  1.0000
  F   F306      1.0  0.23904  0.42584  0.72086  1.0000
  F   F307      1.0  0.22862  0.91536  0.22363  1.0000
  F   F308      1.0  0.23536  0.92201  0.73257  1.0000
  F   F309      1.0  0.47538  0.41519  0.23328  1.0000
  F   F310      1.0  0.48580  0.41373  0.73120  1.0000
  F   F311      1.0  0.48511  0.92566  0.21288  1.0000
  F   F312      1.0  0.48355  0.91061  0.74472  1.0000
  F   F313      1.0  0.73619  0.39280  0.23510  1.0000
  F   F314      1.0  0.73532  0.41173  0.71964  1.0000
  F   F315      1.0  0.73606  0.91598  0.20744  1.0000
  F   F316      1.0  0.73071  0.91879  0.72017  1.0000
  F   F317      1.0  0.98531  0.41530  0.23192  1.0000
  F   F318      1.0  0.98284  0.41552  0.72589  1.0000
  F   F319      1.0  0.98679  0.91212  0.22422  1.0000
  F   F320      1.0  0.98682  0.91289  0.72542  1.0000
  F   F321      1.0  0.19876  0.46851  0.47809  1.0000
  F   F322      1.0  0.21818  0.46968  0.96809  1.0000
  F   F323      1.0  0.21919  0.95208  0.46620  1.0000
  F   F324      1.0  0.20973  0.97608  0.97345  1.0000
  F   F325      1.0  0.45392  0.48195  0.47577  1.0000
  F   F326      1.0  0.45221  0.44978  0.99033  1.0000
  F   F327      1.0  0.46305  0.96853  0.46418  1.0000
  F   F328      1.0  0.46213  0.97590  0.97235  1.0000
  F   F329      1.0  0.70723  0.46225  0.48126  1.0000
  F   F330      1.0  0.70581  0.47013  0.97684  1.0000
  F   F331      1.0  0.70730  0.96298  0.48445  1.0000
  F   F332      1.0  0.71009  0.96791  0.97268  1.0000
  F   F333      1.0  0.95156  0.46897  0.48640  1.0000
  F   F334      1.0  0.96006  0.46099  0.96791  1.0000
  F   F335      1.0  0.96034  0.97318  0.48514  1.0000
  F   F336      1.0  0.95894  0.97117  0.96970  1.0000
  F   F337      1.0  0.01516  0.07979  0.25815  1.0000
  F   F338      1.0  0.00951  0.08898  0.76577  1.0000
  F   F339      1.0  0.02045  0.57209  0.27849  1.0000
  F   F340      1.0  0.01840  0.58043  0.76974  1.0000
  F   F341      1.0  0.26590  0.08808  0.28025  1.0000
  F   F342      1.0  0.26268  0.08995  0.76203  1.0000
  F   F343      1.0  0.26890  0.57429  0.27906  1.0000
  F   F344      1.0  0.26745  0.58473  0.76360  1.0000
  F   F345      1.0  0.51702  0.07002  0.28217  1.0000
  F   F346      1.0  0.51419  0.09251  0.77461  1.0000
  F   F347      1.0  0.52157  0.58420  0.26887  1.0000
  F   F348      1.0  0.51587  0.57226  0.79277  1.0000
  F   F349      1.0  0.76220  0.09565  0.27657  1.0000
  F   F350      1.0  0.76432  0.08605  0.76381  1.0000
  F   F351      1.0  0.76709  0.59042  0.27301  1.0000
  F   F352      1.0  0.76778  0.58587  0.77207  1.0000
  F   F353      1.0  0.10240  0.40286  0.46373  1.0000
  F   F354      1.0  0.10484  0.39890  0.96224  1.0000
  F   F355      1.0  0.09929  0.92472  0.46604  1.0000
  F   F356      1.0  0.10239  0.91775  0.95119  1.0000
  F   F357      1.0  0.34824  0.41958  0.46171  1.0000
  F   F358      1.0  0.34854  0.39479  0.96698  1.0000
  F   F359      1.0  0.34935  0.90320  0.45384  1.0000
  F   F360      1.0  0.34957  0.88873  0.96278  1.0000
  F   F361      1.0  0.60574  0.41126  0.45947  1.0000
  F   F362      1.0  0.60442  0.40047  0.97074  1.0000
  F   F363      1.0  0.59741  0.89101  0.45814  1.0000
  F   F364      1.0  0.59850  0.90323  0.97764  1.0000
  F   F365      1.0  0.85180  0.39524  0.46346  1.0000
  F   F366      1.0  0.84787  0.43055  0.96086  1.0000
  F   F367      1.0  0.85160  0.91158  0.44411  1.0000
  F   F368      1.0  0.84670  0.91132  0.95831  1.0000
  F   F369      1.0  0.04849  0.29763  0.29415  1.0000
  F   F370      1.0  0.03728  0.30817  0.79916  1.0000
  F   F371      1.0  0.04679  0.79859  0.29829  1.0000
  F   F372      1.0  0.04759  0.79755  0.79405  1.0000
  F   F373      1.0  0.29788  0.29537  0.28879  1.0000
  F   F374      1.0  0.29340  0.29573  0.79650  1.0000
  F   F375      1.0  0.29490  0.80066  0.28823  1.0000
  F   F376      1.0  0.30017  0.79976  0.77494  1.0000
  F   F377      1.0  0.54219  0.30072  0.30846  1.0000
  F   F378      1.0  0.54329  0.30373  0.78617  1.0000
  F   F379      1.0  0.54142  0.80146  0.28965  1.0000
  F   F380      1.0  0.55640  0.80328  0.78595  1.0000
  F   F381      1.0  0.79999  0.29184  0.29102  1.0000
  F   F382      1.0  0.79778  0.29949  0.78641  1.0000
  F   F383      1.0  0.80409  0.80046  0.28819  1.0000
  F   F384      1.0  0.78847  0.79438  0.79299  1.0000
