data_image0
_chemical_formula_structural       Hf96F384
_chemical_formula_sum              "Hf96 F384"
_cell_length_a       31.0281
_cell_length_b       15.511
_cell_length_c       15.502
_cell_angle_alpha    63.342
_cell_angle_beta     63.342
_cell_angle_gamma    80.1625

_space_group_name_H-M_alt    "P 1"
_space_group_IT_number       1

loop_
  _space_group_symop_operation_xyz
  'x, y, z'

loop_
  _atom_site_type_symbol
  _atom_site_label
  _atom_site_symmetry_multiplicity
  _atom_site_fract_x
  _atom_site_fract_y
  _atom_site_fract_z
  _atom_site_occupancy
  Hf  Hf1       1.0  0.19360  0.10569  0.37916  1.0000
  Hf  Hf2       1.0  0.19769  0.11473  0.87696  1.0000
  Hf  Hf3       1.0  0.19783  0.60955  0.36663  1.0000
  Hf  Hf4       1.0  0.19242  0.60262  0.89126  1.0000
  Hf  Hf5       1.0  0.44711  0.11342  0.36472  1.0000
  Hf  Hf6       1.0  0.44593  0.11446  0.86992  1.0000
  Hf  Hf7       1.0  0.45396  0.61254  0.36386  1.0000
  Hf  Hf8       1.0  0.44483  0.60236  0.87627  1.0000
  Hf  Hf9       1.0  0.69447  0.10378  0.38590  1.0000
  Hf  Hf10      1.0  0.69447  0.10736  0.87353  1.0000
  Hf  Hf11      1.0  0.69792  0.60098  0.37870  1.0000
  Hf  Hf12      1.0  0.69349  0.60877  0.87506  1.0000
  Hf  Hf13      1.0  0.94469  0.10642  0.37560  1.0000
  Hf  Hf14      1.0  0.94728  0.10832  0.86802  1.0000
  Hf  Hf15      1.0  0.94529  0.60612  0.37630  1.0000
  Hf  Hf16      1.0  0.94955  0.60690  0.87152  1.0000
  Hf  Hf17      1.0  0.05439  0.39013  0.12873  1.0000
  Hf  Hf18      1.0  0.05252  0.39178  0.62761  1.0000
  Hf  Hf19      1.0  0.05454  0.89154  0.12411  1.0000
  Hf  Hf20      1.0  0.05252  0.89469  0.63074  1.0000
  Hf  Hf21      1.0  0.30360  0.39145  0.13258  1.0000
  Hf  Hf22      1.0  0.30649  0.39226  0.62310  1.0000
  Hf  Hf23      1.0  0.30747  0.89483  0.11201  1.0000
  Hf  Hf24      1.0  0.30512  0.88718  0.62343  1.0000
  Hf  Hf25      1.0  0.55317  0.38835  0.12765  1.0000
  Hf  Hf26      1.0  0.55300  0.39458  0.62388  1.0000
  Hf  Hf27      1.0  0.55420  0.89333  0.12781  1.0000
  Hf  Hf28      1.0  0.55666  0.90618  0.61425  1.0000
  Hf  Hf29      1.0  0.80500  0.39642  0.12135  1.0000
  Hf  Hf30      1.0  0.80706  0.39425  0.62177  1.0000
  Hf  Hf31      1.0  0.80462  0.89728  0.11912  1.0000
  Hf  Hf32      1.0  0.80489  0.89095  0.62532  1.0000
  Hf  Hf33      1.0  0.05287  0.17745  0.42423  1.0000
  Hf  Hf34      1.0  0.05385  0.18429  0.92208  1.0000
  Hf  Hf35      1.0  0.05536  0.68547  0.41553  1.0000
  Hf  Hf36      1.0  0.05748  0.68677  0.91698  1.0000
  Hf  Hf37      1.0  0.30650  0.18587  0.41643  1.0000
  Hf  Hf38      1.0  0.30395  0.18940  0.91299  1.0000
  Hf  Hf39      1.0  0.30889  0.68095  0.41352  1.0000
  Hf  Hf40      1.0  0.30270  0.67864  0.92172  1.0000
  Hf  Hf41      1.0  0.55838  0.18490  0.40847  1.0000
  Hf  Hf42      1.0  0.55564  0.18250  0.91622  1.0000
  Hf  Hf43      1.0  0.55982  0.68114  0.41263  1.0000
  Hf  Hf44      1.0  0.55245  0.67526  0.92102  1.0000
  Hf  Hf45      1.0  0.80648  0.17723  0.41846  1.0000
  Hf  Hf46      1.0  0.80620  0.18383  0.91492  1.0000
  Hf  Hf47      1.0  0.80575  0.68741  0.41355  1.0000
  Hf  Hf48      1.0  0.80628  0.68073  0.91118  1.0000
  Hf  Hf49      1.0  0.15896  0.38623  0.33513  1.0000
  Hf  Hf50      1.0  0.15709  0.39121  0.83740  1.0000
  Hf  Hf51      1.0  0.15535  0.89406  0.33415  1.0000
  Hf  Hf52      1.0  0.15760  0.88990  0.83453  1.0000
  Hf  Hf53      1.0  0.40674  0.38971  0.33347  1.0000
  Hf  Hf54      1.0  0.40813  0.38180  0.83874  1.0000
  Hf  Hf55      1.0  0.40898  0.89015  0.33475  1.0000
  Hf  Hf56      1.0  0.41058  0.88612  0.83168  1.0000
  Hf  Hf57      1.0  0.65694  0.38497  0.33410  1.0000
  Hf  Hf58      1.0  0.65916  0.38956  0.82967  1.0000
  Hf  Hf59      1.0  0.65764  0.89173  0.33193  1.0000
  Hf  Hf60      1.0  0.65877  0.89000  0.83036  1.0000
  Hf  Hf61      1.0  0.90915  0.38983  0.33378  1.0000
  Hf  Hf62      1.0  0.91005  0.38699  0.83378  1.0000
  Hf  Hf63      1.0  0.90801  0.88606  0.33231  1.0000
  Hf  Hf64      1.0  0.91001  0.88571  0.82940  1.0000
  Hf  Hf65      1.0  0.19216  0.30636  0.09105  1.0000
  Hf  Hf66      1.0  0.19482  0.32092  0.58175  1.0000
  Hf  Hf67      1.0  0.19220  0.81254  0.08656  1.0000
  Hf  Hf68      1.0  0.19392  0.82175  0.58678  1.0000
  Hf  Hf69      1.0  0.44252  0.31245  0.08708  1.0000
  Hf  Hf70      1.0  0.44703  0.32643  0.57418  1.0000
  Hf  Hf71      1.0  0.44580  0.81405  0.08565  1.0000
  Hf  Hf72      1.0  0.45038  0.82590  0.57418  1.0000
  Hf  Hf73      1.0  0.69644  0.31833  0.08186  1.0000
  Hf  Hf74      1.0  0.69410  0.30626  0.58756  1.0000
  Hf  Hf75      1.0  0.70011  0.81481  0.07891  1.0000
  Hf  Hf76      1.0  0.69555  0.81348  0.58426  1.0000
  Hf  Hf77      1.0  0.94451  0.31785  0.08421  1.0000
  Hf  Hf78      1.0  0.94212  0.31648  0.58360  1.0000
  Hf  Hf79      1.0  0.94212  0.81205  0.08911  1.0000
  Hf  Hf80      1.0  0.94395  0.82187  0.57904  1.0000
  Hf  Hf81      1.0  0.09167  0.11426  0.16692  1.0000
  Hf  Hf82      1.0  0.09087  0.11884  0.66697  1.0000
  Hf  Hf83      1.0  0.08967  0.61276  0.17095  1.0000
  Hf  Hf84      1.0  0.09440  0.61245  0.66257  1.0000
  Hf  Hf85      1.0  0.33621  0.11169  0.17147  1.0000
  Hf  Hf86      1.0  0.33897  0.10855  0.66734  1.0000
  Hf  Hf87      1.0  0.34084  0.60732  0.16961  1.0000
  Hf  Hf88      1.0  0.33878  0.60841  0.67342  1.0000
  Hf  Hf89      1.0  0.59140  0.11696  0.16005  1.0000
  Hf  Hf90      1.0  0.59032  0.11503  0.66614  1.0000
  Hf  Hf91      1.0  0.59284  0.61821  0.15784  1.0000
  Hf  Hf92      1.0  0.58968  0.61566  0.66791  1.0000
  Hf  Hf93      1.0  0.83896  0.11581  0.16681  1.0000
  Hf  Hf94      1.0  0.84291  0.11070  0.66571  1.0000
  Hf  Hf95      1.0  0.83899  0.60784  0.16910  1.0000
  Hf  Hf96      1.0  0.84401  0.61044  0.66067  1.0000
  F   F1        1.0  0.07148  0.12172  0.31367  1.0000
  F   F2        1.0  0.07262  0.12488  0.81619  1.0000
  F   F3        1.0  0.07739  0.62418  0.30881  1.0000
  F   F4        1.0  0.08419  0.65611  0.79073  1.0000
  F   F5        1.0  0.32147  0.12861  0.31631  1.0000
  F   F6        1.0  0.33355  0.14100  0.79861  1.0000
  F   F7        1.0  0.33066  0.63526  0.28789  1.0000
  F   F8        1.0  0.33023  0.63735  0.79914  1.0000
  F   F9        1.0  0.58218  0.12552  0.30332  1.0000
  F   F10       1.0  0.57448  0.11946  0.81178  1.0000
  F   F11       1.0  0.58460  0.63138  0.30275  1.0000
  F   F12       1.0  0.57361  0.61971  0.80738  1.0000
  F   F13       1.0  0.83283  0.12276  0.30134  1.0000
  F   F14       1.0  0.83111  0.12221  0.80829  1.0000
  F   F15       1.0  0.82618  0.62207  0.30771  1.0000
  F   F16       1.0  0.82834  0.63206  0.80057  1.0000
  F   F17       1.0  0.18372  0.33097  0.44964  1.0000
  F   F18       1.0  0.18106  0.32336  0.95392  1.0000
  F   F19       1.0  0.19038  0.84993  0.43668  1.0000
  F   F20       1.0  0.18529  0.84543  0.94923  1.0000
  F   F21       1.0  0.44044  0.34227  0.44216  1.0000
  F   F22       1.0  0.44306  0.33913  0.93695  1.0000
  F   F23       1.0  0.43519  0.84964  0.44086  1.0000
  F   F24       1.0  0.45004  0.85343  0.93721  1.0000
  F   F25       1.0  0.68895  0.34516  0.44146  1.0000
  F   F26       1.0  0.68117  0.33963  0.94362  1.0000
  F   F27       1.0  0.68768  0.84325  0.43542  1.0000
  F   F28       1.0  0.69478  0.85081  0.93155  1.0000
  F   F29       1.0  0.92671  0.32864  0.46320  1.0000
  F   F30       1.0  0.94237  0.34958  0.93419  1.0000
  F   F31       1.0  0.93075  0.83889  0.44882  1.0000
  F   F32       1.0  0.93678  0.83715  0.94527  1.0000
  F   F33       1.0  0.16592  0.36157  0.20809  1.0000
  F   F34       1.0  0.17193  0.39213  0.69366  1.0000
  F   F35       1.0  0.17128  0.86777  0.19507  1.0000
  F   F36       1.0  0.16960  0.87067  0.70006  1.0000
  F   F37       1.0  0.41561  0.35800  0.20619  1.0000
  F   F38       1.0  0.41925  0.38655  0.69265  1.0000
  F   F39       1.0  0.42409  0.86931  0.19840  1.0000
  F   F40       1.0  0.42133  0.87801  0.69175  1.0000
  F   F41       1.0  0.67490  0.38603  0.19119  1.0000
  F   F42       1.0  0.66374  0.34714  0.70951  1.0000
  F   F43       1.0  0.66911  0.86339  0.19765  1.0000
  F   F44       1.0  0.66784  0.86549  0.69623  1.0000
  F   F45       1.0  0.91793  0.38182  0.19543  1.0000
  F   F46       1.0  0.92210  0.37622  0.69263  1.0000
  F   F47       1.0  0.91878  0.85030  0.21017  1.0000
  F   F48       1.0  0.91996  0.87175  0.69170  1.0000
  F   F49       1.0  0.05948  0.15142  0.06204  1.0000
  F   F50       1.0  0.05608  0.16378  0.56210  1.0000
  F   F51       1.0  0.06247  0.65408  0.06271  1.0000
  F   F52       1.0  0.06420  0.66347  0.55718  1.0000
  F   F53       1.0  0.30252  0.14899  0.06487  1.0000
  F   F54       1.0  0.31880  0.15023  0.55311  1.0000
  F   F55       1.0  0.31902  0.65646  0.05184  1.0000
  F   F56       1.0  0.31674  0.65906  0.55301  1.0000
  F   F57       1.0  0.55866  0.16257  0.06039  1.0000
  F   F58       1.0  0.56805  0.16256  0.54002  1.0000
  F   F59       1.0  0.55906  0.65821  0.06118  1.0000
  F   F60       1.0  0.56965  0.66309  0.55273  1.0000
  F   F61       1.0  0.81611  0.16111  0.04102  1.0000
  F   F62       1.0  0.81427  0.15443  0.55563  1.0000
  F   F63       1.0  0.81398  0.65421  0.06125  1.0000
  F   F64       1.0  0.82264  0.66068  0.54161  1.0000
  F   F65       1.0  0.20827  0.19614  0.21006  1.0000
  F   F66       1.0  0.20124  0.19867  0.72580  1.0000
  F   F67       1.0  0.20793  0.70897  0.21088  1.0000
  F   F68       1.0  0.19764  0.69848  0.72848  1.0000
  F   F69       1.0  0.45892  0.19860  0.20558  1.0000
  F   F70       1.0  0.44911  0.20349  0.70678  1.0000
  F   F71       1.0  0.46098  0.69216  0.20186  1.0000
  F   F72       1.0  0.44607  0.71213  0.70877  1.0000
  F   F73       1.0  0.69347  0.20313  0.22786  1.0000
  F   F74       1.0  0.70855  0.18890  0.69238  1.0000
  F   F75       1.0  0.70948  0.69842  0.21474  1.0000
  F   F76       1.0  0.70531  0.70458  0.70975  1.0000
  F   F77       1.0  0.95501  0.20237  0.20581  1.0000
  F   F78       1.0  0.96320  0.20191  0.71153  1.0000
  F   F79       1.0  0.96032  0.68911  0.21068  1.0000
  F   F80       1.0  0.95721  0.70938  0.70623  1.0000
  F   F81       1.0  0.14574  0.10412  0.03407  1.0000
  F   F82       1.0  0.14335  0.09810  0.54223  1.0000
  F   F83       1.0  0.15255  0.58696  0.04249  1.0000
  F   F84       1.0  0.15275  0.58473  0.53592  1.0000
  F   F85       1.0  0.39883  0.11423  0.04088  1.0000
  F   F86       1.0  0.40159  0.08304  0.52076  1.0000
  F   F87       1.0  0.40053  0.59785  0.03714  1.0000
  F   F88       1.0  0.40511  0.57163  0.51764  1.0000
  F   F89       1.0  0.64663  0.09996  0.03102  1.0000
  F   F90       1.0  0.65272  0.09329  0.53940  1.0000
  F   F91       1.0  0.64827  0.58294  0.04048  1.0000
  F   F92       1.0  0.64995  0.59765  0.54287  1.0000
  F   F93       1.0  0.89561  0.09245  0.03726  1.0000
  F   F94       1.0  0.90113  0.08585  0.54073  1.0000
  F   F95       1.0  0.90471  0.59046  0.04492  1.0000
  F   F96       1.0  0.90001  0.58244  0.53013  1.0000
  F   F97       1.0  0.15347  0.18164  0.14017  1.0000
  F   F98       1.0  0.15064  0.19785  0.63525  1.0000
  F   F99       1.0  0.15154  0.69768  0.12473  1.0000
  F   F100      1.0  0.15583  0.70095  0.61557  1.0000
  F   F101      1.0  0.40012  0.19750  0.14169  1.0000
  F   F102      1.0  0.39917  0.19510  0.59470  1.0000
  F   F103      1.0  0.40250  0.69356  0.12219  1.0000
  F   F104      1.0  0.40211  0.68052  0.60624  1.0000
  F   F105      1.0  0.65518  0.18594  0.11997  1.0000
  F   F106      1.0  0.64068  0.20306  0.63236  1.0000
  F   F107      1.0  0.65293  0.69659  0.11653  1.0000
  F   F108      1.0  0.64991  0.69992  0.62904  1.0000
  F   F109      1.0  0.89711  0.20730  0.11820  1.0000
  F   F110      1.0  0.89967  0.19433  0.63992  1.0000
  F   F111      1.0  0.90184  0.70112  0.13634  1.0000
  F   F112      1.0  0.90150  0.69361  0.61246  1.0000
  F   F113      1.0  0.08704  0.30201  0.37837  1.0000
  F   F114      1.0  0.10011  0.31543  0.87663  1.0000
  F   F115      1.0  0.09522  0.81746  0.36605  1.0000
  F   F116      1.0  0.09985  0.80638  0.87730  1.0000
  F   F117      1.0  0.34319  0.30836  0.38942  1.0000
  F   F118      1.0  0.35024  0.29019  0.88179  1.0000
  F   F119      1.0  0.35111  0.80771  0.38416  1.0000
  F   F120      1.0  0.35168  0.78619  0.87217  1.0000
  F   F121      1.0  0.59753  0.30540  0.36056  1.0000
  F   F122      1.0  0.59976  0.30876  0.89057  1.0000
  F   F123      1.0  0.59848  0.80490  0.37516  1.0000
  F   F124      1.0  0.59926  0.80491  0.88707  1.0000
  F   F125      1.0  0.84457  0.29804  0.38612  1.0000
  F   F126      1.0  0.85117  0.31475  0.84831  1.0000
  F   F127      1.0  0.84714  0.81156  0.36950  1.0000
  F   F128      1.0  0.84600  0.79310  0.88654  1.0000
  F   F129      1.0  0.06670  0.24836  0.14261  1.0000
  F   F130      1.0  0.06447  0.25370  0.65568  1.0000
  F   F131      1.0  0.05898  0.75463  0.14089  1.0000
  F   F132      1.0  0.06137  0.76097  0.64578  1.0000
  F   F133      1.0  0.30923  0.24544  0.15707  1.0000
  F   F134      1.0  0.30861  0.24769  0.64248  1.0000
  F   F135      1.0  0.31311  0.75550  0.14741  1.0000
  F   F136      1.0  0.30701  0.74573  0.64925  1.0000
  F   F137      1.0  0.56425  0.25081  0.14942  1.0000
  F   F138      1.0  0.55015  0.25023  0.65602  1.0000
  F   F139      1.0  0.56730  0.74597  0.14372  1.0000
  F   F140      1.0  0.56584  0.75675  0.65183  1.0000
  F   F141      1.0  0.81267  0.24650  0.14155  1.0000
  F   F142      1.0  0.82648  0.25664  0.62899  1.0000
  F   F143      1.0  0.81095  0.75521  0.14384  1.0000
  F   F144      1.0  0.81357  0.74481  0.64888  1.0000
  F   F145      1.0  0.12611  0.37791  0.10165  1.0000
  F   F146      1.0  0.12501  0.36869  0.60855  1.0000
  F   F147      1.0  0.12407  0.87154  0.10439  1.0000
  F   F148      1.0  0.13005  0.88526  0.59116  1.0000
  F   F149      1.0  0.37691  0.37510  0.09520  1.0000
  F   F150      1.0  0.37531  0.34587  0.62266  1.0000
  F   F151      1.0  0.37807  0.87129  0.11214  1.0000
  F   F152      1.0  0.37688  0.84742  0.61450  1.0000
  F   F153      1.0  0.62733  0.35146  0.11439  1.0000
  F   F154      1.0  0.62360  0.37990  0.60007  1.0000
  F   F155      1.0  0.62412  0.87949  0.10209  1.0000
  F   F156      1.0  0.62406  0.86483  0.61031  1.0000
  F   F157      1.0  0.87382  0.37428  0.09775  1.0000
  F   F158      1.0  0.87803  0.37990  0.59674  1.0000
  F   F159      1.0  0.87447  0.86587  0.11063  1.0000
  F   F160      1.0  0.86940  0.84586  0.62447  1.0000
  F   F161      1.0  0.17768  0.24041  0.36455  1.0000
  F   F162      1.0  0.19315  0.25733  0.84272  1.0000
  F   F163      1.0  0.17276  0.74771  0.37029  1.0000
  F   F164      1.0  0.18945  0.75816  0.85431  1.0000
  F   F165      1.0  0.44009  0.25431  0.34447  1.0000
  F   F166      1.0  0.44153  0.25316  0.83929  1.0000
  F   F167      1.0  0.43829  0.74658  0.35650  1.0000
  F   F168      1.0  0.43624  0.74891  0.86449  1.0000
  F   F169      1.0  0.67556  0.24091  0.38044  1.0000
  F   F170      1.0  0.69721  0.24594  0.83547  1.0000
  F   F171      1.0  0.68136  0.74655  0.36507  1.0000
  F   F172      1.0  0.68264  0.74215  0.86646  1.0000
  F   F173      1.0  0.92965  0.25557  0.35052  1.0000
  F   F174      1.0  0.93475  0.25437  0.85246  1.0000
  F   F175      1.0  0.94287  0.74673  0.35187  1.0000
  F   F176      1.0  0.93235  0.75535  0.85522  1.0000
  F   F177      1.0  0.12182  0.11363  0.40760  1.0000
  F   F178      1.0  0.12384  0.15029  0.87963  1.0000
  F   F179      1.0  0.12485  0.63706  0.38362  1.0000
  F   F180      1.0  0.12125  0.62827  0.90823  1.0000
  F   F181      1.0  0.37816  0.14101  0.37024  1.0000
  F   F182      1.0  0.37555  0.11673  0.90756  1.0000
  F   F183      1.0  0.37687  0.64347  0.36887  1.0000
  F   F184      1.0  0.37778  0.62644  0.88481  1.0000
  F   F185      1.0  0.62448  0.10341  0.40757  1.0000
  F   F186      1.0  0.62809  0.15337  0.86944  1.0000
  F   F187      1.0  0.62521  0.62436  0.39904  1.0000
  F   F188      1.0  0.62283  0.63792  0.88772  1.0000
  F   F189      1.0  0.87623  0.12492  0.38715  1.0000
  F   F190      1.0  0.87544  0.14318  0.88525  1.0000
  F   F191      1.0  0.87452  0.63722  0.38625  1.0000
  F   F192      1.0  0.87532  0.62365  0.90143  1.0000
  F   F193      1.0  0.00240  0.34681  0.10107  1.0000
  F   F194      1.0  0.00704  0.35350  0.58450  1.0000
  F   F195      1.0  0.00670  0.87220  0.06597  1.0000
  F   F196      1.0  0.00464  0.87496  0.56860  1.0000
  F   F197      1.0  0.25107  0.37165  0.08567  1.0000
  F   F198      1.0  0.25509  0.36673  0.58535  1.0000
  F   F199      1.0  0.25715  0.85906  0.07397  1.0000
  F   F200      1.0  0.25860  0.86768  0.55920  1.0000
  F   F201      1.0  0.50307  0.37145  0.07574  1.0000
  F   F202      1.0  0.50363  0.37133  0.58362  1.0000
  F   F203      1.0  0.50728  0.86712  0.07556  1.0000
  F   F204      1.0  0.51298  0.86424  0.56483  1.0000
  F   F205      1.0  0.75267  0.36329  0.09479  1.0000
  F   F206      1.0  0.75567  0.34377  0.57603  1.0000
  F   F207      1.0  0.75527  0.86667  0.06491  1.0000
  F   F208      1.0  0.76034  0.85318  0.56705  1.0000
  F   F209      1.0  0.07297  0.48800  0.16646  1.0000
  F   F210      1.0  0.07300  0.48915  0.66550  1.0000
  F   F211      1.0  0.06869  0.98280  0.18121  1.0000
  F   F212      1.0  0.07036  0.98940  0.67746  1.0000
  F   F213      1.0  0.32276  0.48800  0.16621  1.0000
  F   F214      1.0  0.32135  0.48811  0.66102  1.0000
  F   F215      1.0  0.31889  0.99282  0.17717  1.0000
  F   F216      1.0  0.32050  0.97479  0.67796  1.0000
  F   F217      1.0  0.57278  0.48062  0.17077  1.0000
  F   F218      1.0  0.56781  0.48728  0.68335  1.0000
  F   F219      1.0  0.56919  0.98661  0.17316  1.0000
  F   F220      1.0  0.57017  0.99504  0.66984  1.0000
  F   F221      1.0  0.82542  0.48787  0.17249  1.0000
  F   F222      1.0  0.81938  0.48162  0.67188  1.0000
  F   F223      1.0  0.82315  0.97758  0.17825  1.0000
  F   F224      1.0  0.81333  0.98096  0.67941  1.0000
  F   F225      1.0  0.23887  0.15049  0.42928  1.0000
  F   F226      1.0  0.23798  0.14228  0.93704  1.0000
  F   F227      1.0  0.24035  0.63864  0.41912  1.0000
  F   F228      1.0  0.24241  0.62044  0.93662  1.0000
  F   F229      1.0  0.48981  0.13799  0.42707  1.0000
  F   F230      1.0  0.49384  0.15389  0.91256  1.0000
  F   F231      1.0  0.49939  0.63525  0.41552  1.0000
  F   F232      1.0  0.49170  0.62798  0.93151  1.0000
  F   F233      1.0  0.74756  0.13476  0.42037  1.0000
  F   F234      1.0  0.74144  0.12653  0.93637  1.0000
  F   F235      1.0  0.73901  0.62997  0.43698  1.0000
  F   F236      1.0  0.74634  0.63858  0.91395  1.0000
  F   F237      1.0  0.99258  0.13741  0.42572  1.0000
  F   F238      1.0  0.98560  0.13979  0.93545  1.0000
  F   F239      1.0  0.99406  0.64162  0.42229  1.0000
  F   F240      1.0  0.99578  0.64907  0.90850  1.0000
  F   F241      1.0  0.18038  0.01670  0.32272  1.0000
  F   F242      1.0  0.17483  0.01326  0.83033  1.0000
  F   F243      1.0  0.18104  0.51514  0.31063  1.0000
  F   F244      1.0  0.17797  0.51528  0.83547  1.0000
  F   F245      1.0  0.43020  0.01290  0.32978  1.0000
  F   F246      1.0  0.42892  0.01029  0.82643  1.0000
  F   F247      1.0  0.42709  0.51917  0.33073  1.0000
  F   F248      1.0  0.43243  0.51174  0.82397  1.0000
  F   F249      1.0  0.68426  0.00922  0.32545  1.0000
  F   F250      1.0  0.67630  0.01455  0.83510  1.0000
  F   F251      1.0  0.67764  0.51401  0.32600  1.0000
  F   F252      1.0  0.67566  0.51329  0.83535  1.0000
  F   F253      1.0  0.93196  0.01363  0.32705  1.0000
  F   F254      1.0  0.93032  0.01201  0.81115  1.0000
  F   F255      1.0  0.92528  0.50933  0.34734  1.0000
  F   F256      1.0  0.92790  0.51185  0.83390  1.0000
  F   F257      1.0  0.00346  0.25312  0.00763  1.0000
  F   F258      1.0  0.99440  0.26028  0.49795  1.0000
  F   F259      1.0  0.00400  0.75816  0.99917  1.0000
  F   F260      1.0  0.99803  0.74722  0.50350  1.0000
  F   F261      1.0  0.25198  0.26410  0.99371  1.0000
  F   F262      1.0  0.24918  0.23960  0.51754  1.0000
  F   F263      1.0  0.24823  0.73789  0.00337  1.0000
  F   F264      1.0  0.24818  0.73971  0.50945  1.0000
  F   F265      1.0  0.50197  0.25081  0.99432  1.0000
  F   F266      1.0  0.50104  0.24710  0.50079  1.0000
  F   F267      1.0  0.49508  0.72694  0.01647  1.0000
  F   F268      1.0  0.50090  0.73405  0.51448  1.0000
  F   F269      1.0  0.75143  0.25348  0.00232  1.0000
  F   F270      1.0  0.75022  0.24143  0.49164  1.0000
  F   F271      1.0  0.74534  0.72913  0.01452  1.0000
  F   F272      1.0  0.75001  0.72525  0.51435  1.0000
  F   F273      1.0  0.12520  0.00460  0.24648  1.0000
  F   F274      1.0  0.11909  0.99412  0.75300  1.0000
  F   F275      1.0  0.12686  0.49455  0.25316  1.0000
  F   F276      1.0  0.11516  0.50761  0.77280  1.0000
  F   F277      1.0  0.37382  0.00921  0.24929  1.0000
  F   F278      1.0  0.37230  0.00456  0.75892  1.0000
  F   F279      1.0  0.37871  0.50124  0.24462  1.0000
  F   F280      1.0  0.36445  0.48614  0.77471  1.0000
  F   F281      1.0  0.62985  0.00484  0.23804  1.0000
  F   F282      1.0  0.63200  0.00195  0.73586  1.0000
  F   F283      1.0  0.62246  0.49536  0.25625  1.0000
  F   F284      1.0  0.62951  0.49468  0.74288  1.0000
  F   F285      1.0  0.87694  0.99740  0.24774  1.0000
  F   F286      1.0  0.86800  0.98875  0.75283  1.0000
  F   F287      1.0  0.88413  0.51567  0.24230  1.0000
  F   F288      1.0  0.87476  0.50115  0.75147  1.0000
  F   F289      1.0  0.03945  0.03535  0.02892  1.0000
  F   F290      1.0  0.04273  0.02591  0.52837  1.0000
  F   F291      1.0  0.03081  0.53980  0.03090  1.0000
  F   F292      1.0  0.03699  0.53410  0.52513  1.0000
  F   F293      1.0  0.29321  0.02733  0.00945  1.0000
  F   F294      1.0  0.29481  0.03499  0.52253  1.0000
  F   F295      1.0  0.29110  0.52626  0.02914  1.0000
  F   F296      1.0  0.29133  0.52861  0.51060  1.0000
  F   F297      1.0  0.54345  0.04079  0.01676  1.0000
  F   F298      1.0  0.53865  0.03801  0.52125  1.0000
  F   F299      1.0  0.53971  0.53008  0.02246  1.0000
  F   F300      1.0  0.54325  0.53662  0.51020  1.0000
  F   F301      1.0  0.79559  0.02750  0.01782  1.0000
  F   F302      1.0  0.78554  0.02724  0.53365  1.0000
  F   F303      1.0  0.80051  0.52982  0.01485  1.0000
  F   F304      1.0  0.79200  0.53004  0.52660  1.0000
  F   F305      1.0  0.23639  0.39432  0.24446  1.0000
  F   F306      1.0  0.24225  0.41198  0.73545  1.0000
  F   F307      1.0  0.23832  0.90736  0.22118  1.0000
  F   F308      1.0  0.23804  0.92417  0.72682  1.0000
  F   F309      1.0  0.47750  0.42640  0.22995  1.0000
  F   F310      1.0  0.48688  0.40762  0.73532  1.0000
  F   F311      1.0  0.48434  0.90936  0.24112  1.0000
  F   F312      1.0  0.48808  0.91395  0.72477  1.0000
  F   F313      1.0  0.73797  0.40759  0.23151  1.0000
  F   F314      1.0  0.73632  0.42055  0.71543  1.0000
  F   F315      1.0  0.73533  0.92484  0.21439  1.0000
  F   F316      1.0  0.72987  0.90755  0.72981  1.0000
  F   F317      1.0  0.98631  0.41536  0.23334  1.0000
  F   F318      1.0  0.98779  0.41950  0.72645  1.0000
  F   F319      1.0  0.98587  0.91998  0.22805  1.0000
  F   F320      1.0  0.98571  0.90580  0.72249  1.0000
  F   F321      1.0  0.20222  0.46320  0.47862  1.0000
  F   F322      1.0  0.20520  0.45964  0.98908  1.0000
  F   F323      1.0  0.20232  0.97378  0.48156  1.0000
  F   F324      1.0  0.20018  0.97471  0.98919  1.0000
  F   F325      1.0  0.46765  0.46111  0.46577  1.0000
  F   F326      1.0  0.45590  0.47095  0.97451  1.0000
  F   F327      1.0  0.46163  0.96505  0.47167  1.0000
  F   F328      1.0  0.45425  0.98125  0.98194  1.0000
  F   F329      1.0  0.70332  0.46169  0.48539  1.0000
  F   F330      1.0  0.70816  0.46261  0.97623  1.0000
  F   F331      1.0  0.69696  0.97061  0.49293  1.0000
  F   F332      1.0  0.70489  0.97541  0.98330  1.0000
  F   F333      1.0  0.96425  0.45482  0.47732  1.0000
  F   F334      1.0  0.96133  0.47148  0.97945  1.0000
  F   F335      1.0  0.95496  0.96211  0.47677  1.0000
  F   F336      1.0  0.95103  0.97464  0.97518  1.0000
  F   F337      1.0  0.01352  0.09576  0.27506  1.0000
  F   F338      1.0  0.01091  0.06966  0.78978  1.0000
  F   F339      1.0  0.02035  0.57594  0.27124  1.0000
  F   F340      1.0  0.02022  0.58254  0.77386  1.0000
  F   F341      1.0  0.26335  0.07527  0.28480  1.0000
  F   F342      1.0  0.26771  0.08426  0.78364  1.0000
  F   F343      1.0  0.26463  0.58121  0.27040  1.0000
  F   F344      1.0  0.26653  0.56835  0.78699  1.0000
  F   F345      1.0  0.51784  0.08895  0.28481  1.0000
  F   F346      1.0  0.51295  0.09691  0.76168  1.0000
  F   F347      1.0  0.52065  0.58305  0.26633  1.0000
  F   F348      1.0  0.51023  0.60869  0.75871  1.0000
  F   F349      1.0  0.76784  0.07329  0.27751  1.0000
  F   F350      1.0  0.76659  0.08777  0.77304  1.0000
  F   F351      1.0  0.76115  0.56906  0.27446  1.0000
  F   F352      1.0  0.76404  0.58052  0.77552  1.0000
  F   F353      1.0  0.09706  0.40569  0.45908  1.0000
  F   F354      1.0  0.10022  0.41767  0.96193  1.0000
  F   F355      1.0  0.10068  0.90959  0.46115  1.0000
  F   F356      1.0  0.10064  0.91490  0.96149  1.0000
  F   F357      1.0  0.35185  0.40776  0.47205  1.0000
  F   F358      1.0  0.35191  0.39417  0.96873  1.0000
  F   F359      1.0  0.34986  0.90726  0.46721  1.0000
  F   F360      1.0  0.35186  0.89614  0.96084  1.0000
  F   F361      1.0  0.60054  0.39312  0.46090  1.0000
  F   F362      1.0  0.59577  0.41354  0.97189  1.0000
  F   F363      1.0  0.59883  0.91634  0.45901  1.0000
  F   F364      1.0  0.59753  0.91735  0.95781  1.0000
  F   F365      1.0  0.84391  0.41121  0.46367  1.0000
  F   F366      1.0  0.85069  0.39240  0.96208  1.0000
  F   F367      1.0  0.84799  0.90872  0.47170  1.0000
  F   F368      1.0  0.85358  0.89717  0.96648  1.0000
  F   F369      1.0  0.04320  0.30716  0.27802  1.0000
  F   F370      1.0  0.04642  0.30003  0.79673  1.0000
  F   F371      1.0  0.04792  0.78575  0.28576  1.0000
  F   F372      1.0  0.04752  0.81006  0.78998  1.0000
  F   F373      1.0  0.30391  0.30273  0.28503  1.0000
  F   F374      1.0  0.29213  0.30634  0.79402  1.0000
  F   F375      1.0  0.30158  0.79728  0.28956  1.0000
  F   F376      1.0  0.29483  0.80150  0.78537  1.0000
  F   F377      1.0  0.54155  0.29997  0.29194  1.0000
  F   F378      1.0  0.55596  0.30157  0.79055  1.0000
  F   F379      1.0  0.54802  0.79769  0.27998  1.0000
  F   F380      1.0  0.54784  0.79306  0.80330  1.0000
  F   F381      1.0  0.80807  0.29397  0.27679  1.0000
  F   F382      1.0  0.79538  0.29804  0.78955  1.0000
  F   F383      1.0  0.79344  0.79432  0.29837  1.0000
  F   F384      1.0  0.79717  0.80146  0.78651  1.0000
