data_image0
_chemical_formula_structural       Hf96F384
_chemical_formula_sum              "Hf96 F384"
_cell_length_a       31.0108
_cell_length_b       15.5053
_cell_length_c       15.4971
_cell_angle_alpha    63.342
_cell_angle_beta     63.342
_cell_angle_gamma    80.1625

_space_group_name_H-M_alt    "P 1"
_space_group_IT_number       1

loop_
  _space_group_symop_operation_xyz
  'x, y, z'

loop_
  _atom_site_type_symbol
  _atom_site_label
  _atom_site_symmetry_multiplicity
  _atom_site_fract_x
  _atom_site_fract_y
  _atom_site_fract_z
  _atom_site_occupancy
  Hf  Hf1       1.0  0.19772  0.10959  0.36801  1.0000
  Hf  Hf2       1.0  0.19661  0.10915  0.87462  1.0000
  Hf  Hf3       1.0  0.19711  0.60138  0.37853  1.0000
  Hf  Hf4       1.0  0.19391  0.60687  0.87678  1.0000
  Hf  Hf5       1.0  0.44534  0.09892  0.38662  1.0000
  Hf  Hf6       1.0  0.44667  0.11449  0.87557  1.0000
  Hf  Hf7       1.0  0.44643  0.61198  0.37147  1.0000
  Hf  Hf8       1.0  0.44949  0.60589  0.87913  1.0000
  Hf  Hf9       1.0  0.69984  0.11786  0.36719  1.0000
  Hf  Hf10      1.0  0.69884  0.11173  0.86280  1.0000
  Hf  Hf11      1.0  0.69378  0.60539  0.38385  1.0000
  Hf  Hf12      1.0  0.69634  0.60956  0.86927  1.0000
  Hf  Hf13      1.0  0.94846  0.10476  0.37640  1.0000
  Hf  Hf14      1.0  0.94651  0.10265  0.87358  1.0000
  Hf  Hf15      1.0  0.94507  0.61183  0.37563  1.0000
  Hf  Hf16      1.0  0.94537  0.60243  0.87831  1.0000
  Hf  Hf17      1.0  0.05347  0.39355  0.12913  1.0000
  Hf  Hf18      1.0  0.05233  0.39284  0.62481  1.0000
  Hf  Hf19      1.0  0.05300  0.89006  0.12594  1.0000
  Hf  Hf20      1.0  0.05268  0.88801  0.62788  1.0000
  Hf  Hf21      1.0  0.30460  0.39870  0.12020  1.0000
  Hf  Hf22      1.0  0.30078  0.39549  0.62274  1.0000
  Hf  Hf23      1.0  0.30425  0.89403  0.12503  1.0000
  Hf  Hf24      1.0  0.30665  0.88842  0.62441  1.0000
  Hf  Hf25      1.0  0.55256  0.38908  0.13301  1.0000
  Hf  Hf26      1.0  0.55373  0.39587  0.62446  1.0000
  Hf  Hf27      1.0  0.55410  0.89962  0.11829  1.0000
  Hf  Hf28      1.0  0.55180  0.89028  0.62433  1.0000
  Hf  Hf29      1.0  0.79916  0.38608  0.13082  1.0000
  Hf  Hf30      1.0  0.80389  0.39351  0.62750  1.0000
  Hf  Hf31      1.0  0.80406  0.89304  0.12258  1.0000
  Hf  Hf32      1.0  0.80088  0.89054  0.62318  1.0000
  Hf  Hf33      1.0  0.05973  0.17895  0.41587  1.0000
  Hf  Hf34      1.0  0.05844  0.18111  0.91587  1.0000
  Hf  Hf35      1.0  0.05372  0.68329  0.41732  1.0000
  Hf  Hf36      1.0  0.05554  0.68475  0.91352  1.0000
  Hf  Hf37      1.0  0.30267  0.17795  0.42215  1.0000
  Hf  Hf38      1.0  0.30551  0.18573  0.91477  1.0000
  Hf  Hf39      1.0  0.30641  0.68579  0.41086  1.0000
  Hf  Hf40      1.0  0.30734  0.68327  0.91433  1.0000
  Hf  Hf41      1.0  0.55665  0.18363  0.42087  1.0000
  Hf  Hf42      1.0  0.55906  0.17723  0.91979  1.0000
  Hf  Hf43      1.0  0.55577  0.68290  0.40731  1.0000
  Hf  Hf44      1.0  0.55827  0.67478  0.91962  1.0000
  Hf  Hf45      1.0  0.80775  0.18636  0.41746  1.0000
  Hf  Hf46      1.0  0.80583  0.18304  0.91717  1.0000
  Hf  Hf47      1.0  0.80516  0.68484  0.41879  1.0000
  Hf  Hf48      1.0  0.80515  0.67621  0.91684  1.0000
  Hf  Hf49      1.0  0.16185  0.38905  0.32759  1.0000
  Hf  Hf50      1.0  0.15587  0.39135  0.83701  1.0000
  Hf  Hf51      1.0  0.16219  0.89640  0.32039  1.0000
  Hf  Hf52      1.0  0.16081  0.89704  0.82404  1.0000
  Hf  Hf53      1.0  0.40530  0.38728  0.33603  1.0000
  Hf  Hf54      1.0  0.40919  0.39102  0.83256  1.0000
  Hf  Hf55      1.0  0.41281  0.89216  0.32887  1.0000
  Hf  Hf56      1.0  0.40673  0.88874  0.83808  1.0000
  Hf  Hf57      1.0  0.65722  0.38862  0.34166  1.0000
  Hf  Hf58      1.0  0.65881  0.38134  0.83950  1.0000
  Hf  Hf59      1.0  0.65797  0.88661  0.33547  1.0000
  Hf  Hf60      1.0  0.66202  0.89056  0.82986  1.0000
  Hf  Hf61      1.0  0.91182  0.39437  0.32657  1.0000
  Hf  Hf62      1.0  0.90653  0.37958  0.84451  1.0000
  Hf  Hf63      1.0  0.91335  0.89668  0.32385  1.0000
  Hf  Hf64      1.0  0.91040  0.88200  0.83287  1.0000
  Hf  Hf65      1.0  0.19363  0.31625  0.07955  1.0000
  Hf  Hf66      1.0  0.19055  0.31428  0.58808  1.0000
  Hf  Hf67      1.0  0.19670  0.82100  0.07748  1.0000
  Hf  Hf68      1.0  0.19412  0.81815  0.58110  1.0000
  Hf  Hf69      1.0  0.44096  0.31241  0.09479  1.0000
  Hf  Hf70      1.0  0.44451  0.32125  0.58359  1.0000
  Hf  Hf71      1.0  0.44643  0.82090  0.07215  1.0000
  Hf  Hf72      1.0  0.44549  0.80730  0.58994  1.0000
  Hf  Hf73      1.0  0.69558  0.32554  0.07853  1.0000
  Hf  Hf74      1.0  0.69570  0.32105  0.58202  1.0000
  Hf  Hf75      1.0  0.69572  0.81869  0.08230  1.0000
  Hf  Hf76      1.0  0.69299  0.82200  0.58260  1.0000
  Hf  Hf77      1.0  0.94473  0.30887  0.08311  1.0000
  Hf  Hf78      1.0  0.94367  0.31384  0.58062  1.0000
  Hf  Hf79      1.0  0.93992  0.81482  0.08908  1.0000
  Hf  Hf80      1.0  0.94280  0.81657  0.58337  1.0000
  Hf  Hf81      1.0  0.08904  0.10321  0.17229  1.0000
  Hf  Hf82      1.0  0.09041  0.11144  0.66808  1.0000
  Hf  Hf83      1.0  0.09187  0.61163  0.16745  1.0000
  Hf  Hf84      1.0  0.09126  0.61493  0.66208  1.0000
  Hf  Hf85      1.0  0.33881  0.11558  0.16297  1.0000
  Hf  Hf86      1.0  0.34068  0.11353  0.66531  1.0000
  Hf  Hf87      1.0  0.34237  0.61519  0.16237  1.0000
  Hf  Hf88      1.0  0.33951  0.60587  0.66899  1.0000
  Hf  Hf89      1.0  0.58969  0.10875  0.17323  1.0000
  Hf  Hf90      1.0  0.59231  0.11470  0.66610  1.0000
  Hf  Hf91      1.0  0.59401  0.61579  0.16019  1.0000
  Hf  Hf92      1.0  0.59025  0.61375  0.66714  1.0000
  Hf  Hf93      1.0  0.83784  0.11005  0.17144  1.0000
  Hf  Hf94      1.0  0.83968  0.10626  0.67093  1.0000
  Hf  Hf95      1.0  0.84134  0.60785  0.16483  1.0000
  Hf  Hf96      1.0  0.84562  0.60429  0.66883  1.0000
  F   F1        1.0  0.07793  0.12188  0.30681  1.0000
  F   F2        1.0  0.08022  0.13235  0.80497  1.0000
  F   F3        1.0  0.07439  0.61528  0.31300  1.0000
  F   F4        1.0  0.08126  0.63709  0.79892  1.0000
  F   F5        1.0  0.32621  0.14151  0.30167  1.0000
  F   F6        1.0  0.33504  0.14017  0.79317  1.0000
  F   F7        1.0  0.33083  0.63677  0.29955  1.0000
  F   F8        1.0  0.32364  0.61559  0.80871  1.0000
  F   F9        1.0  0.58031  0.12185  0.31116  1.0000
  F   F10       1.0  0.57380  0.12197  0.81597  1.0000
  F   F11       1.0  0.58007  0.62859  0.29753  1.0000
  F   F12       1.0  0.58500  0.63916  0.78980  1.0000
  F   F13       1.0  0.82826  0.12886  0.31138  1.0000
  F   F14       1.0  0.83205  0.12753  0.80980  1.0000
  F   F15       1.0  0.82745  0.62536  0.30435  1.0000
  F   F16       1.0  0.83076  0.62596  0.80492  1.0000
  F   F17       1.0  0.18746  0.33521  0.44684  1.0000
  F   F18       1.0  0.17594  0.32067  0.96547  1.0000
  F   F19       1.0  0.18978  0.84810  0.43923  1.0000
  F   F20       1.0  0.18657  0.83886  0.94683  1.0000
  F   F21       1.0  0.43691  0.34447  0.43523  1.0000
  F   F22       1.0  0.42618  0.33870  0.95890  1.0000
  F   F23       1.0  0.43196  0.83190  0.45921  1.0000
  F   F24       1.0  0.43798  0.83189  0.94491  1.0000
  F   F25       1.0  0.68547  0.35129  0.45270  1.0000
  F   F26       1.0  0.68989  0.34237  0.94480  1.0000
  F   F27       1.0  0.69651  0.85027  0.43513  1.0000
  F   F28       1.0  0.68833  0.82957  0.94890  1.0000
  F   F29       1.0  0.94145  0.35959  0.42766  1.0000
  F   F30       1.0  0.93643  0.34079  0.94699  1.0000
  F   F31       1.0  0.93523  0.84771  0.44085  1.0000
  F   F32       1.0  0.92889  0.82608  0.96266  1.0000
  F   F33       1.0  0.16898  0.36301  0.20338  1.0000
  F   F34       1.0  0.16766  0.37669  0.69610  1.0000
  F   F35       1.0  0.17772  0.88999  0.17807  1.0000
  F   F36       1.0  0.17003  0.87635  0.68925  1.0000
  F   F37       1.0  0.42387  0.37919  0.19792  1.0000
  F   F38       1.0  0.41816  0.37618  0.69527  1.0000
  F   F39       1.0  0.42364  0.89003  0.18344  1.0000
  F   F40       1.0  0.42537  0.87193  0.69348  1.0000
  F   F41       1.0  0.66842  0.36997  0.20220  1.0000
  F   F42       1.0  0.66841  0.36387  0.70355  1.0000
  F   F43       1.0  0.66969  0.86485  0.21035  1.0000
  F   F44       1.0  0.66364  0.85761  0.70990  1.0000
  F   F45       1.0  0.91569  0.36118  0.19762  1.0000
  F   F46       1.0  0.92188  0.35912  0.70005  1.0000
  F   F47       1.0  0.92007  0.86865  0.19779  1.0000
  F   F48       1.0  0.91728  0.84899  0.71147  1.0000
  F   F49       1.0  0.06381  0.15214  0.05841  1.0000
  F   F50       1.0  0.07039  0.17121  0.54583  1.0000
  F   F51       1.0  0.05942  0.65892  0.05035  1.0000
  F   F52       1.0  0.05672  0.65605  0.55555  1.0000
  F   F53       1.0  0.31133  0.16922  0.05477  1.0000
  F   F54       1.0  0.30875  0.14697  0.56550  1.0000
  F   F55       1.0  0.31755  0.67124  0.04728  1.0000
  F   F56       1.0  0.31154  0.65155  0.55604  1.0000
  F   F57       1.0  0.56251  0.14933  0.06293  1.0000
  F   F58       1.0  0.56236  0.16482  0.55661  1.0000
  F   F59       1.0  0.56256  0.65457  0.05734  1.0000
  F   F60       1.0  0.56675  0.67341  0.55280  1.0000
  F   F61       1.0  0.81369  0.15915  0.05236  1.0000
  F   F62       1.0  0.81786  0.15491  0.55590  1.0000
  F   F63       1.0  0.81335  0.64845  0.06150  1.0000
  F   F64       1.0  0.81371  0.65662  0.55375  1.0000
  F   F65       1.0  0.21110  0.21161  0.19324  1.0000
  F   F66       1.0  0.20346  0.20676  0.70775  1.0000
  F   F67       1.0  0.20889  0.71651  0.19884  1.0000
  F   F68       1.0  0.19395  0.70108  0.72242  1.0000
  F   F69       1.0  0.45178  0.19076  0.21723  1.0000
  F   F70       1.0  0.45696  0.19572  0.71164  1.0000
  F   F71       1.0  0.45313  0.70910  0.19848  1.0000
  F   F72       1.0  0.46458  0.71141  0.71317  1.0000
  F   F73       1.0  0.70534  0.20599  0.21762  1.0000
  F   F74       1.0  0.71099  0.19734  0.70676  1.0000
  F   F75       1.0  0.68795  0.70280  0.22239  1.0000
  F   F76       1.0  0.69690  0.70048  0.71130  1.0000
  F   F77       1.0  0.96612  0.19846  0.20711  1.0000
  F   F78       1.0  0.94970  0.18853  0.71686  1.0000
  F   F79       1.0  0.95277  0.70189  0.20525  1.0000
  F   F80       1.0  0.95020  0.68958  0.71948  1.0000
  F   F81       1.0  0.15414  0.09296  0.04028  1.0000
  F   F82       1.0  0.14392  0.08624  0.53707  1.0000
  F   F83       1.0  0.14188  0.58573  0.05373  1.0000
  F   F84       1.0  0.14482  0.59198  0.53688  1.0000
  F   F85       1.0  0.39751  0.10382  0.03461  1.0000
  F   F86       1.0  0.39879  0.08263  0.55253  1.0000
  F   F87       1.0  0.39654  0.58307  0.03204  1.0000
  F   F88       1.0  0.39809  0.60744  0.53455  1.0000
  F   F89       1.0  0.64499  0.10218  0.03733  1.0000
  F   F90       1.0  0.65114  0.10663  0.53480  1.0000
  F   F91       1.0  0.65441  0.59711  0.02998  1.0000
  F   F92       1.0  0.64828  0.58017  0.54496  1.0000
  F   F93       1.0  0.90308  0.09029  0.04818  1.0000
  F   F94       1.0  0.89722  0.09090  0.53799  1.0000
  F   F95       1.0  0.89453  0.59061  0.03710  1.0000
  F   F96       1.0  0.90009  0.59830  0.53043  1.0000
  F   F97       1.0  0.14783  0.19449  0.14050  1.0000
  F   F98       1.0  0.15090  0.19171  0.62100  1.0000
  F   F99       1.0  0.14799  0.69744  0.13998  1.0000
  F   F100      1.0  0.15161  0.69187  0.61464  1.0000
  F   F101      1.0  0.39916  0.20083  0.12024  1.0000
  F   F102      1.0  0.40053  0.20640  0.61444  1.0000
  F   F103      1.0  0.39805  0.70977  0.10892  1.0000
  F   F104      1.0  0.40550  0.68776  0.64249  1.0000
  F   F105      1.0  0.65928  0.19765  0.12412  1.0000
  F   F106      1.0  0.65053  0.20009  0.63709  1.0000
  F   F107      1.0  0.65171  0.69620  0.11947  1.0000
  F   F108      1.0  0.64488  0.71517  0.60579  1.0000
  F   F109      1.0  0.89891  0.19419  0.13405  1.0000
  F   F110      1.0  0.90137  0.20061  0.61586  1.0000
  F   F111      1.0  0.89866  0.69056  0.13038  1.0000
  F   F112      1.0  0.90141  0.68933  0.62057  1.0000
  F   F113      1.0  0.09756  0.29512  0.36513  1.0000
  F   F114      1.0  0.09855  0.30050  0.89297  1.0000
  F   F115      1.0  0.10326  0.80362  0.36327  1.0000
  F   F116      1.0  0.09883  0.80850  0.86488  1.0000
  F   F117      1.0  0.34729  0.29154  0.38840  1.0000
  F   F118      1.0  0.34658  0.30965  0.86432  1.0000
  F   F119      1.0  0.35175  0.80225  0.37567  1.0000
  F   F120      1.0  0.34699  0.81063  0.86341  1.0000
  F   F121      1.0  0.59521  0.31322  0.39433  1.0000
  F   F122      1.0  0.59729  0.29798  0.87852  1.0000
  F   F123      1.0  0.59400  0.80611  0.38100  1.0000
  F   F124      1.0  0.60205  0.80037  0.89382  1.0000
  F   F125      1.0  0.84781  0.31138  0.37487  1.0000
  F   F126      1.0  0.84739  0.30875  0.87768  1.0000
  F   F127      1.0  0.85532  0.81454  0.36944  1.0000
  F   F128      1.0  0.84170  0.79733  0.87855  1.0000
  F   F129      1.0  0.06250  0.25136  0.14518  1.0000
  F   F130      1.0  0.05952  0.24959  0.66199  1.0000
  F   F131      1.0  0.06532  0.74743  0.14377  1.0000
  F   F132      1.0  0.06699  0.75554  0.63023  1.0000
  F   F133      1.0  0.31336  0.25730  0.14418  1.0000
  F   F134      1.0  0.32544  0.26427  0.60083  1.0000
  F   F135      1.0  0.30762  0.75264  0.15434  1.0000
  F   F136      1.0  0.31936  0.74433  0.63989  1.0000
  F   F137      1.0  0.56493  0.25227  0.14295  1.0000
  F   F138      1.0  0.56619  0.25470  0.63765  1.0000
  F   F139      1.0  0.56575  0.75778  0.14366  1.0000
  F   F140      1.0  0.55186  0.74905  0.66007  1.0000
  F   F141      1.0  0.80752  0.24465  0.15805  1.0000
  F   F142      1.0  0.81137  0.24657  0.65500  1.0000
  F   F143      1.0  0.81662  0.74946  0.13887  1.0000
  F   F144      1.0  0.81327  0.73885  0.64496  1.0000
  F   F145      1.0  0.12445  0.37423  0.11304  1.0000
  F   F146      1.0  0.12186  0.35848  0.62516  1.0000
  F   F147      1.0  0.12829  0.87226  0.10492  1.0000
  F   F148      1.0  0.12181  0.86020  0.61622  1.0000
  F   F149      1.0  0.37152  0.37079  0.12427  1.0000
  F   F150      1.0  0.37641  0.39048  0.59252  1.0000
  F   F151      1.0  0.37407  0.87276  0.11235  1.0000
  F   F152      1.0  0.37519  0.85822  0.62173  1.0000
  F   F153      1.0  0.62467  0.37217  0.11067  1.0000
  F   F154      1.0  0.62568  0.38070  0.60820  1.0000
  F   F155      1.0  0.62767  0.88171  0.10224  1.0000
  F   F156      1.0  0.62429  0.87563  0.59458  1.0000
  F   F157      1.0  0.86576  0.35179  0.11964  1.0000
  F   F158      1.0  0.87718  0.37272  0.59748  1.0000
  F   F159      1.0  0.87369  0.87142  0.10606  1.0000
  F   F160      1.0  0.87204  0.85512  0.61418  1.0000
  F   F161      1.0  0.18350  0.25158  0.35377  1.0000
  F   F162      1.0  0.17951  0.24966  0.85658  1.0000
  F   F163      1.0  0.19016  0.75734  0.35179  1.0000
  F   F164      1.0  0.18294  0.74410  0.86297  1.0000
  F   F165      1.0  0.43307  0.23603  0.36127  1.0000
  F   F166      1.0  0.43564  0.25574  0.85098  1.0000
  F   F167      1.0  0.44373  0.75912  0.33387  1.0000
  F   F168      1.0  0.42768  0.74513  0.87119  1.0000
  F   F169      1.0  0.68290  0.25217  0.36776  1.0000
  F   F170      1.0  0.68560  0.25380  0.85743  1.0000
  F   F171      1.0  0.68090  0.74360  0.37556  1.0000
  F   F172      1.0  0.68700  0.74561  0.84893  1.0000
  F   F173      1.0  0.94135  0.24571  0.35168  1.0000
  F   F174      1.0  0.93075  0.24086  0.86908  1.0000
  F   F175      1.0  0.94883  0.75987  0.33437  1.0000
  F   F176      1.0  0.93791  0.74540  0.85975  1.0000
  F   F177      1.0  0.13023  0.13179  0.37998  1.0000
  F   F178      1.0  0.12392  0.11566  0.91165  1.0000
  F   F179      1.0  0.12461  0.63747  0.38022  1.0000
  F   F180      1.0  0.12391  0.62026  0.89830  1.0000
  F   F181      1.0  0.37218  0.11903  0.41058  1.0000
  F   F182      1.0  0.37297  0.14436  0.88937  1.0000
  F   F183      1.0  0.37862  0.62591  0.38286  1.0000
  F   F184      1.0  0.37778  0.64209  0.87501  1.0000
  F   F185      1.0  0.62842  0.13692  0.39075  1.0000
  F   F186      1.0  0.62870  0.13671  0.87881  1.0000
  F   F187      1.0  0.62049  0.62037  0.40263  1.0000
  F   F188      1.0  0.62433  0.61359  0.90936  1.0000
  F   F189      1.0  0.87491  0.12830  0.39885  1.0000
  F   F190      1.0  0.87104  0.13142  0.89765  1.0000
  F   F191      1.0  0.87607  0.64078  0.37735  1.0000
  F   F192      1.0  0.87844  0.62307  0.89049  1.0000
  F   F193      1.0  0.00874  0.36913  0.06780  1.0000
  F   F194      1.0  0.00501  0.35401  0.57356  1.0000
  F   F195      1.0  0.00344  0.85890  0.09400  1.0000
  F   F196      1.0  0.00654  0.85709  0.58362  1.0000
  F   F197      1.0  0.25937  0.36628  0.07314  1.0000
  F   F198      1.0  0.25945  0.36485  0.56986  1.0000
  F   F199      1.0  0.26487  0.87087  0.05814  1.0000
  F   F200      1.0  0.25557  0.83846  0.59905  1.0000
  F   F201      1.0  0.50767  0.35560  0.08197  1.0000
  F   F202      1.0  0.51134  0.37076  0.57111  1.0000
  F   F203      1.0  0.50915  0.85701  0.07073  1.0000
  F   F204      1.0  0.50683  0.88039  0.55270  1.0000
  F   F205      1.0  0.75934  0.36205  0.06425  1.0000
  F   F206      1.0  0.75945  0.35717  0.57587  1.0000
  F   F207      1.0  0.75405  0.84507  0.09392  1.0000
  F   F208      1.0  0.75616  0.86287  0.57377  1.0000
  F   F209      1.0  0.06582  0.48886  0.18015  1.0000
  F   F210      1.0  0.07048  0.48962  0.66482  1.0000
  F   F211      1.0  0.07372  0.98297  0.15960  1.0000
  F   F212      1.0  0.06961  0.98397  0.66751  1.0000
  F   F213      1.0  0.31714  0.49214  0.17257  1.0000
  F   F214      1.0  0.31465  0.48467  0.68322  1.0000
  F   F215      1.0  0.31933  0.98398  0.17198  1.0000
  F   F216      1.0  0.31453  0.98062  0.68263  1.0000
  F   F217      1.0  0.56873  0.48059  0.18169  1.0000
  F   F218      1.0  0.56746  0.48357  0.67855  1.0000
  F   F219      1.0  0.56770  0.98971  0.18140  1.0000
  F   F220      1.0  0.57205  0.98201  0.66758  1.0000
  F   F221      1.0  0.81245  0.47940  0.18366  1.0000
  F   F222      1.0  0.82433  0.48051  0.67427  1.0000
  F   F223      1.0  0.82011  0.98083  0.17639  1.0000
  F   F224      1.0  0.81544  0.98164  0.68001  1.0000
  F   F225      1.0  0.23898  0.13917  0.43637  1.0000
  F   F226      1.0  0.24164  0.15287  0.92529  1.0000
  F   F227      1.0  0.24270  0.63511  0.42437  1.0000
  F   F228      1.0  0.24226  0.63468  0.91485  1.0000
  F   F229      1.0  0.49152  0.13986  0.43083  1.0000
  F   F230      1.0  0.49047  0.13453  0.92938  1.0000
  F   F231      1.0  0.49044  0.63963  0.42804  1.0000
  F   F232      1.0  0.49153  0.63684  0.92961  1.0000
  F   F233      1.0  0.74058  0.12600  0.44542  1.0000
  F   F234      1.0  0.74469  0.14854  0.91156  1.0000
  F   F235      1.0  0.74383  0.64725  0.41949  1.0000
  F   F236      1.0  0.74095  0.65335  0.92187  1.0000
  F   F237      1.0  0.99229  0.13029  0.43279  1.0000
  F   F238      1.0  0.99091  0.13265  0.92186  1.0000
  F   F239      1.0  0.99059  0.64239  0.43709  1.0000
  F   F240      1.0  0.98915  0.63599  0.93290  1.0000
  F   F241      1.0  0.18942  0.02145  0.31187  1.0000
  F   F242      1.0  0.18740  0.02407  0.80709  1.0000
  F   F243      1.0  0.18776  0.50906  0.32082  1.0000
  F   F244      1.0  0.18439  0.51341  0.82112  1.0000
  F   F245      1.0  0.43408  0.01162  0.32262  1.0000
  F   F246      1.0  0.42788  0.01423  0.83697  1.0000
  F   F247      1.0  0.43495  0.51681  0.32178  1.0000
  F   F248      1.0  0.42949  0.51428  0.83510  1.0000
  F   F249      1.0  0.68339  0.02034  0.32320  1.0000
  F   F250      1.0  0.69279  0.01663  0.81181  1.0000
  F   F251      1.0  0.68128  0.51314  0.32622  1.0000
  F   F252      1.0  0.67994  0.51485  0.82265  1.0000
  F   F253      1.0  0.93215  0.01840  0.32436  1.0000
  F   F254      1.0  0.93180  0.01282  0.81760  1.0000
  F   F255      1.0  0.92526  0.52428  0.32001  1.0000
  F   F256      1.0  0.93432  0.50979  0.82984  1.0000
  F   F257      1.0  0.00033  0.24038  0.00952  1.0000
  F   F258      1.0  0.99954  0.24361  0.49518  1.0000
  F   F259      1.0  0.00090  0.76028  0.99156  1.0000
  F   F260      1.0  0.99525  0.75195  0.49662  1.0000
  F   F261      1.0  0.25379  0.27711  0.98131  1.0000
  F   F262      1.0  0.24861  0.24336  0.51180  1.0000
  F   F263      1.0  0.25124  0.74454  0.99461  1.0000
  F   F264      1.0  0.25117  0.74454  0.50148  1.0000
  F   F265      1.0  0.49689  0.25194  0.00470  1.0000
  F   F266      1.0  0.49739  0.25547  0.49822  1.0000
  F   F267      1.0  0.50104  0.74524  0.99292  1.0000
  F   F268      1.0  0.49852  0.73649  0.50604  1.0000
  F   F269      1.0  0.74909  0.24800  0.00090  1.0000
  F   F270      1.0  0.75158  0.24643  0.50190  1.0000
  F   F271      1.0  0.74915  0.74758  0.01007  1.0000
  F   F272      1.0  0.75174  0.76138  0.49083  1.0000
  F   F273      1.0  0.12478  0.99904  0.25486  1.0000
  F   F274      1.0  0.11960  0.00249  0.75449  1.0000
  F   F275      1.0  0.12844  0.49679  0.25112  1.0000
  F   F276      1.0  0.11908  0.49823  0.75888  1.0000
  F   F277      1.0  0.37170  0.00370  0.25899  1.0000
  F   F278      1.0  0.37440  0.00026  0.75251  1.0000
  F   F279      1.0  0.38314  0.51803  0.23240  1.0000
  F   F280      1.0  0.37826  0.50188  0.74783  1.0000
  F   F281      1.0  0.62804  0.99601  0.25123  1.0000
  F   F282      1.0  0.63077  0.00151  0.73659  1.0000
  F   F283      1.0  0.62002  0.49847  0.25669  1.0000
  F   F284      1.0  0.62328  0.49993  0.75645  1.0000
  F   F285      1.0  0.87499  0.00669  0.24936  1.0000
  F   F286      1.0  0.87786  0.99509  0.74599  1.0000
  F   F287      1.0  0.87657  0.49235  0.24102  1.0000
  F   F288      1.0  0.87531  0.48618  0.75916  1.0000
  F   F289      1.0  0.04117  0.03736  0.02221  1.0000
  F   F290      1.0  0.04457  0.02861  0.52949  1.0000
  F   F291      1.0  0.03930  0.52742  0.02248  1.0000
  F   F292      1.0  0.04195  0.51882  0.51877  1.0000
  F   F293      1.0  0.29117  0.04566  0.01430  1.0000
  F   F294      1.0  0.29151  0.02344  0.52374  1.0000
  F   F295      1.0  0.28973  0.54410  0.02069  1.0000
  F   F296      1.0  0.29443  0.52709  0.51200  1.0000
  F   F297      1.0  0.53830  0.03379  0.03638  1.0000
  F   F298      1.0  0.54139  0.03167  0.51863  1.0000
  F   F299      1.0  0.54034  0.52516  0.02450  1.0000
  F   F300      1.0  0.53541  0.54327  0.52686  1.0000
  F   F301      1.0  0.79143  0.02655  0.02568  1.0000
  F   F302      1.0  0.79353  0.02562  0.53178  1.0000
  F   F303      1.0  0.78610  0.53044  0.03686  1.0000
  F   F304      1.0  0.79833  0.52424  0.52036  1.0000
  F   F305      1.0  0.23448  0.41694  0.21986  1.0000
  F   F306      1.0  0.22956  0.41169  0.73054  1.0000
  F   F307      1.0  0.23562  0.93288  0.20242  1.0000
  F   F308      1.0  0.23440  0.91862  0.72137  1.0000
  F   F309      1.0  0.48605  0.39480  0.23735  1.0000
  F   F310      1.0  0.48347  0.41667  0.73068  1.0000
  F   F311      1.0  0.48923  0.92055  0.21881  1.0000
  F   F312      1.0  0.48429  0.91239  0.73409  1.0000
  F   F313      1.0  0.73201  0.40337  0.23451  1.0000
  F   F314      1.0  0.73663  0.41709  0.73248  1.0000
  F   F315      1.0  0.73427  0.91392  0.22781  1.0000
  F   F316      1.0  0.73175  0.91281  0.71638  1.0000
  F   F317      1.0  0.98364  0.42388  0.21583  1.0000
  F   F318      1.0  0.98012  0.40553  0.73420  1.0000
  F   F319      1.0  0.98795  0.92412  0.22581  1.0000
  F   F320      1.0  0.98016  0.91932  0.71991  1.0000
  F   F321      1.0  0.20463  0.46644  0.47918  1.0000
  F   F322      1.0  0.20596  0.46638  0.97733  1.0000
  F   F323      1.0  0.20506  0.97033  0.48682  1.0000
  F   F324      1.0  0.20909  0.97088  0.96216  1.0000
  F   F325      1.0  0.46161  0.46780  0.47539  1.0000
  F   F326      1.0  0.45257  0.46842  0.98705  1.0000
  F   F327      1.0  0.44651  0.96675  0.48967  1.0000
  F   F328      1.0  0.45624  0.96957  0.98018  1.0000
  F   F329      1.0  0.71371  0.47417  0.48593  1.0000
  F   F330      1.0  0.70730  0.46964  0.97470  1.0000
  F   F331      1.0  0.70372  0.97842  0.47572  1.0000
  F   F332      1.0  0.70014  0.97922  0.98051  1.0000
  F   F333      1.0  0.95371  0.47461  0.47920  1.0000
  F   F334      1.0  0.95365  0.45545  0.98928  1.0000
  F   F335      1.0  0.95741  0.96543  0.48881  1.0000
  F   F336      1.0  0.95562  0.96165  0.96884  1.0000
  F   F337      1.0  0.01658  0.07166  0.28495  1.0000
  F   F338      1.0  0.01651  0.07783  0.77231  1.0000
  F   F339      1.0  0.01339  0.59448  0.26674  1.0000
  F   F340      1.0  0.01704  0.60725  0.76862  1.0000
  F   F341      1.0  0.26965  0.07894  0.27275  1.0000
  F   F342      1.0  0.26825  0.09216  0.77463  1.0000
  F   F343      1.0  0.26305  0.58801  0.27445  1.0000
  F   F344      1.0  0.25646  0.60371  0.76312  1.0000
  F   F345      1.0  0.51695  0.07928  0.28578  1.0000
  F   F346      1.0  0.51809  0.08756  0.77029  1.0000
  F   F347      1.0  0.51519  0.60661  0.26184  1.0000
  F   F348      1.0  0.51644  0.56462  0.78497  1.0000
  F   F349      1.0  0.76721  0.08126  0.27288  1.0000
  F   F350      1.0  0.76889  0.06835  0.77950  1.0000
  F   F351      1.0  0.76042  0.58012  0.27276  1.0000
  F   F352      1.0  0.76814  0.57734  0.77216  1.0000
  F   F353      1.0  0.10111  0.40084  0.46406  1.0000
  F   F354      1.0  0.10297  0.41968  0.96237  1.0000
  F   F355      1.0  0.10347  0.92171  0.44661  1.0000
  F   F356      1.0  0.10383  0.89928  0.96195  1.0000
  F   F357      1.0  0.34898  0.42207  0.44525  1.0000
  F   F358      1.0  0.35129  0.41649  0.95726  1.0000
  F   F359      1.0  0.35824  0.91283  0.45828  1.0000
  F   F360      1.0  0.35421  0.90902  0.97194  1.0000
  F   F361      1.0  0.60113  0.42739  0.46462  1.0000
  F   F362      1.0  0.60310  0.39853  0.96107  1.0000
  F   F363      1.0  0.60365  0.89259  0.46280  1.0000
  F   F364      1.0  0.60363  0.92414  0.95044  1.0000
  F   F365      1.0  0.85456  0.40033  0.46192  1.0000
  F   F366      1.0  0.84933  0.40885  0.96228  1.0000
  F   F367      1.0  0.85074  0.91399  0.46188  1.0000
  F   F368      1.0  0.84875  0.90050  0.95624  1.0000
  F   F369      1.0  0.03764  0.29792  0.29942  1.0000
  F   F370      1.0  0.04593  0.30254  0.80556  1.0000
  F   F371      1.0  0.04906  0.79888  0.28462  1.0000
  F   F372      1.0  0.03732  0.80329  0.78696  1.0000
  F   F373      1.0  0.29795  0.30828  0.29319  1.0000
  F   F374      1.0  0.29480  0.30199  0.77503  1.0000
  F   F375      1.0  0.29223  0.80051  0.29984  1.0000
  F   F376      1.0  0.29745  0.80102  0.78511  1.0000
  F   F377      1.0  0.55136  0.29452  0.29028  1.0000
  F   F378      1.0  0.54457  0.29538  0.77966  1.0000
  F   F379      1.0  0.54807  0.80333  0.28058  1.0000
  F   F380      1.0  0.55033  0.79731  0.78941  1.0000
  F   F381      1.0  0.79629  0.29479  0.29332  1.0000
  F   F382      1.0  0.79964  0.30740  0.78389  1.0000
  F   F383      1.0  0.80643  0.80816  0.28267  1.0000
  F   F384      1.0  0.79143  0.79980  0.78882  1.0000
