data_image0
_chemical_formula_structural       Hf96F384
_chemical_formula_sum              "Hf96 F384"
_cell_length_a       31.0541
_cell_length_b       15.5268
_cell_length_c       15.5149
_cell_angle_alpha    63.342
_cell_angle_beta     63.342
_cell_angle_gamma    80.1625

_space_group_name_H-M_alt    "P 1"
_space_group_IT_number       1

loop_
  _space_group_symop_operation_xyz
  'x, y, z'

loop_
  _atom_site_type_symbol
  _atom_site_label
  _atom_site_symmetry_multiplicity
  _atom_site_fract_x
  _atom_site_fract_y
  _atom_site_fract_z
  _atom_site_occupancy
  Hf  Hf1       1.0  0.19137  0.09969  0.39411  1.0000
  Hf  Hf2       1.0  0.19883  0.10361  0.87662  1.0000
  Hf  Hf3       1.0  0.20082  0.60526  0.37145  1.0000
  Hf  Hf4       1.0  0.19699  0.61426  0.87249  1.0000
  Hf  Hf5       1.0  0.44299  0.10524  0.38248  1.0000
  Hf  Hf6       1.0  0.44259  0.10298  0.88276  1.0000
  Hf  Hf7       1.0  0.44429  0.59926  0.38498  1.0000
  Hf  Hf8       1.0  0.44693  0.61200  0.87637  1.0000
  Hf  Hf9       1.0  0.69393  0.11520  0.37259  1.0000
  Hf  Hf10      1.0  0.69572  0.11044  0.87751  1.0000
  Hf  Hf11      1.0  0.70135  0.60298  0.36919  1.0000
  Hf  Hf12      1.0  0.70089  0.60968  0.86690  1.0000
  Hf  Hf13      1.0  0.94591  0.10990  0.37126  1.0000
  Hf  Hf14      1.0  0.94148  0.09783  0.88791  1.0000
  Hf  Hf15      1.0  0.94374  0.60451  0.38312  1.0000
  Hf  Hf16      1.0  0.94828  0.60564  0.87325  1.0000
  Hf  Hf17      1.0  0.05536  0.38096  0.12052  1.0000
  Hf  Hf18      1.0  0.05359  0.39522  0.61905  1.0000
  Hf  Hf19      1.0  0.05060  0.88439  0.13149  1.0000
  Hf  Hf20      1.0  0.05438  0.88512  0.62642  1.0000
  Hf  Hf21      1.0  0.30004  0.39833  0.12729  1.0000
  Hf  Hf22      1.0  0.30151  0.39003  0.62072  1.0000
  Hf  Hf23      1.0  0.30780  0.89408  0.12601  1.0000
  Hf  Hf24      1.0  0.30337  0.89587  0.61968  1.0000
  Hf  Hf25      1.0  0.55629  0.38753  0.12118  1.0000
  Hf  Hf26      1.0  0.55227  0.39494  0.62504  1.0000
  Hf  Hf27      1.0  0.55509  0.89493  0.11771  1.0000
  Hf  Hf28      1.0  0.55281  0.88601  0.63095  1.0000
  Hf  Hf29      1.0  0.80125  0.38992  0.12433  1.0000
  Hf  Hf30      1.0  0.80745  0.39386  0.62168  1.0000
  Hf  Hf31      1.0  0.80079  0.89191  0.12721  1.0000
  Hf  Hf32      1.0  0.80395  0.89183  0.62776  1.0000
  Hf  Hf33      1.0  0.05754  0.17968  0.41914  1.0000
  Hf  Hf34      1.0  0.05710  0.17414  0.92160  1.0000
  Hf  Hf35      1.0  0.05814  0.67813  0.41048  1.0000
  Hf  Hf36      1.0  0.05690  0.67831  0.91836  1.0000
  Hf  Hf37      1.0  0.30406  0.19105  0.41406  1.0000
  Hf  Hf38      1.0  0.30903  0.18602  0.91759  1.0000
  Hf  Hf39      1.0  0.30364  0.68222  0.41654  1.0000
  Hf  Hf40      1.0  0.30654  0.68591  0.90917  1.0000
  Hf  Hf41      1.0  0.55536  0.18113  0.41244  1.0000
  Hf  Hf42      1.0  0.55738  0.18974  0.91419  1.0000
  Hf  Hf43      1.0  0.55644  0.68528  0.41979  1.0000
  Hf  Hf44      1.0  0.55441  0.68017  0.92400  1.0000
  Hf  Hf45      1.0  0.80528  0.19323  0.40947  1.0000
  Hf  Hf46      1.0  0.80841  0.19006  0.90951  1.0000
  Hf  Hf47      1.0  0.80630  0.68751  0.41713  1.0000
  Hf  Hf48      1.0  0.80439  0.68608  0.91900  1.0000
  Hf  Hf49      1.0  0.15733  0.39399  0.32733  1.0000
  Hf  Hf50      1.0  0.16252  0.38238  0.83694  1.0000
  Hf  Hf51      1.0  0.16266  0.89133  0.33301  1.0000
  Hf  Hf52      1.0  0.15307  0.89106  0.83956  1.0000
  Hf  Hf53      1.0  0.40948  0.39108  0.32799  1.0000
  Hf  Hf54      1.0  0.40901  0.38649  0.83897  1.0000
  Hf  Hf55      1.0  0.40835  0.88514  0.33775  1.0000
  Hf  Hf56      1.0  0.41133  0.88500  0.83317  1.0000
  Hf  Hf57      1.0  0.65554  0.39464  0.33325  1.0000
  Hf  Hf58      1.0  0.66180  0.39456  0.82749  1.0000
  Hf  Hf59      1.0  0.65894  0.88692  0.33839  1.0000
  Hf  Hf60      1.0  0.65962  0.88725  0.83389  1.0000
  Hf  Hf61      1.0  0.91119  0.39364  0.32841  1.0000
  Hf  Hf62      1.0  0.91281  0.38058  0.83036  1.0000
  Hf  Hf63      1.0  0.90910  0.88684  0.33288  1.0000
  Hf  Hf64      1.0  0.90794  0.88124  0.83476  1.0000
  Hf  Hf65      1.0  0.19685  0.31795  0.07678  1.0000
  Hf  Hf66      1.0  0.18569  0.31060  0.59372  1.0000
  Hf  Hf67      1.0  0.19771  0.81559  0.08569  1.0000
  Hf  Hf68      1.0  0.19602  0.81818  0.58396  1.0000
  Hf  Hf69      1.0  0.44350  0.32352  0.07570  1.0000
  Hf  Hf70      1.0  0.44099  0.31011  0.59584  1.0000
  Hf  Hf71      1.0  0.44517  0.82319  0.08279  1.0000
  Hf  Hf72      1.0  0.44324  0.81676  0.58451  1.0000
  Hf  Hf73      1.0  0.69309  0.31985  0.08044  1.0000
  Hf  Hf74      1.0  0.69213  0.31543  0.58381  1.0000
  Hf  Hf75      1.0  0.69171  0.81648  0.08499  1.0000
  Hf  Hf76      1.0  0.69654  0.81871  0.58498  1.0000
  Hf  Hf77      1.0  0.94400  0.31523  0.07796  1.0000
  Hf  Hf78      1.0  0.94570  0.31743  0.58020  1.0000
  Hf  Hf79      1.0  0.94378  0.81478  0.08584  1.0000
  Hf  Hf80      1.0  0.94919  0.81610  0.57557  1.0000
  Hf  Hf81      1.0  0.08768  0.10583  0.17401  1.0000
  Hf  Hf82      1.0  0.08761  0.11467  0.67071  1.0000
  Hf  Hf83      1.0  0.09014  0.60841  0.16858  1.0000
  Hf  Hf84      1.0  0.09475  0.60807  0.66712  1.0000
  Hf  Hf85      1.0  0.33854  0.12047  0.16780  1.0000
  Hf  Hf86      1.0  0.33547  0.10541  0.67935  1.0000
  Hf  Hf87      1.0  0.34414  0.61354  0.16514  1.0000
  Hf  Hf88      1.0  0.34315  0.60881  0.66528  1.0000
  Hf  Hf89      1.0  0.58652  0.10653  0.17142  1.0000
  Hf  Hf90      1.0  0.58721  0.10933  0.66586  1.0000
  Hf  Hf91      1.0  0.58747  0.61743  0.16243  1.0000
  Hf  Hf92      1.0  0.59454  0.61281  0.66704  1.0000
  Hf  Hf93      1.0  0.83852  0.11239  0.17018  1.0000
  Hf  Hf94      1.0  0.84368  0.11342  0.65906  1.0000
  Hf  Hf95      1.0  0.83987  0.61323  0.16741  1.0000
  Hf  Hf96      1.0  0.84288  0.61662  0.66391  1.0000
  F   F1        1.0  0.07730  0.10998  0.31613  1.0000
  F   F2        1.0  0.07993  0.14000  0.79547  1.0000
  F   F3        1.0  0.08128  0.61806  0.30751  1.0000
  F   F4        1.0  0.07804  0.62429  0.80672  1.0000
  F   F5        1.0  0.33245  0.14272  0.29230  1.0000
  F   F6        1.0  0.32694  0.10988  0.81736  1.0000
  F   F7        1.0  0.32617  0.64068  0.29318  1.0000
  F   F8        1.0  0.33505  0.63266  0.79521  1.0000
  F   F9        1.0  0.57406  0.12318  0.30602  1.0000
  F   F10       1.0  0.57936  0.14508  0.78815  1.0000
  F   F11       1.0  0.58037  0.63770  0.30264  1.0000
  F   F12       1.0  0.57752  0.62747  0.81437  1.0000
  F   F13       1.0  0.83121  0.13731  0.29937  1.0000
  F   F14       1.0  0.82711  0.12222  0.80951  1.0000
  F   F15       1.0  0.83360  0.64426  0.29600  1.0000
  F   F16       1.0  0.83480  0.64922  0.78822  1.0000
  F   F17       1.0  0.17072  0.33728  0.45636  1.0000
  F   F18       1.0  0.19953  0.35456  0.92083  1.0000
  F   F19       1.0  0.18940  0.85736  0.44441  1.0000
  F   F20       1.0  0.19142  0.83874  0.94068  1.0000
  F   F21       1.0  0.42218  0.33281  0.45596  1.0000
  F   F22       1.0  0.44336  0.33831  0.93512  1.0000
  F   F23       1.0  0.43747  0.84368  0.43941  1.0000
  F   F24       1.0  0.43793  0.84462  0.94543  1.0000
  F   F25       1.0  0.68402  0.33797  0.44450  1.0000
  F   F26       1.0  0.68262  0.33829  0.94729  1.0000
  F   F27       1.0  0.68932  0.84199  0.44312  1.0000
  F   F28       1.0  0.68456  0.84176  0.95314  1.0000
  F   F29       1.0  0.93685  0.33951  0.44754  1.0000
  F   F30       1.0  0.94528  0.33241  0.93403  1.0000
  F   F31       1.0  0.94871  0.86268  0.42012  1.0000
  F   F32       1.0  0.94040  0.86306  0.93526  1.0000
  F   F33       1.0  0.16033  0.35974  0.21001  1.0000
  F   F34       1.0  0.17339  0.35767  0.70004  1.0000
  F   F35       1.0  0.17146  0.86627  0.19484  1.0000
  F   F36       1.0  0.17293  0.88578  0.69585  1.0000
  F   F37       1.0  0.41682  0.36360  0.19870  1.0000
  F   F38       1.0  0.41963  0.36608  0.70356  1.0000
  F   F39       1.0  0.42950  0.87908  0.18998  1.0000
  F   F40       1.0  0.42238  0.88341  0.68746  1.0000
  F   F41       1.0  0.67412  0.39093  0.17805  1.0000
  F   F42       1.0  0.66461  0.37181  0.70256  1.0000
  F   F43       1.0  0.66693  0.86011  0.20162  1.0000
  F   F44       1.0  0.66886  0.85936  0.70747  1.0000
  F   F45       1.0  0.92380  0.38815  0.18155  1.0000
  F   F46       1.0  0.92574  0.37720  0.67787  1.0000
  F   F47       1.0  0.91982  0.86335  0.20490  1.0000
  F   F48       1.0  0.91931  0.85064  0.70751  1.0000
  F   F49       1.0  0.05621  0.13834  0.06465  1.0000
  F   F50       1.0  0.06572  0.15645  0.55490  1.0000
  F   F51       1.0  0.06353  0.65440  0.05711  1.0000
  F   F52       1.0  0.06896  0.65059  0.55755  1.0000
  F   F53       1.0  0.30917  0.15828  0.06126  1.0000
  F   F54       1.0  0.30787  0.13872  0.56963  1.0000
  F   F55       1.0  0.31905  0.65984  0.05366  1.0000
  F   F56       1.0  0.31457  0.66203  0.55403  1.0000
  F   F57       1.0  0.56118  0.16614  0.05762  1.0000
  F   F58       1.0  0.57041  0.16522  0.54222  1.0000
  F   F59       1.0  0.55580  0.64836  0.06455  1.0000
  F   F60       1.0  0.56592  0.66084  0.55906  1.0000
  F   F61       1.0  0.82051  0.16406  0.04552  1.0000
  F   F62       1.0  0.81523  0.16814  0.54780  1.0000
  F   F63       1.0  0.81542  0.65312  0.04531  1.0000
  F   F64       1.0  0.81212  0.66256  0.55245  1.0000
  F   F65       1.0  0.20457  0.21501  0.20086  1.0000
  F   F66       1.0  0.21125  0.19624  0.71460  1.0000
  F   F67       1.0  0.21546  0.69794  0.21588  1.0000
  F   F68       1.0  0.20305  0.70035  0.71217  1.0000
  F   F69       1.0  0.45505  0.20382  0.19731  1.0000
  F   F70       1.0  0.45192  0.20376  0.72190  1.0000
  F   F71       1.0  0.45846  0.72189  0.20680  1.0000
  F   F72       1.0  0.44654  0.70064  0.71855  1.0000
  F   F73       1.0  0.70436  0.19874  0.20107  1.0000
  F   F74       1.0  0.69214  0.20592  0.71375  1.0000
  F   F75       1.0  0.71104  0.68943  0.21497  1.0000
  F   F76       1.0  0.71185  0.69947  0.70567  1.0000
  F   F77       1.0  0.94239  0.19581  0.20130  1.0000
  F   F78       1.0  0.95297  0.19297  0.71310  1.0000
  F   F79       1.0  0.95498  0.69378  0.22880  1.0000
  F   F80       1.0  0.95563  0.68907  0.70081  1.0000
  F   F81       1.0  0.14402  0.08212  0.04332  1.0000
  F   F82       1.0  0.15030  0.08717  0.54732  1.0000
  F   F83       1.0  0.14872  0.62094  0.02431  1.0000
  F   F84       1.0  0.15352  0.57374  0.54623  1.0000
  F   F85       1.0  0.40030  0.08046  0.04186  1.0000
  F   F86       1.0  0.39443  0.09285  0.54361  1.0000
  F   F87       1.0  0.40697  0.61226  0.03523  1.0000
  F   F88       1.0  0.40371  0.59416  0.53149  1.0000
  F   F89       1.0  0.63954  0.09547  0.03681  1.0000
  F   F90       1.0  0.64817  0.09431  0.53149  1.0000
  F   F91       1.0  0.64594  0.60342  0.03506  1.0000
  F   F92       1.0  0.65630  0.59818  0.54997  1.0000
  F   F93       1.0  0.90186  0.07459  0.03306  1.0000
  F   F94       1.0  0.90166  0.12433  0.51284  1.0000
  F   F95       1.0  0.89739  0.59566  0.03358  1.0000
  F   F96       1.0  0.90456  0.58206  0.53504  1.0000
  F   F97       1.0  0.14820  0.19919  0.10798  1.0000
  F   F98       1.0  0.15259  0.19392  0.63421  1.0000
  F   F99       1.0  0.15492  0.69787  0.13735  1.0000
  F   F100      1.0  0.15533  0.70085  0.61363  1.0000
  F   F101      1.0  0.39923  0.20991  0.10596  1.0000
  F   F102      1.0  0.39769  0.19543  0.64664  1.0000
  F   F103      1.0  0.39919  0.71417  0.13048  1.0000
  F   F104      1.0  0.40282  0.70508  0.61697  1.0000
  F   F105      1.0  0.64983  0.18736  0.13094  1.0000
  F   F106      1.0  0.65052  0.19996  0.60841  1.0000
  F   F107      1.0  0.64959  0.70304  0.13742  1.0000
  F   F108      1.0  0.65136  0.69673  0.64450  1.0000
  F   F109      1.0  0.89476  0.19915  0.08471  1.0000
  F   F110      1.0  0.90149  0.19307  0.63339  1.0000
  F   F111      1.0  0.90051  0.70969  0.12613  1.0000
  F   F112      1.0  0.90038  0.71795  0.59261  1.0000
  F   F113      1.0  0.09584  0.31016  0.38629  1.0000
  F   F114      1.0  0.09701  0.29521  0.88514  1.0000
  F   F115      1.0  0.10143  0.79666  0.36231  1.0000
  F   F116      1.0  0.09920  0.80293  0.87984  1.0000
  F   F117      1.0  0.34667  0.31791  0.36780  1.0000
  F   F118      1.0  0.34683  0.30752  0.87942  1.0000
  F   F119      1.0  0.34463  0.80200  0.36239  1.0000
  F   F120      1.0  0.34999  0.81719  0.86848  1.0000
  F   F121      1.0  0.60437  0.30052  0.36135  1.0000
  F   F122      1.0  0.59417  0.29842  0.88510  1.0000
  F   F123      1.0  0.60036  0.80417  0.38701  1.0000
  F   F124      1.0  0.59896  0.79132  0.90151  1.0000
  F   F125      1.0  0.85004  0.31117  0.35561  1.0000
  F   F126      1.0  0.85143  0.31260  0.85023  1.0000
  F   F127      1.0  0.84600  0.80341  0.36877  1.0000
  F   F128      1.0  0.84934  0.80083  0.88057  1.0000
  F   F129      1.0  0.05756  0.24214  0.13949  1.0000
  F   F130      1.0  0.07304  0.26416  0.62087  1.0000
  F   F131      1.0  0.07265  0.74366  0.13416  1.0000
  F   F132      1.0  0.06590  0.75033  0.63402  1.0000
  F   F133      1.0  0.31097  0.25576  0.13518  1.0000
  F   F134      1.0  0.30277  0.23854  0.66592  1.0000
  F   F135      1.0  0.31786  0.75948  0.13069  1.0000
  F   F136      1.0  0.30742  0.74741  0.65560  1.0000
  F   F137      1.0  0.55606  0.23993  0.17322  1.0000
  F   F138      1.0  0.56068  0.26298  0.64053  1.0000
  F   F139      1.0  0.56689  0.75564  0.14215  1.0000
  F   F140      1.0  0.56456  0.75092  0.65054  1.0000
  F   F141      1.0  0.80776  0.25196  0.15256  1.0000
  F   F142      1.0  0.82036  0.26356  0.62748  1.0000
  F   F143      1.0  0.81502  0.75037  0.13650  1.0000
  F   F144      1.0  0.81060  0.74967  0.64854  1.0000
  F   F145      1.0  0.12493  0.34122  0.10920  1.0000
  F   F146      1.0  0.11956  0.35781  0.63522  1.0000
  F   F147      1.0  0.12550  0.86411  0.11475  1.0000
  F   F148      1.0  0.12479  0.85824  0.62105  1.0000
  F   F149      1.0  0.37196  0.38335  0.09798  1.0000
  F   F150      1.0  0.36641  0.35872  0.62011  1.0000
  F   F151      1.0  0.37809  0.87750  0.11010  1.0000
  F   F152      1.0  0.37310  0.87258  0.59136  1.0000
  F   F153      1.0  0.62495  0.35436  0.10754  1.0000
  F   F154      1.0  0.62716  0.37965  0.58508  1.0000
  F   F155      1.0  0.62715  0.87653  0.09936  1.0000
  F   F156      1.0  0.62510  0.87218  0.60752  1.0000
  F   F157      1.0  0.87214  0.36771  0.10910  1.0000
  F   F158      1.0  0.87692  0.37950  0.59199  1.0000
  F   F159      1.0  0.86865  0.87680  0.11816  1.0000
  F   F160      1.0  0.87393  0.87825  0.60072  1.0000
  F   F161      1.0  0.18235  0.24327  0.36525  1.0000
  F   F162      1.0  0.18161  0.24647  0.87609  1.0000
  F   F163      1.0  0.18179  0.75254  0.36959  1.0000
  F   F164      1.0  0.18863  0.76404  0.83766  1.0000
  F   F165      1.0  0.43914  0.24364  0.35037  1.0000
  F   F166      1.0  0.42383  0.23857  0.87472  1.0000
  F   F167      1.0  0.42613  0.74057  0.36914  1.0000
  F   F168      1.0  0.43947  0.75089  0.85738  1.0000
  F   F169      1.0  0.68968  0.26209  0.33121  1.0000
  F   F170      1.0  0.68091  0.25177  0.85757  1.0000
  F   F171      1.0  0.68779  0.74751  0.34739  1.0000
  F   F172      1.0  0.69390  0.74618  0.86353  1.0000
  F   F173      1.0  0.94452  0.26275  0.32173  1.0000
  F   F174      1.0  0.94071  0.25159  0.84384  1.0000
  F   F175      1.0  0.92402  0.74649  0.38365  1.0000
  F   F176      1.0  0.93888  0.75145  0.85596  1.0000
  F   F177      1.0  0.12402  0.11949  0.39826  1.0000
  F   F178      1.0  0.12471  0.13205  0.89701  1.0000
  F   F179      1.0  0.12806  0.62347  0.40066  1.0000
  F   F180      1.0  0.12537  0.64415  0.88426  1.0000
  F   F181      1.0  0.37705  0.13908  0.39442  1.0000
  F   F182      1.0  0.37425  0.12275  0.90477  1.0000
  F   F183      1.0  0.37511  0.63891  0.38232  1.0000
  F   F184      1.0  0.37570  0.63490  0.89832  1.0000
  F   F185      1.0  0.62841  0.14101  0.37236  1.0000
  F   F186      1.0  0.62068  0.12814  0.90031  1.0000
  F   F187      1.0  0.62703  0.63145  0.39811  1.0000
  F   F188      1.0  0.62985  0.62118  0.88444  1.0000
  F   F189      1.0  0.87820  0.14160  0.38495  1.0000
  F   F190      1.0  0.87739  0.14443  0.87904  1.0000
  F   F191      1.0  0.87339  0.62093  0.40794  1.0000
  F   F192      1.0  0.87744  0.64294  0.88313  1.0000
  F   F193      1.0  0.00706  0.35901  0.07688  1.0000
  F   F194      1.0  0.00476  0.35560  0.58481  1.0000
  F   F195      1.0  0.01071  0.84224  0.07740  1.0000
  F   F196      1.0  0.00645  0.85712  0.57806  1.0000
  F   F197      1.0  0.25717  0.38551  0.05083  1.0000
  F   F198      1.0  0.25825  0.35730  0.57673  1.0000
  F   F199      1.0  0.25673  0.88237  0.06506  1.0000
  F   F200      1.0  0.25719  0.86108  0.56903  1.0000
  F   F201      1.0  0.50695  0.37241  0.06651  1.0000
  F   F202      1.0  0.50385  0.35305  0.58363  1.0000
  F   F203      1.0  0.51168  0.86667  0.06979  1.0000
  F   F204      1.0  0.50528  0.85022  0.59107  1.0000
  F   F205      1.0  0.75654  0.38588  0.04907  1.0000
  F   F206      1.0  0.75430  0.36073  0.59738  1.0000
  F   F207      1.0  0.75640  0.85900  0.06581  1.0000
  F   F208      1.0  0.75575  0.86912  0.58670  1.0000
  F   F209      1.0  0.07601  0.47709  0.16647  1.0000
  F   F210      1.0  0.07204  0.48332  0.67831  1.0000
  F   F211      1.0  0.06387  0.96977  0.18505  1.0000
  F   F212      1.0  0.07149  0.99153  0.66408  1.0000
  F   F213      1.0  0.32356  0.48770  0.16957  1.0000
  F   F214      1.0  0.32799  0.49312  0.66032  1.0000
  F   F215      1.0  0.31756  0.98743  0.18286  1.0000
  F   F216      1.0  0.31721  0.98717  0.66760  1.0000
  F   F217      1.0  0.56782  0.47762  0.17134  1.0000
  F   F218      1.0  0.57013  0.48631  0.67802  1.0000
  F   F219      1.0  0.56722  0.98173  0.18122  1.0000
  F   F220      1.0  0.57064  0.97739  0.67979  1.0000
  F   F221      1.0  0.81308  0.48604  0.16882  1.0000
  F   F222      1.0  0.82332  0.48848  0.67320  1.0000
  F   F223      1.0  0.81491  0.99181  0.17902  1.0000
  F   F224      1.0  0.82227  0.99766  0.66531  1.0000
  F   F225      1.0  0.24300  0.13201  0.42712  1.0000
  F   F226      1.0  0.24773  0.15777  0.89226  1.0000
  F   F227      1.0  0.23699  0.63150  0.44481  1.0000
  F   F228      1.0  0.24493  0.64705  0.92191  1.0000
  F   F229      1.0  0.48977  0.12054  0.44747  1.0000
  F   F230      1.0  0.48997  0.13239  0.92940  1.0000
  F   F231      1.0  0.49259  0.64032  0.41923  1.0000
  F   F232      1.0  0.49587  0.64339  0.92324  1.0000
  F   F233      1.0  0.74128  0.15591  0.42828  1.0000
  F   F234      1.0  0.74536  0.14196  0.92947  1.0000
  F   F235      1.0  0.74628  0.63880  0.42786  1.0000
  F   F236      1.0  0.74785  0.62763  0.91558  1.0000
  F   F237      1.0  0.99315  0.14261  0.41876  1.0000
  F   F238      1.0  0.99088  0.13161  0.92007  1.0000
  F   F239      1.0  0.99242  0.65449  0.41671  1.0000
  F   F240      1.0  0.99008  0.64213  0.92579  1.0000
  F   F241      1.0  0.18380  0.02542  0.31902  1.0000
  F   F242      1.0  0.17784  0.01205  0.83162  1.0000
  F   F243      1.0  0.18116  0.51703  0.31636  1.0000
  F   F244      1.0  0.18130  0.52523  0.82319  1.0000
  F   F245      1.0  0.42108  0.02073  0.34056  1.0000
  F   F246      1.0  0.43477  0.01062  0.82355  1.0000
  F   F247      1.0  0.42397  0.51689  0.33598  1.0000
  F   F248      1.0  0.42957  0.51514  0.82537  1.0000
  F   F249      1.0  0.67889  0.00830  0.33695  1.0000
  F   F250      1.0  0.68452  0.01454  0.82514  1.0000
  F   F251      1.0  0.68011  0.51571  0.31862  1.0000
  F   F252      1.0  0.68647  0.51467  0.81379  1.0000
  F   F253      1.0  0.92321  0.02223  0.32184  1.0000
  F   F254      1.0  0.92117  0.01065  0.84519  1.0000
  F   F255      1.0  0.93345  0.50720  0.32700  1.0000
  F   F256      1.0  0.93700  0.51293  0.82084  1.0000
  F   F257      1.0  0.00486  0.25305  0.99750  1.0000
  F   F258      1.0  0.00298  0.25714  0.49738  1.0000
  F   F259      1.0  0.99913  0.74890  0.99477  1.0000
  F   F260      1.0  0.00068  0.73935  0.50462  1.0000
  F   F261      1.0  0.24526  0.23700  0.01250  1.0000
  F   F262      1.0  0.25097  0.24980  0.50009  1.0000
  F   F263      1.0  0.25473  0.75065  0.00352  1.0000
  F   F264      1.0  0.24904  0.74734  0.49545  1.0000
  F   F265      1.0  0.50009  0.24631  0.00832  1.0000
  F   F266      1.0  0.49486  0.27006  0.48994  1.0000
  F   F267      1.0  0.49455  0.74465  0.00431  1.0000
  F   F268      1.0  0.49582  0.73579  0.51482  1.0000
  F   F269      1.0  0.75321  0.24976  0.99843  1.0000
  F   F270      1.0  0.74901  0.25151  0.50276  1.0000
  F   F271      1.0  0.74850  0.73219  0.00687  1.0000
  F   F272      1.0  0.75349  0.76625  0.48860  1.0000
  F   F273      1.0  0.12338  0.99421  0.25758  1.0000
  F   F274      1.0  0.11846  0.01292  0.75879  1.0000
  F   F275      1.0  0.13230  0.51285  0.23188  1.0000
  F   F276      1.0  0.12574  0.48897  0.75416  1.0000
  F   F277      1.0  0.37735  0.01035  0.24242  1.0000
  F   F278      1.0  0.37455  0.00577  0.74613  1.0000
  F   F279      1.0  0.37947  0.51335  0.23541  1.0000
  F   F280      1.0  0.38333  0.50801  0.74140  1.0000
  F   F281      1.0  0.63219  0.99598  0.23937  1.0000
  F   F282      1.0  0.62807  0.99564  0.73984  1.0000
  F   F283      1.0  0.62773  0.50689  0.23839  1.0000
  F   F284      1.0  0.62116  0.50308  0.76375  1.0000
  F   F285      1.0  0.87841  0.00519  0.23000  1.0000
  F   F286      1.0  0.88603  0.00850  0.73005  1.0000
  F   F287      1.0  0.87800  0.50696  0.23708  1.0000
  F   F288      1.0  0.87715  0.50161  0.74906  1.0000
  F   F289      1.0  0.04129  0.01913  0.03462  1.0000
  F   F290      1.0  0.04508  0.03231  0.52402  1.0000
  F   F291      1.0  0.04159  0.52527  0.01639  1.0000
  F   F292      1.0  0.03384  0.53687  0.53459  1.0000
  F   F293      1.0  0.29419  0.02991  0.01969  1.0000
  F   F294      1.0  0.30669  0.02892  0.49903  1.0000
  F   F295      1.0  0.29065  0.54762  0.01662  1.0000
  F   F296      1.0  0.29002  0.53264  0.51725  1.0000
  F   F297      1.0  0.53810  0.03844  0.02105  1.0000
  F   F298      1.0  0.54845  0.02997  0.52096  1.0000
  F   F299      1.0  0.53974  0.53544  0.02754  1.0000
  F   F300      1.0  0.54363  0.53728  0.53333  1.0000
  F   F301      1.0  0.80935  0.02522  0.00404  1.0000
  F   F302      1.0  0.79586  0.03459  0.53205  1.0000
  F   F303      1.0  0.79736  0.52969  0.00562  1.0000
  F   F304      1.0  0.79408  0.53328  0.51378  1.0000
  F   F305      1.0  0.23519  0.41343  0.21583  1.0000
  F   F306      1.0  0.23702  0.40518  0.72849  1.0000
  F   F307      1.0  0.23067  0.92567  0.21984  1.0000
  F   F308      1.0  0.23699  0.91328  0.71601  1.0000
  F   F309      1.0  0.48191  0.41597  0.22779  1.0000
  F   F310      1.0  0.48169  0.40835  0.72936  1.0000
  F   F311      1.0  0.48617  0.90718  0.24320  1.0000
  F   F312      1.0  0.48673  0.91421  0.73136  1.0000
  F   F313      1.0  0.73350  0.42281  0.21794  1.0000
  F   F314      1.0  0.73877  0.41006  0.73110  1.0000
  F   F315      1.0  0.73163  0.92490  0.22134  1.0000
  F   F316      1.0  0.73269  0.92176  0.73957  1.0000
  F   F317      1.0  0.99244  0.40639  0.24026  1.0000
  F   F318      1.0  0.98656  0.42494  0.71406  1.0000
  F   F319      1.0  0.98550  0.90394  0.22143  1.0000
  F   F320      1.0  0.98600  0.91269  0.72905  1.0000
  F   F321      1.0  0.20288  0.46074  0.46807  1.0000
  F   F322      1.0  0.19770  0.48147  0.98289  1.0000
  F   F323      1.0  0.20806  0.96867  0.49283  1.0000
  F   F324      1.0  0.20551  0.97034  0.98216  1.0000
  F   F325      1.0  0.45172  0.46102  0.48877  1.0000
  F   F326      1.0  0.44859  0.47467  0.99300  1.0000
  F   F327      1.0  0.45224  0.95776  0.49245  1.0000
  F   F328      1.0  0.45619  0.96902  0.96512  1.0000
  F   F329      1.0  0.71345  0.46405  0.46980  1.0000
  F   F330      1.0  0.70469  0.46929  0.96704  1.0000
  F   F331      1.0  0.70903  0.97132  0.48037  1.0000
  F   F332      1.0  0.70153  0.96963  0.97537  1.0000
  F   F333      1.0  0.96395  0.46434  0.46097  1.0000
  F   F334      1.0  0.96014  0.46737  0.96864  1.0000
  F   F335      1.0  0.94554  0.98169  0.48993  1.0000
  F   F336      1.0  0.96317  0.95664  0.97948  1.0000
  F   F337      1.0  0.01102  0.08132  0.27052  1.0000
  F   F338      1.0  0.01277  0.08280  0.76167  1.0000
  F   F339      1.0  0.01617  0.59026  0.27236  1.0000
  F   F340      1.0  0.01572  0.58326  0.76870  1.0000
  F   F341      1.0  0.26359  0.08885  0.27718  1.0000
  F   F342      1.0  0.26417  0.04780  0.79691  1.0000
  F   F343      1.0  0.26842  0.57719  0.27113  1.0000
  F   F344      1.0  0.27033  0.56797  0.79138  1.0000
  F   F345      1.0  0.51068  0.07958  0.28398  1.0000
  F   F346      1.0  0.51505  0.07722  0.77886  1.0000
  F   F347      1.0  0.51607  0.59274  0.26830  1.0000
  F   F348      1.0  0.51605  0.59569  0.76986  1.0000
  F   F349      1.0  0.76216  0.09355  0.27891  1.0000
  F   F350      1.0  0.76340  0.10962  0.76386  1.0000
  F   F351      1.0  0.77029  0.56088  0.28600  1.0000
  F   F352      1.0  0.76802  0.58232  0.76467  1.0000
  F   F353      1.0  0.09911  0.44511  0.46219  1.0000
  F   F354      1.0  0.10475  0.40094  0.96640  1.0000
  F   F355      1.0  0.10222  0.91448  0.46540  1.0000
  F   F356      1.0  0.09548  0.91866  0.95928  1.0000
  F   F357      1.0  0.34346  0.41239  0.46335  1.0000
  F   F358      1.0  0.35223  0.40314  0.96021  1.0000
  F   F359      1.0  0.34866  0.87976  0.46405  1.0000
  F   F360      1.0  0.35770  0.91460  0.96023  1.0000
  F   F361      1.0  0.59950  0.41176  0.45609  1.0000
  F   F362      1.0  0.60295  0.41130  0.95915  1.0000
  F   F363      1.0  0.59782  0.89659  0.47099  1.0000
  F   F364      1.0  0.60558  0.92334  0.96092  1.0000
  F   F365      1.0  0.85309  0.40893  0.44051  1.0000
  F   F366      1.0  0.85909  0.39266  0.95417  1.0000
  F   F367      1.0  0.85062  0.87623  0.47259  1.0000
  F   F368      1.0  0.85122  0.88450  0.97291  1.0000
  F   F369      1.0  0.05465  0.28744  0.28660  1.0000
  F   F370      1.0  0.04004  0.28367  0.80360  1.0000
  F   F371      1.0  0.04378  0.78797  0.28918  1.0000
  F   F372      1.0  0.05492  0.80035  0.78620  1.0000
  F   F373      1.0  0.29399  0.29494  0.28393  1.0000
  F   F374      1.0  0.30521  0.29477  0.78887  1.0000
  F   F375      1.0  0.28795  0.79716  0.28074  1.0000
  F   F376      1.0  0.30288  0.80448  0.78501  1.0000
  F   F377      1.0  0.54635  0.30011  0.29286  1.0000
  F   F378      1.0  0.55203  0.31125  0.77684  1.0000
  F   F379      1.0  0.54365  0.80472  0.30349  1.0000
  F   F380      1.0  0.55248  0.80223  0.78397  1.0000
  F   F381      1.0  0.79624  0.30763  0.28681  1.0000
  F   F382      1.0  0.80041  0.30326  0.78098  1.0000
  F   F383      1.0  0.79233  0.80852  0.28676  1.0000
  F   F384      1.0  0.79579  0.81827  0.78872  1.0000
