data_image0
_chemical_formula_structural       Hf96F384
_chemical_formula_sum              "Hf96 F384"
_cell_length_a       31.0108
_cell_length_b       15.5067
_cell_length_c       15.5002
_cell_angle_alpha    63.342
_cell_angle_beta     63.342
_cell_angle_gamma    80.1625

_space_group_name_H-M_alt    "P 1"
_space_group_IT_number       1

loop_
  _space_group_symop_operation_xyz
  'x, y, z'

loop_
  _atom_site_type_symbol
  _atom_site_label
  _atom_site_symmetry_multiplicity
  _atom_site_fract_x
  _atom_site_fract_y
  _atom_site_fract_z
  _atom_site_occupancy
  Hf  Hf1       1.0  0.19417  0.11123  0.37464  1.0000
  Hf  Hf2       1.0  0.19981  0.10570  0.87558  1.0000
  Hf  Hf3       1.0  0.20026  0.59833  0.37928  1.0000
  Hf  Hf4       1.0  0.19735  0.61047  0.87084  1.0000
  Hf  Hf5       1.0  0.44621  0.10809  0.37032  1.0000
  Hf  Hf6       1.0  0.44958  0.10505  0.86935  1.0000
  Hf  Hf7       1.0  0.44701  0.60122  0.37789  1.0000
  Hf  Hf8       1.0  0.44577  0.59653  0.88037  1.0000
  Hf  Hf9       1.0  0.69476  0.10892  0.37268  1.0000
  Hf  Hf10      1.0  0.69878  0.11166  0.87061  1.0000
  Hf  Hf11      1.0  0.69967  0.60726  0.36819  1.0000
  Hf  Hf12      1.0  0.69304  0.61143  0.87865  1.0000
  Hf  Hf13      1.0  0.94556  0.10820  0.37543  1.0000
  Hf  Hf14      1.0  0.94391  0.10726  0.88075  1.0000
  Hf  Hf15      1.0  0.94758  0.60959  0.37111  1.0000
  Hf  Hf16      1.0  0.94807  0.60870  0.86986  1.0000
  Hf  Hf17      1.0  0.05442  0.40031  0.11715  1.0000
  Hf  Hf18      1.0  0.05662  0.40348  0.62166  1.0000
  Hf  Hf19      1.0  0.05407  0.89296  0.13402  1.0000
  Hf  Hf20      1.0  0.05162  0.89455  0.62177  1.0000
  Hf  Hf21      1.0  0.30312  0.38645  0.12879  1.0000
  Hf  Hf22      1.0  0.30344  0.39187  0.62860  1.0000
  Hf  Hf23      1.0  0.30443  0.89173  0.12007  1.0000
  Hf  Hf24      1.0  0.30171  0.88484  0.63555  1.0000
  Hf  Hf25      1.0  0.55452  0.39738  0.12879  1.0000
  Hf  Hf26      1.0  0.55394  0.39915  0.62462  1.0000
  Hf  Hf27      1.0  0.55148  0.89393  0.13056  1.0000
  Hf  Hf28      1.0  0.55482  0.88579  0.62452  1.0000
  Hf  Hf29      1.0  0.80262  0.39171  0.12645  1.0000
  Hf  Hf30      1.0  0.80313  0.39748  0.62191  1.0000
  Hf  Hf31      1.0  0.80448  0.89118  0.12592  1.0000
  Hf  Hf32      1.0  0.80102  0.88569  0.63332  1.0000
  Hf  Hf33      1.0  0.05467  0.18348  0.41944  1.0000
  Hf  Hf34      1.0  0.05980  0.18477  0.91029  1.0000
  Hf  Hf35      1.0  0.05835  0.68349  0.41702  1.0000
  Hf  Hf36      1.0  0.05606  0.68931  0.91199  1.0000
  Hf  Hf37      1.0  0.30359  0.17679  0.42581  1.0000
  Hf  Hf38      1.0  0.30426  0.18072  0.91748  1.0000
  Hf  Hf39      1.0  0.30568  0.68045  0.41647  1.0000
  Hf  Hf40      1.0  0.30468  0.68013  0.92168  1.0000
  Hf  Hf41      1.0  0.55212  0.17339  0.42039  1.0000
  Hf  Hf42      1.0  0.55527  0.18555  0.91529  1.0000
  Hf  Hf43      1.0  0.55157  0.68843  0.41735  1.0000
  Hf  Hf44      1.0  0.55217  0.68104  0.92075  1.0000
  Hf  Hf45      1.0  0.80626  0.18381  0.41699  1.0000
  Hf  Hf46      1.0  0.80722  0.17901  0.91321  1.0000
  Hf  Hf47      1.0  0.80528  0.68224  0.41954  1.0000
  Hf  Hf48      1.0  0.80827  0.67987  0.91716  1.0000
  Hf  Hf49      1.0  0.16023  0.39243  0.32836  1.0000
  Hf  Hf50      1.0  0.15767  0.38098  0.83707  1.0000
  Hf  Hf51      1.0  0.16068  0.88284  0.33194  1.0000
  Hf  Hf52      1.0  0.15974  0.88890  0.83179  1.0000
  Hf  Hf53      1.0  0.40685  0.39067  0.33449  1.0000
  Hf  Hf54      1.0  0.40394  0.38204  0.83856  1.0000
  Hf  Hf55      1.0  0.40749  0.88890  0.33309  1.0000
  Hf  Hf56      1.0  0.41186  0.88888  0.82668  1.0000
  Hf  Hf57      1.0  0.65066  0.38763  0.33598  1.0000
  Hf  Hf58      1.0  0.66063  0.38171  0.83298  1.0000
  Hf  Hf59      1.0  0.65851  0.89061  0.33224  1.0000
  Hf  Hf60      1.0  0.65645  0.88517  0.84144  1.0000
  Hf  Hf61      1.0  0.91231  0.39342  0.32729  1.0000
  Hf  Hf62      1.0  0.91101  0.38520  0.83269  1.0000
  Hf  Hf63      1.0  0.90919  0.88703  0.33469  1.0000
  Hf  Hf64      1.0  0.90751  0.88852  0.83299  1.0000
  Hf  Hf65      1.0  0.19255  0.31914  0.08345  1.0000
  Hf  Hf66      1.0  0.19632  0.31387  0.58784  1.0000
  Hf  Hf67      1.0  0.19503  0.80788  0.09299  1.0000
  Hf  Hf68      1.0  0.19573  0.81870  0.57572  1.0000
  Hf  Hf69      1.0  0.44634  0.31590  0.08530  1.0000
  Hf  Hf70      1.0  0.44202  0.30806  0.59164  1.0000
  Hf  Hf71      1.0  0.44340  0.81423  0.08655  1.0000
  Hf  Hf72      1.0  0.44113  0.82197  0.58663  1.0000
  Hf  Hf73      1.0  0.69593  0.32304  0.08197  1.0000
  Hf  Hf74      1.0  0.69244  0.31896  0.57899  1.0000
  Hf  Hf75      1.0  0.69589  0.82106  0.07536  1.0000
  Hf  Hf76      1.0  0.69499  0.81722  0.58200  1.0000
  Hf  Hf77      1.0  0.94308  0.32090  0.08398  1.0000
  Hf  Hf78      1.0  0.94709  0.32379  0.57791  1.0000
  Hf  Hf79      1.0  0.94481  0.81476  0.08276  1.0000
  Hf  Hf80      1.0  0.94282  0.81421  0.58652  1.0000
  Hf  Hf81      1.0  0.09118  0.11800  0.16573  1.0000
  Hf  Hf82      1.0  0.09229  0.11178  0.66232  1.0000
  Hf  Hf83      1.0  0.09298  0.61126  0.16110  1.0000
  Hf  Hf84      1.0  0.09313  0.61267  0.66943  1.0000
  Hf  Hf85      1.0  0.33811  0.10672  0.17499  1.0000
  Hf  Hf86      1.0  0.34079  0.11089  0.66283  1.0000
  Hf  Hf87      1.0  0.34139  0.60937  0.16751  1.0000
  Hf  Hf88      1.0  0.34117  0.61348  0.66431  1.0000
  Hf  Hf89      1.0  0.59092  0.11583  0.16387  1.0000
  Hf  Hf90      1.0  0.59508  0.10919  0.65858  1.0000
  Hf  Hf91      1.0  0.59310  0.62078  0.16352  1.0000
  Hf  Hf92      1.0  0.59271  0.60973  0.66478  1.0000
  Hf  Hf93      1.0  0.84073  0.11466  0.16827  1.0000
  Hf  Hf94      1.0  0.84039  0.11751  0.66311  1.0000
  Hf  Hf95      1.0  0.84359  0.60556  0.16455  1.0000
  Hf  Hf96      1.0  0.84016  0.61128  0.66709  1.0000
  F   F1        1.0  0.08178  0.12925  0.31006  1.0000
  F   F2        1.0  0.08072  0.12204  0.80399  1.0000
  F   F3        1.0  0.08126  0.63570  0.29967  1.0000
  F   F4        1.0  0.08285  0.63255  0.79730  1.0000
  F   F5        1.0  0.32165  0.10708  0.32200  1.0000
  F   F6        1.0  0.34219  0.14367  0.79574  1.0000
  F   F7        1.0  0.32801  0.62735  0.30777  1.0000
  F   F8        1.0  0.33058  0.63613  0.80784  1.0000
  F   F9        1.0  0.57608  0.12125  0.30282  1.0000
  F   F10       1.0  0.58385  0.13458  0.79669  1.0000
  F   F11       1.0  0.58305  0.65060  0.28774  1.0000
  F   F12       1.0  0.57721  0.63178  0.80136  1.0000
  F   F13       1.0  0.82916  0.13623  0.29421  1.0000
  F   F14       1.0  0.83014  0.11829  0.81234  1.0000
  F   F15       1.0  0.82674  0.62921  0.30395  1.0000
  F   F16       1.0  0.83258  0.64299  0.79071  1.0000
  F   F17       1.0  0.17967  0.33972  0.44989  1.0000
  F   F18       1.0  0.18387  0.34561  0.94789  1.0000
  F   F19       1.0  0.19572  0.84710  0.43149  1.0000
  F   F20       1.0  0.18770  0.84397  0.94430  1.0000
  F   F21       1.0  0.42948  0.33859  0.44952  1.0000
  F   F22       1.0  0.43506  0.32864  0.95248  1.0000
  F   F23       1.0  0.43923  0.85952  0.43247  1.0000
  F   F24       1.0  0.43612  0.84708  0.94336  1.0000
  F   F25       1.0  0.67198  0.32920  0.46425  1.0000
  F   F26       1.0  0.69027  0.33470  0.95148  1.0000
  F   F27       1.0  0.69018  0.84506  0.43212  1.0000
  F   F28       1.0  0.68301  0.84226  0.94676  1.0000
  F   F29       1.0  0.93061  0.34695  0.44957  1.0000
  F   F30       1.0  0.94395  0.35156  0.93428  1.0000
  F   F31       1.0  0.94173  0.83584  0.44586  1.0000
  F   F32       1.0  0.93644  0.84631  0.94159  1.0000
  F   F33       1.0  0.17644  0.37527  0.19473  1.0000
  F   F34       1.0  0.16678  0.34959  0.71617  1.0000
  F   F35       1.0  0.16931  0.86307  0.20432  1.0000
  F   F36       1.0  0.16840  0.86476  0.69265  1.0000
  F   F37       1.0  0.41977  0.36451  0.20295  1.0000
  F   F38       1.0  0.41582  0.36243  0.70166  1.0000
  F   F39       1.0  0.41917  0.87864  0.20204  1.0000
  F   F40       1.0  0.42149  0.88100  0.68976  1.0000
  F   F41       1.0  0.66255  0.37500  0.20678  1.0000
  F   F42       1.0  0.66644  0.37228  0.70064  1.0000
  F   F43       1.0  0.67403  0.87500  0.19398  1.0000
  F   F44       1.0  0.67085  0.87828  0.69562  1.0000
  F   F45       1.0  0.91340  0.36402  0.20714  1.0000
  F   F46       1.0  0.92292  0.38328  0.68308  1.0000
  F   F47       1.0  0.91627  0.87363  0.20643  1.0000
  F   F48       1.0  0.91936  0.86404  0.69630  1.0000
  F   F49       1.0  0.06382  0.15292  0.05536  1.0000
  F   F50       1.0  0.05522  0.15027  0.56564  1.0000
  F   F51       1.0  0.06962  0.67393  0.03882  1.0000
  F   F52       1.0  0.07540  0.66831  0.54545  1.0000
  F   F53       1.0  0.30683  0.15566  0.06160  1.0000
  F   F54       1.0  0.30831  0.15345  0.56616  1.0000
  F   F55       1.0  0.31344  0.66165  0.05522  1.0000
  F   F56       1.0  0.32009  0.65308  0.55015  1.0000
  F   F57       1.0  0.56530  0.16617  0.04990  1.0000
  F   F58       1.0  0.56491  0.14709  0.55904  1.0000
  F   F59       1.0  0.56292  0.65752  0.04669  1.0000
  F   F60       1.0  0.56038  0.66167  0.55533  1.0000
  F   F61       1.0  0.81780  0.16282  0.04916  1.0000
  F   F62       1.0  0.80482  0.15193  0.56615  1.0000
  F   F63       1.0  0.81885  0.66709  0.04623  1.0000
  F   F64       1.0  0.81386  0.64937  0.56155  1.0000
  F   F65       1.0  0.19903  0.19832  0.20818  1.0000
  F   F66       1.0  0.21823  0.20635  0.70126  1.0000
  F   F67       1.0  0.20634  0.69980  0.22286  1.0000
  F   F68       1.0  0.20399  0.70103  0.71225  1.0000
  F   F69       1.0  0.46130  0.19860  0.21752  1.0000
  F   F70       1.0  0.44814  0.19163  0.71838  1.0000
  F   F71       1.0  0.45725  0.70492  0.20145  1.0000
  F   F72       1.0  0.45320  0.70928  0.70450  1.0000
  F   F73       1.0  0.70492  0.21700  0.22452  1.0000
  F   F74       1.0  0.70708  0.20792  0.71943  1.0000
  F   F75       1.0  0.70225  0.70774  0.21200  1.0000
  F   F76       1.0  0.70137  0.70211  0.71073  1.0000
  F   F77       1.0  0.95098  0.19698  0.20527  1.0000
  F   F78       1.0  0.94837  0.20101  0.69994  1.0000
  F   F79       1.0  0.95203  0.69929  0.21680  1.0000
  F   F80       1.0  0.94635  0.69925  0.71629  1.0000
  F   F81       1.0  0.14572  0.11186  0.02479  1.0000
  F   F82       1.0  0.14966  0.11071  0.53491  1.0000
  F   F83       1.0  0.15237  0.58387  0.03528  1.0000
  F   F84       1.0  0.15506  0.58683  0.54517  1.0000
  F   F85       1.0  0.39742  0.09135  0.05937  1.0000
  F   F86       1.0  0.39653  0.09163  0.53330  1.0000
  F   F87       1.0  0.40174  0.60266  0.04206  1.0000
  F   F88       1.0  0.39933  0.59057  0.54418  1.0000
  F   F89       1.0  0.65356  0.10928  0.03979  1.0000
  F   F90       1.0  0.65212  0.08085  0.53845  1.0000
  F   F91       1.0  0.64785  0.58725  0.03502  1.0000
  F   F92       1.0  0.64625  0.58318  0.53674  1.0000
  F   F93       1.0  0.90168  0.09858  0.03808  1.0000
  F   F94       1.0  0.89189  0.09021  0.53660  1.0000
  F   F95       1.0  0.90437  0.58538  0.03083  1.0000
  F   F96       1.0  0.89998  0.58311  0.52896  1.0000
  F   F97       1.0  0.14982  0.20450  0.11923  1.0000
  F   F98       1.0  0.15605  0.19712  0.63941  1.0000
  F   F99       1.0  0.15684  0.68951  0.13506  1.0000
  F   F100      1.0  0.14913  0.70683  0.61376  1.0000
  F   F101      1.0  0.40117  0.19299  0.15894  1.0000
  F   F102      1.0  0.39964  0.18528  0.62233  1.0000
  F   F103      1.0  0.40376  0.69804  0.13018  1.0000
  F   F104      1.0  0.39679  0.70763  0.61338  1.0000
  F   F105      1.0  0.65702  0.20036  0.12922  1.0000
  F   F106      1.0  0.65677  0.19262  0.61485  1.0000
  F   F107      1.0  0.65398  0.69499  0.12514  1.0000
  F   F108      1.0  0.65529  0.69171  0.61679  1.0000
  F   F109      1.0  0.90734  0.20711  0.10520  1.0000
  F   F110      1.0  0.89705  0.19914  0.61830  1.0000
  F   F111      1.0  0.89992  0.69184  0.12486  1.0000
  F   F112      1.0  0.89776  0.70037  0.60391  1.0000
  F   F113      1.0  0.09714  0.30856  0.38318  1.0000
  F   F114      1.0  0.09648  0.29607  0.87661  1.0000
  F   F115      1.0  0.09901  0.80021  0.36516  1.0000
  F   F116      1.0  0.10073  0.81012  0.86022  1.0000
  F   F117      1.0  0.34721  0.30465  0.39499  1.0000
  F   F118      1.0  0.34763  0.30130  0.87601  1.0000
  F   F119      1.0  0.34045  0.79796  0.39052  1.0000
  F   F120      1.0  0.35439  0.78145  0.87382  1.0000
  F   F121      1.0  0.58737  0.30581  0.38673  1.0000
  F   F122      1.0  0.59665  0.29923  0.87126  1.0000
  F   F123      1.0  0.59806  0.81028  0.36735  1.0000
  F   F124      1.0  0.60003  0.80784  0.88438  1.0000
  F   F125      1.0  0.85406  0.30408  0.39599  1.0000
  F   F126      1.0  0.85098  0.30426  0.86381  1.0000
  F   F127      1.0  0.84973  0.80461  0.37645  1.0000
  F   F128      1.0  0.84836  0.81223  0.86082  1.0000
  F   F129      1.0  0.06623  0.25517  0.14144  1.0000
  F   F130      1.0  0.07215  0.25355  0.63684  1.0000
  F   F131      1.0  0.06409  0.75272  0.14354  1.0000
  F   F132      1.0  0.05971  0.74970  0.65191  1.0000
  F   F133      1.0  0.32468  0.25691  0.13343  1.0000
  F   F134      1.0  0.31900  0.24930  0.63661  1.0000
  F   F135      1.0  0.31421  0.74841  0.14700  1.0000
  F   F136      1.0  0.30734  0.75181  0.64550  1.0000
  F   F137      1.0  0.56805  0.25682  0.13805  1.0000
  F   F138      1.0  0.56873  0.25187  0.63438  1.0000
  F   F139      1.0  0.55876  0.74654  0.14256  1.0000
  F   F140      1.0  0.56944  0.75056  0.63463  1.0000
  F   F141      1.0  0.81442  0.25000  0.15099  1.0000
  F   F142      1.0  0.81224  0.25835  0.63559  1.0000
  F   F143      1.0  0.81357  0.75088  0.13639  1.0000
  F   F144      1.0  0.80861  0.75471  0.63660  1.0000
  F   F145      1.0  0.12453  0.37960  0.10920  1.0000
  F   F146      1.0  0.12770  0.37100  0.59913  1.0000
  F   F147      1.0  0.12646  0.86869  0.10782  1.0000
  F   F148      1.0  0.12810  0.86909  0.59153  1.0000
  F   F149      1.0  0.37954  0.38630  0.09176  1.0000
  F   F150      1.0  0.37148  0.35204  0.62885  1.0000
  F   F151      1.0  0.37191  0.87950  0.10321  1.0000
  F   F152      1.0  0.37452  0.87760  0.59831  1.0000
  F   F153      1.0  0.62112  0.38255  0.11101  1.0000
  F   F154      1.0  0.62245  0.37619  0.61105  1.0000
  F   F155      1.0  0.62040  0.85398  0.12568  1.0000
  F   F156      1.0  0.62464  0.85921  0.61345  1.0000
  F   F157      1.0  0.87481  0.38509  0.09578  1.0000
  F   F158      1.0  0.87572  0.36540  0.60459  1.0000
  F   F159      1.0  0.87300  0.85002  0.11966  1.0000
  F   F160      1.0  0.87328  0.85515  0.61751  1.0000
  F   F161      1.0  0.19100  0.25263  0.34248  1.0000
  F   F162      1.0  0.18658  0.24906  0.86123  1.0000
  F   F163      1.0  0.18462  0.73641  0.37028  1.0000
  F   F164      1.0  0.18267  0.74819  0.86167  1.0000
  F   F165      1.0  0.43352  0.25383  0.35313  1.0000
  F   F166      1.0  0.43186  0.24148  0.86387  1.0000
  F   F167      1.0  0.44341  0.74896  0.35290  1.0000
  F   F168      1.0  0.44198  0.75199  0.85150  1.0000
  F   F169      1.0  0.66594  0.24042  0.38086  1.0000
  F   F170      1.0  0.68901  0.25531  0.85375  1.0000
  F   F171      1.0  0.68440  0.75038  0.35565  1.0000
  F   F172      1.0  0.69003  0.75151  0.84981  1.0000
  F   F173      1.0  0.94626  0.25110  0.34156  1.0000
  F   F174      1.0  0.94523  0.25658  0.83352  1.0000
  F   F175      1.0  0.93468  0.74806  0.36000  1.0000
  F   F176      1.0  0.93599  0.75444  0.85620  1.0000
  F   F177      1.0  0.12244  0.12636  0.41089  1.0000
  F   F178      1.0  0.13496  0.13989  0.86600  1.0000
  F   F179      1.0  0.13184  0.61092  0.40114  1.0000
  F   F180      1.0  0.12621  0.63775  0.88869  1.0000
  F   F181      1.0  0.37361  0.14057  0.39241  1.0000
  F   F182      1.0  0.37577  0.11648  0.91639  1.0000
  F   F183      1.0  0.38148  0.63659  0.38240  1.0000
  F   F184      1.0  0.37656  0.61887  0.90428  1.0000
  F   F185      1.0  0.62100  0.11606  0.39766  1.0000
  F   F186      1.0  0.62748  0.12272  0.90466  1.0000
  F   F187      1.0  0.62397  0.63526  0.39168  1.0000
  F   F188      1.0  0.62437  0.64832  0.88369  1.0000
  F   F189      1.0  0.87615  0.13667  0.37395  1.0000
  F   F190      1.0  0.87607  0.13713  0.89450  1.0000
  F   F191      1.0  0.87506  0.62177  0.39148  1.0000
  F   F192      1.0  0.87564  0.62110  0.90173  1.0000
  F   F193      1.0  0.00518  0.35464  0.08407  1.0000
  F   F194      1.0  0.00443  0.35907  0.58937  1.0000
  F   F195      1.0  0.00541  0.86208  0.07616  1.0000
  F   F196      1.0  0.00779  0.86212  0.56993  1.0000
  F   F197      1.0  0.25748  0.33180  0.09699  1.0000
  F   F198      1.0  0.26078  0.37160  0.56844  1.0000
  F   F199      1.0  0.25849  0.87223  0.06106  1.0000
  F   F200      1.0  0.25913  0.86942  0.56518  1.0000
  F   F201      1.0  0.50810  0.35515  0.09372  1.0000
  F   F202      1.0  0.50138  0.34170  0.59425  1.0000
  F   F203      1.0  0.50712  0.86554  0.08134  1.0000
  F   F204      1.0  0.50346  0.85490  0.57038  1.0000
  F   F205      1.0  0.75629  0.37035  0.07462  1.0000
  F   F206      1.0  0.74975  0.37868  0.56999  1.0000
  F   F207      1.0  0.75470  0.85314  0.08447  1.0000
  F   F208      1.0  0.75462  0.86944  0.56855  1.0000
  F   F209      1.0  0.06722  0.49485  0.16820  1.0000
  F   F210      1.0  0.07642  0.48917  0.66130  1.0000
  F   F211      1.0  0.06179  0.98723  0.18471  1.0000
  F   F212      1.0  0.07193  0.97890  0.66733  1.0000
  F   F213      1.0  0.32095  0.48697  0.17358  1.0000
  F   F214      1.0  0.31533  0.48856  0.67254  1.0000
  F   F215      1.0  0.31732  0.99031  0.16417  1.0000
  F   F216      1.0  0.32232  0.98793  0.67047  1.0000
  F   F217      1.0  0.57266  0.49086  0.17398  1.0000
  F   F218      1.0  0.56610  0.48202  0.68551  1.0000
  F   F219      1.0  0.57741  0.98018  0.17040  1.0000
  F   F220      1.0  0.57207  0.97345  0.67583  1.0000
  F   F221      1.0  0.80973  0.48540  0.18410  1.0000
  F   F222      1.0  0.81652  0.48467  0.67515  1.0000
  F   F223      1.0  0.82271  0.98936  0.16932  1.0000
  F   F224      1.0  0.81944  0.97334  0.67902  1.0000
  F   F225      1.0  0.23830  0.13780  0.42859  1.0000
  F   F226      1.0  0.23796  0.13968  0.93432  1.0000
  F   F227      1.0  0.24392  0.63311  0.42580  1.0000
  F   F228      1.0  0.24412  0.63752  0.92687  1.0000
  F   F229      1.0  0.49255  0.14503  0.40986  1.0000
  F   F230      1.0  0.49201  0.14647  0.91459  1.0000
  F   F231      1.0  0.49339  0.63567  0.42602  1.0000
  F   F232      1.0  0.48960  0.63530  0.94461  1.0000
  F   F233      1.0  0.74381  0.15573  0.41306  1.0000
  F   F234      1.0  0.74394  0.14842  0.91800  1.0000
  F   F235      1.0  0.74309  0.63642  0.41673  1.0000
  F   F236      1.0  0.74469  0.63579  0.92359  1.0000
  F   F237      1.0  0.99249  0.14311  0.43849  1.0000
  F   F238      1.0  0.99629  0.13148  0.93762  1.0000
  F   F239      1.0  0.99201  0.63911  0.41955  1.0000
  F   F240      1.0  0.99486  0.64058  0.90567  1.0000
  F   F241      1.0  0.17914  0.01091  0.32604  1.0000
  F   F242      1.0  0.18194  0.01277  0.83249  1.0000
  F   F243      1.0  0.18565  0.51236  0.30877  1.0000
  F   F244      1.0  0.17473  0.51452  0.84134  1.0000
  F   F245      1.0  0.42356  0.02290  0.32846  1.0000
  F   F246      1.0  0.42884  0.01166  0.81991  1.0000
  F   F247      1.0  0.43102  0.51983  0.32143  1.0000
  F   F248      1.0  0.43156  0.51604  0.81607  1.0000
  F   F249      1.0  0.68340  0.01859  0.32225  1.0000
  F   F250      1.0  0.68542  0.01654  0.82169  1.0000
  F   F251      1.0  0.68168  0.50824  0.33072  1.0000
  F   F252      1.0  0.67453  0.52457  0.83819  1.0000
  F   F253      1.0  0.93793  0.00758  0.32200  1.0000
  F   F254      1.0  0.92499  0.02037  0.83271  1.0000
  F   F255      1.0  0.93052  0.52597  0.30919  1.0000
  F   F256      1.0  0.93071  0.51457  0.82479  1.0000
  F   F257      1.0  0.00432  0.26175  0.99300  1.0000
  F   F258      1.0  0.00009  0.26691  0.48774  1.0000
  F   F259      1.0  0.99570  0.73871  0.00216  1.0000
  F   F260      1.0  0.00210  0.73239  0.50927  1.0000
  F   F261      1.0  0.25342  0.26778  0.97880  1.0000
  F   F262      1.0  0.25264  0.25696  0.49114  1.0000
  F   F263      1.0  0.24900  0.74843  0.00529  1.0000
  F   F264      1.0  0.24858  0.73349  0.50118  1.0000
  F   F265      1.0  0.50274  0.26012  0.99250  1.0000
  F   F266      1.0  0.49540  0.22743  0.51013  1.0000
  F   F267      1.0  0.50661  0.78035  0.98515  1.0000
  F   F268      1.0  0.49509  0.74711  0.50816  1.0000
  F   F269      1.0  0.75105  0.23618  0.01599  1.0000
  F   F270      1.0  0.75271  0.26362  0.48661  1.0000
  F   F271      1.0  0.74883  0.74649  0.99271  1.0000
  F   F272      1.0  0.75368  0.75108  0.49166  1.0000
  F   F273      1.0  0.12703  0.00884  0.23746  1.0000
  F   F274      1.0  0.13044  0.99847  0.74311  1.0000
  F   F275      1.0  0.12257  0.49512  0.24638  1.0000
  F   F276      1.0  0.12883  0.49560  0.74797  1.0000
  F   F277      1.0  0.37185  0.00070  0.24955  1.0000
  F   F278      1.0  0.36582  0.97899  0.77334  1.0000
  F   F279      1.0  0.36638  0.49331  0.25950  1.0000
  F   F280      1.0  0.37190  0.50550  0.74808  1.0000
  F   F281      1.0  0.63205  0.00678  0.23682  1.0000
  F   F282      1.0  0.61786  0.99987  0.76162  1.0000
  F   F283      1.0  0.61581  0.50860  0.26353  1.0000
  F   F284      1.0  0.62995  0.50181  0.74929  1.0000
  F   F285      1.0  0.87289  0.00513  0.24809  1.0000
  F   F286      1.0  0.87832  0.01053  0.73927  1.0000
  F   F287      1.0  0.86803  0.48966  0.26258  1.0000
  F   F288      1.0  0.87638  0.50733  0.74934  1.0000
  F   F289      1.0  0.05252  0.02597  0.02067  1.0000
  F   F290      1.0  0.04689  0.02668  0.50651  1.0000
  F   F291      1.0  0.03718  0.52936  0.02306  1.0000
  F   F292      1.0  0.04230  0.53795  0.52752  1.0000
  F   F293      1.0  0.29143  0.03629  0.00666  1.0000
  F   F294      1.0  0.29564  0.02570  0.52319  1.0000
  F   F295      1.0  0.28981  0.52568  0.02785  1.0000
  F   F296      1.0  0.28704  0.53538  0.53299  1.0000
  F   F297      1.0  0.53859  0.03071  0.01936  1.0000
  F   F298      1.0  0.53939  0.02787  0.52356  1.0000
  F   F299      1.0  0.54036  0.52857  0.02360  1.0000
  F   F300      1.0  0.54164  0.53582  0.52186  1.0000
  F   F301      1.0  0.79248  0.03018  0.02045  1.0000
  F   F302      1.0  0.78982  0.02992  0.51903  1.0000
  F   F303      1.0  0.79293  0.52999  0.02571  1.0000
  F   F304      1.0  0.78031  0.54121  0.54001  1.0000
  F   F305      1.0  0.23937  0.41065  0.23350  1.0000
  F   F306      1.0  0.22576  0.43063  0.71514  1.0000
  F   F307      1.0  0.23510  0.92028  0.21808  1.0000
  F   F308      1.0  0.23326  0.92201  0.72398  1.0000
  F   F309      1.0  0.48556  0.41553  0.23473  1.0000
  F   F310      1.0  0.47739  0.41486  0.72880  1.0000
  F   F311      1.0  0.48981  0.92957  0.22047  1.0000
  F   F312      1.0  0.48504  0.91810  0.72666  1.0000
  F   F313      1.0  0.73175  0.39341  0.23909  1.0000
  F   F314      1.0  0.73091  0.41528  0.73755  1.0000
  F   F315      1.0  0.73559  0.92399  0.21958  1.0000
  F   F316      1.0  0.73115  0.91209  0.73108  1.0000
  F   F317      1.0  0.98350  0.42149  0.22202  1.0000
  F   F318      1.0  0.98831  0.41523  0.72770  1.0000
  F   F319      1.0  0.98451  0.91045  0.22048  1.0000
  F   F320      1.0  0.97976  0.93284  0.70949  1.0000
  F   F321      1.0  0.20635  0.46188  0.47413  1.0000
  F   F322      1.0  0.21810  0.45953  0.97268  1.0000
  F   F323      1.0  0.20209  0.97286  0.47923  1.0000
  F   F324      1.0  0.20374  0.96961  0.99173  1.0000
  F   F325      1.0  0.45455  0.46430  0.48213  1.0000
  F   F326      1.0  0.46281  0.47289  0.96556  1.0000
  F   F327      1.0  0.45627  0.97170  0.47831  1.0000
  F   F328      1.0  0.45046  0.97652  0.98381  1.0000
  F   F329      1.0  0.70671  0.46524  0.47353  1.0000
  F   F330      1.0  0.70792  0.46506  0.98598  1.0000
  F   F331      1.0  0.70596  0.96938  0.46637  1.0000
  F   F332      1.0  0.70134  0.97054  0.97022  1.0000
  F   F333      1.0  0.96341  0.46585  0.46322  1.0000
  F   F334      1.0  0.96199  0.46625  0.97969  1.0000
  F   F335      1.0  0.95389  0.97544  0.47908  1.0000
  F   F336      1.0  0.94891  0.97175  0.99052  1.0000
  F   F337      1.0  0.01623  0.09259  0.27799  1.0000
  F   F338      1.0  0.01435  0.08347  0.78167  1.0000
  F   F339      1.0  0.02041  0.58582  0.26696  1.0000
  F   F340      1.0  0.01390  0.57023  0.77509  1.0000
  F   F341      1.0  0.26237  0.09852  0.26283  1.0000
  F   F342      1.0  0.27107  0.06377  0.79084  1.0000
  F   F343      1.0  0.26838  0.58549  0.26507  1.0000
  F   F344      1.0  0.26440  0.59218  0.77868  1.0000
  F   F345      1.0  0.51761  0.06777  0.26719  1.0000
  F   F346      1.0  0.51610  0.08637  0.76490  1.0000
  F   F347      1.0  0.51549  0.58412  0.28365  1.0000
  F   F348      1.0  0.51389  0.59579  0.77095  1.0000
  F   F349      1.0  0.76555  0.09369  0.26387  1.0000
  F   F350      1.0  0.76901  0.07988  0.77446  1.0000
  F   F351      1.0  0.76703  0.58773  0.26248  1.0000
  F   F352      1.0  0.76564  0.58371  0.77422  1.0000
  F   F353      1.0  0.09725  0.42303  0.45612  1.0000
  F   F354      1.0  0.09737  0.41042  0.96766  1.0000
  F   F355      1.0  0.10005  0.89163  0.46369  1.0000
  F   F356      1.0  0.10028  0.90062  0.96402  1.0000
  F   F357      1.0  0.35051  0.43281  0.47214  1.0000
  F   F358      1.0  0.35020  0.40961  0.96227  1.0000
  F   F359      1.0  0.35200  0.90172  0.46159  1.0000
  F   F360      1.0  0.34739  0.89697  0.96091  1.0000
  F   F361      1.0  0.59207  0.41315  0.47335  1.0000
  F   F362      1.0  0.60539  0.38696  0.96384  1.0000
  F   F363      1.0  0.60402  0.91632  0.45441  1.0000
  F   F364      1.0  0.60354  0.91612  0.96080  1.0000
  F   F365      1.0  0.84994  0.42756  0.46876  1.0000
  F   F366      1.0  0.85219  0.40297  0.95536  1.0000
  F   F367      1.0  0.85525  0.90028  0.46805  1.0000
  F   F368      1.0  0.84744  0.90925  0.95818  1.0000
  F   F369      1.0  0.05118  0.30364  0.28416  1.0000
  F   F370      1.0  0.04847  0.30736  0.78714  1.0000
  F   F371      1.0  0.04426  0.79012  0.30072  1.0000
  F   F372      1.0  0.04625  0.79772  0.79053  1.0000
  F   F373      1.0  0.30215  0.28961  0.28637  1.0000
  F   F374      1.0  0.29061  0.29548  0.79489  1.0000
  F   F375      1.0  0.29182  0.80415  0.28960  1.0000
  F   F376      1.0  0.29525  0.80895  0.79876  1.0000
  F   F377      1.0  0.54409  0.29126  0.28880  1.0000
  F   F378      1.0  0.54396  0.30061  0.78260  1.0000
  F   F379      1.0  0.54476  0.80845  0.29286  1.0000
  F   F380      1.0  0.54181  0.79635  0.79394  1.0000
  F   F381      1.0  0.80557  0.30162  0.28668  1.0000
  F   F382      1.0  0.80011  0.29297  0.78755  1.0000
  F   F383      1.0  0.79301  0.80647  0.28957  1.0000
  F   F384      1.0  0.79959  0.79991  0.78363  1.0000
