data_image0
_chemical_formula_structural       Hf96F384
_chemical_formula_sum              "Hf96 F384"
_cell_length_a       31.0512
_cell_length_b       15.5277
_cell_length_c       15.5162
_cell_angle_alpha    63.342
_cell_angle_beta     63.342
_cell_angle_gamma    80.1625

_space_group_name_H-M_alt    "P 1"
_space_group_IT_number       1

loop_
  _space_group_symop_operation_xyz
  'x, y, z'

loop_
  _atom_site_type_symbol
  _atom_site_label
  _atom_site_symmetry_multiplicity
  _atom_site_fract_x
  _atom_site_fract_y
  _atom_site_fract_z
  _atom_site_occupancy
  Hf  Hf1       1.0  0.19670  0.10574  0.37117  1.0000
  Hf  Hf2       1.0  0.19196  0.11006  0.87745  1.0000
  Hf  Hf3       1.0  0.19670  0.61088  0.36686  1.0000
  Hf  Hf4       1.0  0.19768  0.60701  0.87495  1.0000
  Hf  Hf5       1.0  0.44394  0.10580  0.38323  1.0000
  Hf  Hf6       1.0  0.44727  0.11108  0.87372  1.0000
  Hf  Hf7       1.0  0.44544  0.60496  0.38080  1.0000
  Hf  Hf8       1.0  0.44857  0.60899  0.87541  1.0000
  Hf  Hf9       1.0  0.70022  0.11021  0.37201  1.0000
  Hf  Hf10      1.0  0.69270  0.10567  0.87474  1.0000
  Hf  Hf11      1.0  0.69652  0.61212  0.37557  1.0000
  Hf  Hf12      1.0  0.69555  0.59833  0.88218  1.0000
  Hf  Hf13      1.0  0.94521  0.10351  0.37839  1.0000
  Hf  Hf14      1.0  0.95131  0.10870  0.87446  1.0000
  Hf  Hf15      1.0  0.94328  0.60637  0.38068  1.0000
  Hf  Hf16      1.0  0.94096  0.60980  0.88237  1.0000
  Hf  Hf17      1.0  0.05363  0.39309  0.12303  1.0000
  Hf  Hf18      1.0  0.05494  0.39250  0.63013  1.0000
  Hf  Hf19      1.0  0.05300  0.89064  0.13089  1.0000
  Hf  Hf20      1.0  0.05961  0.89546  0.61759  1.0000
  Hf  Hf21      1.0  0.30427  0.40175  0.11286  1.0000
  Hf  Hf22      1.0  0.30591  0.40509  0.60614  1.0000
  Hf  Hf23      1.0  0.30469  0.89705  0.11592  1.0000
  Hf  Hf24      1.0  0.30212  0.90188  0.62549  1.0000
  Hf  Hf25      1.0  0.55154  0.39146  0.12372  1.0000
  Hf  Hf26      1.0  0.55613  0.38458  0.63053  1.0000
  Hf  Hf27      1.0  0.55183  0.88542  0.12690  1.0000
  Hf  Hf28      1.0  0.55279  0.88852  0.63264  1.0000
  Hf  Hf29      1.0  0.80639  0.39909  0.12162  1.0000
  Hf  Hf30      1.0  0.80625  0.39158  0.62617  1.0000
  Hf  Hf31      1.0  0.80502  0.88489  0.12978  1.0000
  Hf  Hf32      1.0  0.80344  0.89350  0.62597  1.0000
  Hf  Hf33      1.0  0.05798  0.18359  0.40659  1.0000
  Hf  Hf34      1.0  0.05330  0.18150  0.92516  1.0000
  Hf  Hf35      1.0  0.05497  0.68006  0.42111  1.0000
  Hf  Hf36      1.0  0.05516  0.67783  0.92363  1.0000
  Hf  Hf37      1.0  0.30820  0.18742  0.40352  1.0000
  Hf  Hf38      1.0  0.30200  0.17908  0.92420  1.0000
  Hf  Hf39      1.0  0.31033  0.68700  0.40493  1.0000
  Hf  Hf40      1.0  0.30760  0.69176  0.91471  1.0000
  Hf  Hf41      1.0  0.55849  0.18925  0.41283  1.0000
  Hf  Hf42      1.0  0.55546  0.18205  0.91437  1.0000
  Hf  Hf43      1.0  0.55306  0.67225  0.42362  1.0000
  Hf  Hf44      1.0  0.55419  0.67570  0.92126  1.0000
  Hf  Hf45      1.0  0.80430  0.18074  0.42210  1.0000
  Hf  Hf46      1.0  0.80449  0.17846  0.92443  1.0000
  Hf  Hf47      1.0  0.80664  0.68337  0.42560  1.0000
  Hf  Hf48      1.0  0.80516  0.68063  0.92049  1.0000
  Hf  Hf49      1.0  0.15530  0.37990  0.34258  1.0000
  Hf  Hf50      1.0  0.15784  0.38570  0.82860  1.0000
  Hf  Hf51      1.0  0.15809  0.88581  0.33621  1.0000
  Hf  Hf52      1.0  0.15394  0.89722  0.82873  1.0000
  Hf  Hf53      1.0  0.40883  0.38172  0.33832  1.0000
  Hf  Hf54      1.0  0.40992  0.38655  0.83190  1.0000
  Hf  Hf55      1.0  0.40948  0.88948  0.33078  1.0000
  Hf  Hf56      1.0  0.41067  0.89294  0.82744  1.0000
  Hf  Hf57      1.0  0.66113  0.38864  0.33712  1.0000
  Hf  Hf58      1.0  0.66374  0.38313  0.82576  1.0000
  Hf  Hf59      1.0  0.65544  0.88701  0.34443  1.0000
  Hf  Hf60      1.0  0.65730  0.87319  0.84702  1.0000
  Hf  Hf61      1.0  0.90848  0.39409  0.33596  1.0000
  Hf  Hf62      1.0  0.90651  0.39183  0.83143  1.0000
  Hf  Hf63      1.0  0.90793  0.89620  0.33145  1.0000
  Hf  Hf64      1.0  0.91081  0.89070  0.82666  1.0000
  Hf  Hf65      1.0  0.19330  0.32194  0.08199  1.0000
  Hf  Hf66      1.0  0.19658  0.32395  0.57244  1.0000
  Hf  Hf67      1.0  0.19276  0.81995  0.08600  1.0000
  Hf  Hf68      1.0  0.19659  0.81146  0.57825  1.0000
  Hf  Hf69      1.0  0.44214  0.32278  0.08101  1.0000
  Hf  Hf70      1.0  0.44369  0.31998  0.58005  1.0000
  Hf  Hf71      1.0  0.44473  0.80978  0.08286  1.0000
  Hf  Hf72      1.0  0.44251  0.81782  0.58316  1.0000
  Hf  Hf73      1.0  0.69160  0.31418  0.09058  1.0000
  Hf  Hf74      1.0  0.69688  0.32145  0.57645  1.0000
  Hf  Hf75      1.0  0.69727  0.81526  0.08394  1.0000
  Hf  Hf76      1.0  0.69279  0.81083  0.59100  1.0000
  Hf  Hf77      1.0  0.94565  0.32461  0.08508  1.0000
  Hf  Hf78      1.0  0.94671  0.30601  0.59128  1.0000
  Hf  Hf79      1.0  0.94523  0.82666  0.07584  1.0000
  Hf  Hf80      1.0  0.94597  0.81896  0.58130  1.0000
  Hf  Hf81      1.0  0.09217  0.11751  0.16200  1.0000
  Hf  Hf82      1.0  0.09371  0.11743  0.65683  1.0000
  Hf  Hf83      1.0  0.08973  0.60651  0.17098  1.0000
  Hf  Hf84      1.0  0.08691  0.60635  0.67645  1.0000
  Hf  Hf85      1.0  0.34165  0.11241  0.15891  1.0000
  Hf  Hf86      1.0  0.34050  0.11802  0.66634  1.0000
  Hf  Hf87      1.0  0.34362  0.60950  0.16473  1.0000
  Hf  Hf88      1.0  0.33624  0.61513  0.66806  1.0000
  Hf  Hf89      1.0  0.59035  0.10783  0.16741  1.0000
  Hf  Hf90      1.0  0.59353  0.10275  0.67084  1.0000
  Hf  Hf91      1.0  0.59175  0.61024  0.16588  1.0000
  Hf  Hf92      1.0  0.59011  0.60916  0.66506  1.0000
  Hf  Hf93      1.0  0.84091  0.11468  0.16716  1.0000
  Hf  Hf94      1.0  0.84601  0.10647  0.65948  1.0000
  Hf  Hf95      1.0  0.83672  0.60839  0.17608  1.0000
  Hf  Hf96      1.0  0.84163  0.61692  0.67116  1.0000
  F   F1        1.0  0.07534  0.12039  0.29994  1.0000
  F   F2        1.0  0.07720  0.13122  0.79778  1.0000
  F   F3        1.0  0.07058  0.63039  0.30632  1.0000
  F   F4        1.0  0.08439  0.64205  0.79370  1.0000
  F   F5        1.0  0.33254  0.13128  0.29523  1.0000
  F   F6        1.0  0.32348  0.11609  0.80866  1.0000
  F   F7        1.0  0.33743  0.63618  0.28757  1.0000
  F   F8        1.0  0.32239  0.62954  0.81170  1.0000
  F   F9        1.0  0.57743  0.12700  0.30007  1.0000
  F   F10       1.0  0.58056  0.13115  0.79981  1.0000
  F   F11       1.0  0.57069  0.62161  0.31295  1.0000
  F   F12       1.0  0.58264  0.64158  0.79005  1.0000
  F   F13       1.0  0.82642  0.13229  0.30904  1.0000
  F   F14       1.0  0.82281  0.13119  0.81209  1.0000
  F   F15       1.0  0.82648  0.62785  0.30770  1.0000
  F   F16       1.0  0.82703  0.61485  0.81446  1.0000
  F   F17       1.0  0.18965  0.34487  0.43758  1.0000
  F   F18       1.0  0.17409  0.32351  0.95796  1.0000
  F   F19       1.0  0.17626  0.82905  0.45344  1.0000
  F   F20       1.0  0.18176  0.84128  0.95359  1.0000
  F   F21       1.0  0.44092  0.34513  0.43964  1.0000
  F   F22       1.0  0.43003  0.34307  0.95096  1.0000
  F   F23       1.0  0.43136  0.83489  0.45566  1.0000
  F   F24       1.0  0.43932  0.82850  0.94104  1.0000
  F   F25       1.0  0.68896  0.34527  0.44737  1.0000
  F   F26       1.0  0.69084  0.33471  0.94918  1.0000
  F   F27       1.0  0.67699  0.84465  0.45863  1.0000
  F   F28       1.0  0.68783  0.83623  0.95047  1.0000
  F   F29       1.0  0.93779  0.34921  0.43940  1.0000
  F   F30       1.0  0.92873  0.34240  0.95195  1.0000
  F   F31       1.0  0.93663  0.83930  0.43539  1.0000
  F   F32       1.0  0.94699  0.85901  0.92869  1.0000
  F   F33       1.0  0.17069  0.37528  0.19209  1.0000
  F   F34       1.0  0.17797  0.37928  0.68822  1.0000
  F   F35       1.0  0.16922  0.87488  0.19429  1.0000
  F   F36       1.0  0.17580  0.86554  0.69358  1.0000
  F   F37       1.0  0.42385  0.38192  0.19073  1.0000
  F   F38       1.0  0.41245  0.36571  0.70343  1.0000
  F   F39       1.0  0.42105  0.86716  0.19545  1.0000
  F   F40       1.0  0.41867  0.87815  0.69660  1.0000
  F   F41       1.0  0.66911  0.37030  0.20663  1.0000
  F   F42       1.0  0.67182  0.36990  0.68649  1.0000
  F   F43       1.0  0.66412  0.83959  0.21088  1.0000
  F   F44       1.0  0.67020  0.86289  0.70606  1.0000
  F   F45       1.0  0.91950  0.36185  0.20035  1.0000
  F   F46       1.0  0.92774  0.37186  0.69414  1.0000
  F   F47       1.0  0.91911  0.87451  0.19834  1.0000
  F   F48       1.0  0.91629  0.86151  0.70694  1.0000
  F   F49       1.0  0.06952  0.16340  0.04403  1.0000
  F   F50       1.0  0.06463  0.15549  0.55631  1.0000
  F   F51       1.0  0.06260  0.64727  0.06455  1.0000
  F   F52       1.0  0.05865  0.64814  0.55627  1.0000
  F   F53       1.0  0.30230  0.14478  0.06695  1.0000
  F   F54       1.0  0.31764  0.16778  0.54310  1.0000
  F   F55       1.0  0.32202  0.65398  0.04984  1.0000
  F   F56       1.0  0.30381  0.66192  0.56282  1.0000
  F   F57       1.0  0.55298  0.15452  0.06909  1.0000
  F   F58       1.0  0.56825  0.17519  0.54706  1.0000
  F   F59       1.0  0.57262  0.65527  0.03968  1.0000
  F   F60       1.0  0.55765  0.64920  0.55914  1.0000
  F   F61       1.0  0.81838  0.17474  0.04994  1.0000
  F   F62       1.0  0.82177  0.16765  0.54636  1.0000
  F   F63       1.0  0.81918  0.66666  0.04429  1.0000
  F   F64       1.0  0.81729  0.66511  0.55051  1.0000
  F   F65       1.0  0.20537  0.20707  0.21872  1.0000
  F   F66       1.0  0.18859  0.21019  0.71619  1.0000
  F   F67       1.0  0.21132  0.70634  0.20701  1.0000
  F   F68       1.0  0.21619  0.69477  0.70091  1.0000
  F   F69       1.0  0.44636  0.20617  0.20341  1.0000
  F   F70       1.0  0.45488  0.20082  0.71340  1.0000
  F   F71       1.0  0.44805  0.69345  0.22575  1.0000
  F   F72       1.0  0.45582  0.70212  0.70675  1.0000
  F   F73       1.0  0.71041  0.21512  0.21825  1.0000
  F   F74       1.0  0.69962  0.19472  0.71263  1.0000
  F   F75       1.0  0.71459  0.70569  0.21070  1.0000
  F   F76       1.0  0.71172  0.69941  0.71175  1.0000
  F   F77       1.0  0.94785  0.19617  0.21299  1.0000
  F   F78       1.0  0.95545  0.19435  0.71184  1.0000
  F   F79       1.0  0.93249  0.70935  0.20184  1.0000
  F   F80       1.0  0.95735  0.70220  0.70903  1.0000
  F   F81       1.0  0.15280  0.10183  0.03807  1.0000
  F   F82       1.0  0.15155  0.07751  0.51770  1.0000
  F   F83       1.0  0.14970  0.58287  0.04397  1.0000
  F   F84       1.0  0.14748  0.62272  0.52699  1.0000
  F   F85       1.0  0.39924  0.07377  0.02973  1.0000
  F   F86       1.0  0.39190  0.08312  0.54549  1.0000
  F   F87       1.0  0.40625  0.59782  0.03206  1.0000
  F   F88       1.0  0.39620  0.60629  0.53857  1.0000
  F   F89       1.0  0.64528  0.11011  0.03169  1.0000
  F   F90       1.0  0.65077  0.08562  0.53757  1.0000
  F   F91       1.0  0.65206  0.59495  0.03924  1.0000
  F   F92       1.0  0.64797  0.58479  0.53104  1.0000
  F   F93       1.0  0.90575  0.08342  0.03567  1.0000
  F   F94       1.0  0.90388  0.08461  0.53450  1.0000
  F   F95       1.0  0.89728  0.59125  0.03017  1.0000
  F   F96       1.0  0.89848  0.61311  0.53873  1.0000
  F   F97       1.0  0.15023  0.20181  0.14073  1.0000
  F   F98       1.0  0.15219  0.20349  0.59001  1.0000
  F   F99       1.0  0.14887  0.69479  0.13537  1.0000
  F   F100      1.0  0.15872  0.68858  0.63034  1.0000
  F   F101      1.0  0.40118  0.18907  0.11130  1.0000
  F   F102      1.0  0.40524  0.20187  0.60622  1.0000
  F   F103      1.0  0.40393  0.69433  0.11628  1.0000
  F   F104      1.0  0.39659  0.69508  0.64139  1.0000
  F   F105      1.0  0.65048  0.19507  0.14401  1.0000
  F   F106      1.0  0.64478  0.20438  0.62920  1.0000
  F   F107      1.0  0.65571  0.70191  0.14307  1.0000
  F   F108      1.0  0.65814  0.69824  0.60483  1.0000
  F   F109      1.0  0.89580  0.20891  0.13411  1.0000
  F   F110      1.0  0.89994  0.19006  0.63974  1.0000
  F   F111      1.0  0.89578  0.69432  0.10105  1.0000
  F   F112      1.0  0.89865  0.70547  0.64758  1.0000
  F   F113      1.0  0.09541  0.30531  0.36756  1.0000
  F   F114      1.0  0.10765  0.28125  0.86775  1.0000
  F   F115      1.0  0.09655  0.79674  0.38242  1.0000
  F   F116      1.0  0.09432  0.79829  0.88202  1.0000
  F   F117      1.0  0.34949  0.30938  0.37334  1.0000
  F   F118      1.0  0.34250  0.29967  0.91775  1.0000
  F   F119      1.0  0.35419  0.79828  0.37203  1.0000
  F   F120      1.0  0.35122  0.80183  0.89021  1.0000
  F   F121      1.0  0.59995  0.31253  0.37020  1.0000
  F   F122      1.0  0.60384  0.30324  0.86156  1.0000
  F   F123      1.0  0.59521  0.81159  0.37998  1.0000
  F   F124      1.0  0.59441  0.80085  0.87899  1.0000
  F   F125      1.0  0.84908  0.31437  0.39023  1.0000
  F   F126      1.0  0.84758  0.31770  0.86422  1.0000
  F   F127      1.0  0.84845  0.79712  0.38677  1.0000
  F   F128      1.0  0.84434  0.79881  0.88848  1.0000
  F   F129      1.0  0.07853  0.25790  0.11735  1.0000
  F   F130      1.0  0.05837  0.24991  0.65906  1.0000
  F   F131      1.0  0.07032  0.74894  0.15097  1.0000
  F   F132      1.0  0.07644  0.75227  0.61949  1.0000
  F   F133      1.0  0.31745  0.25164  0.12867  1.0000
  F   F134      1.0  0.30733  0.25796  0.65584  1.0000
  F   F135      1.0  0.31352  0.74724  0.13671  1.0000
  F   F136      1.0  0.30874  0.75659  0.65183  1.0000
  F   F137      1.0  0.56574  0.25157  0.12966  1.0000
  F   F138      1.0  0.56232  0.25453  0.64498  1.0000
  F   F139      1.0  0.56868  0.73838  0.14244  1.0000
  F   F140      1.0  0.56765  0.74918  0.62522  1.0000
  F   F141      1.0  0.80616  0.25108  0.16500  1.0000
  F   F142      1.0  0.81762  0.24667  0.64472  1.0000
  F   F143      1.0  0.80927  0.74788  0.15276  1.0000
  F   F144      1.0  0.80995  0.74514  0.65102  1.0000
  F   F145      1.0  0.12759  0.39614  0.08382  1.0000
  F   F146      1.0  0.12493  0.34540  0.62638  1.0000
  F   F147      1.0  0.12318  0.88848  0.10459  1.0000
  F   F148      1.0  0.12653  0.86857  0.60860  1.0000
  F   F149      1.0  0.37514  0.35122  0.11725  1.0000
  F   F150      1.0  0.37595  0.36141  0.61167  1.0000
  F   F151      1.0  0.37286  0.86287  0.10539  1.0000
  F   F152      1.0  0.37091  0.87947  0.61116  1.0000
  F   F153      1.0  0.62227  0.38081  0.10235  1.0000
  F   F154      1.0  0.62446  0.37402  0.60917  1.0000
  F   F155      1.0  0.62195  0.87554  0.10277  1.0000
  F   F156      1.0  0.61845  0.85097  0.63069  1.0000
  F   F157      1.0  0.87823  0.38528  0.09078  1.0000
  F   F158      1.0  0.87640  0.35159  0.62313  1.0000
  F   F159      1.0  0.87712  0.86378  0.10870  1.0000
  F   F160      1.0  0.87701  0.88486  0.59152  1.0000
  F   F161      1.0  0.17637  0.23831  0.37997  1.0000
  F   F162      1.0  0.18906  0.24510  0.85011  1.0000
  F   F163      1.0  0.18480  0.75519  0.34668  1.0000
  F   F164      1.0  0.17926  0.74600  0.86793  1.0000
  F   F165      1.0  0.44089  0.24641  0.35745  1.0000
  F   F166      1.0  0.43793  0.25287  0.85131  1.0000
  F   F167      1.0  0.43680  0.75427  0.35817  1.0000
  F   F168      1.0  0.44020  0.74206  0.84723  1.0000
  F   F169      1.0  0.67267  0.24670  0.38421  1.0000
  F   F170      1.0  0.68731  0.25083  0.84706  1.0000
  F   F171      1.0  0.68185  0.75053  0.37171  1.0000
  F   F172      1.0  0.68835  0.74016  0.86295  1.0000
  F   F173      1.0  0.93552  0.24889  0.35173  1.0000
  F   F174      1.0  0.93239  0.24306  0.85933  1.0000
  F   F175      1.0  0.93949  0.75009  0.34387  1.0000
  F   F176      1.0  0.93597  0.76048  0.85762  1.0000
  F   F177      1.0  0.12740  0.12614  0.37027  1.0000
  F   F178      1.0  0.12427  0.11718  0.89973  1.0000
  F   F179      1.0  0.12464  0.63465  0.38102  1.0000
  F   F180      1.0  0.12924  0.62635  0.89168  1.0000
  F   F181      1.0  0.37538  0.13487  0.37633  1.0000
  F   F182      1.0  0.37427  0.14664  0.88057  1.0000
  F   F183      1.0  0.37007  0.61639  0.40536  1.0000
  F   F184      1.0  0.37794  0.62824  0.88670  1.0000
  F   F185      1.0  0.62768  0.13602  0.37670  1.0000
  F   F186      1.0  0.62213  0.13446  0.90040  1.0000
  F   F187      1.0  0.62803  0.64911  0.37770  1.0000
  F   F188      1.0  0.62735  0.61797  0.88899  1.0000
  F   F189      1.0  0.87242  0.14338  0.39450  1.0000
  F   F190      1.0  0.87713  0.13297  0.88814  1.0000
  F   F191      1.0  0.87191  0.61114  0.40757  1.0000
  F   F192      1.0  0.87654  0.65051  0.87397  1.0000
  F   F193      1.0  0.00706  0.35989  0.08731  1.0000
  F   F194      1.0  0.00852  0.36305  0.57078  1.0000
  F   F195      1.0  0.00739  0.83950  0.09609  1.0000
  F   F196      1.0  0.00595  0.86512  0.57450  1.0000
  F   F197      1.0  0.25410  0.35723  0.08158  1.0000
  F   F198      1.0  0.26107  0.37279  0.54923  1.0000
  F   F199      1.0  0.25660  0.86767  0.06011  1.0000
  F   F200      1.0  0.26035  0.85409  0.57693  1.0000
  F   F201      1.0  0.50728  0.35871  0.07305  1.0000
  F   F202      1.0  0.50680  0.37146  0.57380  1.0000
  F   F203      1.0  0.51089  0.87115  0.06532  1.0000
  F   F204      1.0  0.50435  0.86130  0.57692  1.0000
  F   F205      1.0  0.75687  0.36522  0.07150  1.0000
  F   F206      1.0  0.76140  0.35993  0.56363  1.0000
  F   F207      1.0  0.76179  0.87401  0.06288  1.0000
  F   F208      1.0  0.75312  0.87962  0.57404  1.0000
  F   F209      1.0  0.06620  0.48303  0.18464  1.0000
  F   F210      1.0  0.07175  0.48355  0.67262  1.0000
  F   F211      1.0  0.07076  0.00012  0.16181  1.0000
  F   F212      1.0  0.07327  0.98800  0.66314  1.0000
  F   F213      1.0  0.32841  0.48850  0.15541  1.0000
  F   F214      1.0  0.31650  0.49366  0.66199  1.0000
  F   F215      1.0  0.32336  0.98123  0.16243  1.0000
  F   F216      1.0  0.30990  0.99282  0.69490  1.0000
  F   F217      1.0  0.56950  0.48552  0.18477  1.0000
  F   F218      1.0  0.56786  0.47597  0.68862  1.0000
  F   F219      1.0  0.57272  0.98524  0.17832  1.0000
  F   F220      1.0  0.57475  0.98617  0.67034  1.0000
  F   F221      1.0  0.81536  0.48108  0.18970  1.0000
  F   F222      1.0  0.82817  0.48608  0.66165  1.0000
  F   F223      1.0  0.81770  0.98358  0.18065  1.0000
  F   F224      1.0  0.82053  0.96717  0.69080  1.0000
  F   F225      1.0  0.24826  0.13880  0.40249  1.0000
  F   F226      1.0  0.24099  0.14038  0.93217  1.0000
  F   F227      1.0  0.25057  0.63668  0.38910  1.0000
  F   F228      1.0  0.24151  0.65333  0.92623  1.0000
  F   F229      1.0  0.49568  0.12951  0.43209  1.0000
  F   F230      1.0  0.49093  0.12035  0.94642  1.0000
  F   F231      1.0  0.48811  0.62178  0.44219  1.0000
  F   F232      1.0  0.49706  0.62591  0.92322  1.0000
  F   F233      1.0  0.74031  0.14792  0.42598  1.0000
  F   F234      1.0  0.73778  0.13598  0.92280  1.0000
  F   F235      1.0  0.74466  0.64581  0.42415  1.0000
  F   F236      1.0  0.74258  0.62236  0.94057  1.0000
  F   F237      1.0  0.99172  0.13761  0.41582  1.0000
  F   F238      1.0  0.99464  0.14795  0.92049  1.0000
  F   F239      1.0  0.98934  0.62175  0.44489  1.0000
  F   F240      1.0  0.98853  0.63748  0.93028  1.0000
  F   F241      1.0  0.18481  0.00715  0.31594  1.0000
  F   F242      1.0  0.18078  0.01298  0.80533  1.0000
  F   F243      1.0  0.17330  0.52421  0.32151  1.0000
  F   F244      1.0  0.18621  0.51375  0.81856  1.0000
  F   F245      1.0  0.43600  0.01033  0.31779  1.0000
  F   F246      1.0  0.43983  0.02355  0.81212  1.0000
  F   F247      1.0  0.42564  0.50572  0.34052  1.0000
  F   F248      1.0  0.43477  0.51250  0.81839  1.0000
  F   F249      1.0  0.67998  0.01650  0.32910  1.0000
  F   F250      1.0  0.68185  0.01025  0.83192  1.0000
  F   F251      1.0  0.67864  0.52343  0.32725  1.0000
  F   F252      1.0  0.69098  0.50341  0.81792  1.0000
  F   F253      1.0  0.92085  0.01259  0.34695  1.0000
  F   F254      1.0  0.92957  0.01276  0.83602  1.0000
  F   F255      1.0  0.93551  0.52120  0.30656  1.0000
  F   F256      1.0  0.92968  0.50990  0.84072  1.0000
  F   F257      1.0  0.00016  0.25299  0.00467  1.0000
  F   F258      1.0  0.00682  0.26187  0.47873  1.0000
  F   F259      1.0  0.99546  0.74709  0.00207  1.0000
  F   F260      1.0  0.00070  0.76268  0.49187  1.0000
  F   F261      1.0  0.24937  0.26089  0.98554  1.0000
  F   F262      1.0  0.24520  0.22930  0.50013  1.0000
  F   F263      1.0  0.24993  0.74494  0.01389  1.0000
  F   F264      1.0  0.25014  0.75103  0.47873  1.0000
  F   F265      1.0  0.49945  0.26251  0.97940  1.0000
  F   F266      1.0  0.50349  0.26228  0.48475  1.0000
  F   F267      1.0  0.49448  0.71916  0.01355  1.0000
  F   F268      1.0  0.49590  0.73859  0.50223  1.0000
  F   F269      1.0  0.74946  0.23096  0.01523  1.0000
  F   F270      1.0  0.74750  0.24142  0.50984  1.0000
  F   F271      1.0  0.75552  0.75867  0.99462  1.0000
  F   F272      1.0  0.75399  0.76113  0.50619  1.0000
  F   F273      1.0  0.13056  0.00165  0.24390  1.0000
  F   F274      1.0  0.12422  0.00562  0.74268  1.0000
  F   F275      1.0  0.11406  0.48772  0.27400  1.0000
  F   F276      1.0  0.11820  0.48592  0.74747  1.0000
  F   F277      1.0  0.37281  0.00552  0.25526  1.0000
  F   F278      1.0  0.37774  0.01424  0.73182  1.0000
  F   F279      1.0  0.37256  0.49553  0.25346  1.0000
  F   F280      1.0  0.37240  0.49644  0.74471  1.0000
  F   F281      1.0  0.63398  0.00340  0.23421  1.0000
  F   F282      1.0  0.63375  0.99726  0.75466  1.0000
  F   F283      1.0  0.62374  0.49997  0.25166  1.0000
  F   F284      1.0  0.62360  0.49918  0.74489  1.0000
  F   F285      1.0  0.87948  0.02168  0.23980  1.0000
  F   F286      1.0  0.89027  0.01356  0.73335  1.0000
  F   F287      1.0  0.87427  0.50743  0.25658  1.0000
  F   F288      1.0  0.88443  0.51544  0.73659  1.0000
  F   F289      1.0  0.03802  0.03064  0.02386  1.0000
  F   F290      1.0  0.04919  0.03497  0.51220  1.0000
  F   F291      1.0  0.04565  0.53680  0.01674  1.0000
  F   F292      1.0  0.04742  0.51801  0.51583  1.0000
  F   F293      1.0  0.29578  0.02523  0.00340  1.0000
  F   F294      1.0  0.28713  0.03104  0.51870  1.0000
  F   F295      1.0  0.28741  0.54071  0.02760  1.0000
  F   F296      1.0  0.28466  0.53743  0.51720  1.0000
  F   F297      1.0  0.54980  0.02432  0.03172  1.0000
  F   F298      1.0  0.54440  0.02649  0.53701  1.0000
  F   F299      1.0  0.54013  0.52475  0.02273  1.0000
  F   F300      1.0  0.54157  0.53136  0.53392  1.0000
  F   F301      1.0  0.79112  0.03123  0.03946  1.0000
  F   F302      1.0  0.78897  0.03517  0.53083  1.0000
  F   F303      1.0  0.78730  0.53605  0.03723  1.0000
  F   F304      1.0  0.78096  0.53765  0.54641  1.0000
  F   F305      1.0  0.23284  0.40703  0.22703  1.0000
  F   F306      1.0  0.24084  0.41233  0.70298  1.0000
  F   F307      1.0  0.23502  0.91220  0.22408  1.0000
  F   F308      1.0  0.23361  0.90480  0.72920  1.0000
  F   F309      1.0  0.48365  0.39785  0.22971  1.0000
  F   F310      1.0  0.48290  0.40490  0.72772  1.0000
  F   F311      1.0  0.48811  0.92172  0.21956  1.0000
  F   F312      1.0  0.48644  0.91450  0.73334  1.0000
  F   F313      1.0  0.73398  0.39660  0.24460  1.0000
  F   F314      1.0  0.73609  0.40454  0.71773  1.0000
  F   F315      1.0  0.72490  0.91464  0.22583  1.0000
  F   F316      1.0  0.73545  0.91613  0.72462  1.0000
  F   F317      1.0  0.98660  0.42791  0.22083  1.0000
  F   F318      1.0  0.98282  0.40368  0.72786  1.0000
  F   F319      1.0  0.98089  0.92854  0.21435  1.0000
  F   F320      1.0  0.98551  0.92801  0.70953  1.0000
  F   F321      1.0  0.18863  0.47298  0.48654  1.0000
  F   F322      1.0  0.21475  0.47025  0.96910  1.0000
  F   F323      1.0  0.21083  0.96015  0.46815  1.0000
  F   F324      1.0  0.19643  0.97915  0.97631  1.0000
  F   F325      1.0  0.45222  0.46775  0.49149  1.0000
  F   F326      1.0  0.45673  0.47437  0.98484  1.0000
  F   F327      1.0  0.45419  0.96532  0.48009  1.0000
  F   F328      1.0  0.45339  0.95670  0.98690  1.0000
  F   F329      1.0  0.71270  0.47434  0.46800  1.0000
  F   F330      1.0  0.70048  0.46218  0.98386  1.0000
  F   F331      1.0  0.70488  0.96877  0.47957  1.0000
  F   F332      1.0  0.70811  0.97306  0.96933  1.0000
  F   F333      1.0  0.95350  0.46956  0.47333  1.0000
  F   F334      1.0  0.96488  0.47047  0.97913  1.0000
  F   F335      1.0  0.96286  0.96750  0.46452  1.0000
  F   F336      1.0  0.96776  0.96977  0.97929  1.0000
  F   F337      1.0  0.01670  0.09455  0.25674  1.0000
  F   F338      1.0  0.01877  0.06951  0.79044  1.0000
  F   F339      1.0  0.00564  0.61021  0.26053  1.0000
  F   F340      1.0  0.01749  0.59311  0.76684  1.0000
  F   F341      1.0  0.26404  0.07973  0.26349  1.0000
  F   F342      1.0  0.25866  0.10052  0.76323  1.0000
  F   F343      1.0  0.26276  0.57126  0.26364  1.0000
  F   F344      1.0  0.27109  0.57455  0.78357  1.0000
  F   F345      1.0  0.51233  0.09784  0.27355  1.0000
  F   F346      1.0  0.51877  0.08010  0.77133  1.0000
  F   F347      1.0  0.51258  0.58526  0.26936  1.0000
  F   F348      1.0  0.51668  0.58601  0.76794  1.0000
  F   F349      1.0  0.76667  0.07684  0.27887  1.0000
  F   F350      1.0  0.77007  0.07924  0.76374  1.0000
  F   F351      1.0  0.76115  0.57004  0.27811  1.0000
  F   F352      1.0  0.76954  0.56822  0.78313  1.0000
  F   F353      1.0  0.10119  0.39453  0.47785  1.0000
  F   F354      1.0  0.09828  0.41627  0.94893  1.0000
  F   F355      1.0  0.10350  0.91410  0.45937  1.0000
  F   F356      1.0  0.09561  0.91606  0.94791  1.0000
  F   F357      1.0  0.34900  0.39786  0.46412  1.0000
  F   F358      1.0  0.35137  0.43488  0.95641  1.0000
  F   F359      1.0  0.35416  0.90903  0.45363  1.0000
  F   F360      1.0  0.35858  0.93101  0.94011  1.0000
  F   F361      1.0  0.60561  0.41739  0.45789  1.0000
  F   F362      1.0  0.60653  0.39718  0.95198  1.0000
  F   F363      1.0  0.59963  0.91577  0.46577  1.0000
  F   F364      1.0  0.59686  0.89307  0.95620  1.0000
  F   F365      1.0  0.85580  0.42269  0.47258  1.0000
  F   F366      1.0  0.83852  0.41543  0.97142  1.0000
  F   F367      1.0  0.84516  0.90583  0.46238  1.0000
  F   F368      1.0  0.85588  0.90196  0.96510  1.0000
  F   F369      1.0  0.04868  0.30161  0.27941  1.0000
  F   F370      1.0  0.04777  0.31161  0.79407  1.0000
  F   F371      1.0  0.04720  0.80317  0.28057  1.0000
  F   F372      1.0  0.04913  0.79929  0.77359  1.0000
  F   F373      1.0  0.29170  0.30825  0.28224  1.0000
  F   F374      1.0  0.30413  0.29454  0.79698  1.0000
  F   F375      1.0  0.29835  0.79505  0.28482  1.0000
  F   F376      1.0  0.29626  0.81484  0.79532  1.0000
  F   F377      1.0  0.54937  0.28287  0.28072  1.0000
  F   F378      1.0  0.53557  0.29234  0.80089  1.0000
  F   F379      1.0  0.54074  0.79513  0.29368  1.0000
  F   F380      1.0  0.54479  0.79062  0.79305  1.0000
  F   F381      1.0  0.80619  0.31315  0.28562  1.0000
  F   F382      1.0  0.79421  0.30539  0.79205  1.0000
  F   F383      1.0  0.79614  0.81042  0.29095  1.0000
  F   F384      1.0  0.80195  0.79518  0.77675  1.0000
