data_image0
_chemical_formula_structural       Hf96F384
_chemical_formula_sum              "Hf96 F384"
_cell_length_a       31.0082
_cell_length_b       15.5054
_cell_length_c       15.4978
_cell_angle_alpha    63.342
_cell_angle_beta     63.342
_cell_angle_gamma    80.1625

_space_group_name_H-M_alt    "P 1"
_space_group_IT_number       1

loop_
  _space_group_symop_operation_xyz
  'x, y, z'

loop_
  _atom_site_type_symbol
  _atom_site_label
  _atom_site_symmetry_multiplicity
  _atom_site_fract_x
  _atom_site_fract_y
  _atom_site_fract_z
  _atom_site_occupancy
  Hf  Hf1       1.0  0.19921  0.11891  0.35881  1.0000
  Hf  Hf2       1.0  0.19717  0.11053  0.87432  1.0000
  Hf  Hf3       1.0  0.19475  0.60525  0.37509  1.0000
  Hf  Hf4       1.0  0.19605  0.61475  0.87106  1.0000
  Hf  Hf5       1.0  0.44809  0.11130  0.37155  1.0000
  Hf  Hf6       1.0  0.44518  0.10330  0.87448  1.0000
  Hf  Hf7       1.0  0.44812  0.60969  0.37139  1.0000
  Hf  Hf8       1.0  0.44640  0.60375  0.86794  1.0000
  Hf  Hf9       1.0  0.69911  0.11140  0.37562  1.0000
  Hf  Hf10      1.0  0.69738  0.11313  0.86742  1.0000
  Hf  Hf11      1.0  0.69631  0.60658  0.37422  1.0000
  Hf  Hf12      1.0  0.69375  0.60383  0.88333  1.0000
  Hf  Hf13      1.0  0.94588  0.10394  0.37979  1.0000
  Hf  Hf14      1.0  0.94585  0.10941  0.87781  1.0000
  Hf  Hf15      1.0  0.94655  0.61211  0.37571  1.0000
  Hf  Hf16      1.0  0.94626  0.60379  0.87696  1.0000
  Hf  Hf17      1.0  0.05243  0.39951  0.11952  1.0000
  Hf  Hf18      1.0  0.05198  0.39526  0.62441  1.0000
  Hf  Hf19      1.0  0.05468  0.89438  0.12199  1.0000
  Hf  Hf20      1.0  0.05207  0.89468  0.62999  1.0000
  Hf  Hf21      1.0  0.30302  0.39211  0.12636  1.0000
  Hf  Hf22      1.0  0.30615  0.39313  0.61952  1.0000
  Hf  Hf23      1.0  0.30227  0.88558  0.12923  1.0000
  Hf  Hf24      1.0  0.30883  0.89433  0.62120  1.0000
  Hf  Hf25      1.0  0.55498  0.38304  0.13095  1.0000
  Hf  Hf26      1.0  0.55320  0.38835  0.62988  1.0000
  Hf  Hf27      1.0  0.55746  0.88889  0.11801  1.0000
  Hf  Hf28      1.0  0.55380  0.89234  0.62562  1.0000
  Hf  Hf29      1.0  0.80821  0.39429  0.11540  1.0000
  Hf  Hf30      1.0  0.80276  0.39390  0.62143  1.0000
  Hf  Hf31      1.0  0.80005  0.89148  0.12782  1.0000
  Hf  Hf32      1.0  0.80071  0.89010  0.63062  1.0000
  Hf  Hf33      1.0  0.05812  0.18237  0.41731  1.0000
  Hf  Hf34      1.0  0.05737  0.18187  0.91392  1.0000
  Hf  Hf35      1.0  0.05306  0.68403  0.42726  1.0000
  Hf  Hf36      1.0  0.05641  0.68532  0.91735  1.0000
  Hf  Hf37      1.0  0.30265  0.17825  0.42394  1.0000
  Hf  Hf38      1.0  0.30715  0.19248  0.90682  1.0000
  Hf  Hf39      1.0  0.30479  0.68705  0.41567  1.0000
  Hf  Hf40      1.0  0.30503  0.68154  0.91412  1.0000
  Hf  Hf41      1.0  0.55853  0.17791  0.42099  1.0000
  Hf  Hf42      1.0  0.55649  0.17816  0.91771  1.0000
  Hf  Hf43      1.0  0.55588  0.67771  0.41902  1.0000
  Hf  Hf44      1.0  0.55324  0.68211  0.92172  1.0000
  Hf  Hf45      1.0  0.80949  0.18975  0.41272  1.0000
  Hf  Hf46      1.0  0.80612  0.17972  0.91217  1.0000
  Hf  Hf47      1.0  0.80733  0.68289  0.41253  1.0000
  Hf  Hf48      1.0  0.80340  0.68082  0.92095  1.0000
  Hf  Hf49      1.0  0.16022  0.38739  0.33143  1.0000
  Hf  Hf50      1.0  0.15788  0.39430  0.82889  1.0000
  Hf  Hf51      1.0  0.15860  0.89531  0.32362  1.0000
  Hf  Hf52      1.0  0.15971  0.88993  0.83386  1.0000
  Hf  Hf53      1.0  0.41365  0.39113  0.32593  1.0000
  Hf  Hf54      1.0  0.40602  0.38369  0.84516  1.0000
  Hf  Hf55      1.0  0.41297  0.88149  0.33765  1.0000
  Hf  Hf56      1.0  0.40898  0.88769  0.83188  1.0000
  Hf  Hf57      1.0  0.65713  0.38468  0.33564  1.0000
  Hf  Hf58      1.0  0.65674  0.38737  0.83801  1.0000
  Hf  Hf59      1.0  0.65771  0.88842  0.33676  1.0000
  Hf  Hf60      1.0  0.65867  0.88926  0.83450  1.0000
  Hf  Hf61      1.0  0.91082  0.39219  0.32317  1.0000
  Hf  Hf62      1.0  0.90828  0.38683  0.82608  1.0000
  Hf  Hf63      1.0  0.90575  0.88580  0.34449  1.0000
  Hf  Hf64      1.0  0.90776  0.89090  0.83092  1.0000
  Hf  Hf65      1.0  0.19242  0.32711  0.07732  1.0000
  Hf  Hf66      1.0  0.19304  0.31132  0.59073  1.0000
  Hf  Hf67      1.0  0.19305  0.81713  0.08391  1.0000
  Hf  Hf68      1.0  0.19738  0.82807  0.57611  1.0000
  Hf  Hf69      1.0  0.44550  0.31940  0.08168  1.0000
  Hf  Hf70      1.0  0.44680  0.32207  0.58144  1.0000
  Hf  Hf71      1.0  0.44215  0.81006  0.09154  1.0000
  Hf  Hf72      1.0  0.44603  0.81990  0.58049  1.0000
  Hf  Hf73      1.0  0.69735  0.31306  0.08229  1.0000
  Hf  Hf74      1.0  0.69599  0.32646  0.57949  1.0000
  Hf  Hf75      1.0  0.69303  0.81588  0.08456  1.0000
  Hf  Hf76      1.0  0.69468  0.81455  0.58965  1.0000
  Hf  Hf77      1.0  0.94423  0.31749  0.07389  1.0000
  Hf  Hf78      1.0  0.94462  0.32078  0.57435  1.0000
  Hf  Hf79      1.0  0.94046  0.81969  0.08899  1.0000
  Hf  Hf80      1.0  0.94001  0.80632  0.59493  1.0000
  Hf  Hf81      1.0  0.09144  0.11799  0.16406  1.0000
  Hf  Hf82      1.0  0.09348  0.11528  0.65966  1.0000
  Hf  Hf83      1.0  0.09099  0.61777  0.16670  1.0000
  Hf  Hf84      1.0  0.08814  0.61011  0.67241  1.0000
  Hf  Hf85      1.0  0.34263  0.10693  0.16608  1.0000
  Hf  Hf86      1.0  0.34531  0.11505  0.66146  1.0000
  Hf  Hf87      1.0  0.33990  0.60961  0.16711  1.0000
  Hf  Hf88      1.0  0.33807  0.60607  0.67329  1.0000
  Hf  Hf89      1.0  0.59179  0.11108  0.16305  1.0000
  Hf  Hf90      1.0  0.59094  0.10949  0.67246  1.0000
  Hf  Hf91      1.0  0.59191  0.60988  0.16275  1.0000
  Hf  Hf92      1.0  0.59122  0.61398  0.66756  1.0000
  Hf  Hf93      1.0  0.84128  0.10969  0.17176  1.0000
  Hf  Hf94      1.0  0.84099  0.11092  0.66316  1.0000
  Hf  Hf95      1.0  0.83676  0.61111  0.17106  1.0000
  Hf  Hf96      1.0  0.84091  0.60712  0.67332  1.0000
  F   F1        1.0  0.07759  0.12059  0.31052  1.0000
  F   F2        1.0  0.07774  0.12704  0.80580  1.0000
  F   F3        1.0  0.07485  0.63091  0.31030  1.0000
  F   F4        1.0  0.07914  0.62310  0.81747  1.0000
  F   F5        1.0  0.33081  0.12219  0.30340  1.0000
  F   F6        1.0  0.32703  0.12821  0.80288  1.0000
  F   F7        1.0  0.32473  0.62821  0.30751  1.0000
  F   F8        1.0  0.33183  0.63194  0.79763  1.0000
  F   F9        1.0  0.57865  0.13020  0.30619  1.0000
  F   F10       1.0  0.58147  0.12272  0.80598  1.0000
  F   F11       1.0  0.58470  0.62458  0.29855  1.0000
  F   F12       1.0  0.57504  0.62719  0.80712  1.0000
  F   F13       1.0  0.83032  0.13906  0.29524  1.0000
  F   F14       1.0  0.82635  0.11372  0.80750  1.0000
  F   F15       1.0  0.82542  0.61226  0.31089  1.0000
  F   F16       1.0  0.82932  0.63045  0.80456  1.0000
  F   F17       1.0  0.18493  0.33408  0.45604  1.0000
  F   F18       1.0  0.18109  0.34560  0.95351  1.0000
  F   F19       1.0  0.18780  0.84597  0.44280  1.0000
  F   F20       1.0  0.19156  0.84679  0.93957  1.0000
  F   F21       1.0  0.43420  0.33711  0.44235  1.0000
  F   F22       1.0  0.43984  0.33767  0.94203  1.0000
  F   F23       1.0  0.44246  0.85654  0.44056  1.0000
  F   F24       1.0  0.42782  0.82668  0.95427  1.0000
  F   F25       1.0  0.68501  0.32807  0.45363  1.0000
  F   F26       1.0  0.69509  0.34378  0.93513  1.0000
  F   F27       1.0  0.68278  0.84180  0.45654  1.0000
  F   F28       1.0  0.67830  0.83371  0.95671  1.0000
  F   F29       1.0  0.93776  0.35466  0.43431  1.0000
  F   F30       1.0  0.92925  0.32988  0.95384  1.0000
  F   F31       1.0  0.93217  0.83203  0.45196  1.0000
  F   F32       1.0  0.93397  0.83677  0.94451  1.0000
  F   F33       1.0  0.16833  0.37508  0.19791  1.0000
  F   F34       1.0  0.16188  0.37518  0.70144  1.0000
  F   F35       1.0  0.17359  0.88380  0.18694  1.0000
  F   F36       1.0  0.17045  0.87586  0.69617  1.0000
  F   F37       1.0  0.42677  0.37650  0.18606  1.0000
  F   F38       1.0  0.42372  0.35560  0.70098  1.0000
  F   F39       1.0  0.42151  0.85793  0.20338  1.0000
  F   F40       1.0  0.41999  0.87376  0.69340  1.0000
  F   F41       1.0  0.66243  0.35063  0.21085  1.0000
  F   F42       1.0  0.66931  0.37204  0.69640  1.0000
  F   F43       1.0  0.67135  0.87264  0.19838  1.0000
  F   F44       1.0  0.66886  0.85884  0.71261  1.0000
  F   F45       1.0  0.91786  0.35435  0.20221  1.0000
  F   F46       1.0  0.92291  0.37342  0.69104  1.0000
  F   F47       1.0  0.91516  0.88301  0.19737  1.0000
  F   F48       1.0  0.91439  0.85998  0.70902  1.0000
  F   F49       1.0  0.06068  0.15703  0.05960  1.0000
  F   F50       1.0  0.05579  0.15260  0.56555  1.0000
  F   F51       1.0  0.06942  0.66066  0.04906  1.0000
  F   F52       1.0  0.05490  0.64111  0.57058  1.0000
  F   F53       1.0  0.31913  0.17847  0.04045  1.0000
  F   F54       1.0  0.31307  0.15542  0.55188  1.0000
  F   F55       1.0  0.30877  0.65800  0.05391  1.0000
  F   F56       1.0  0.30805  0.64433  0.56487  1.0000
  F   F57       1.0  0.55858  0.15065  0.05835  1.0000
  F   F58       1.0  0.55714  0.14244  0.56878  1.0000
  F   F59       1.0  0.55620  0.65386  0.06448  1.0000
  F   F60       1.0  0.57068  0.66143  0.54947  1.0000
  F   F61       1.0  0.81109  0.15972  0.06477  1.0000
  F   F62       1.0  0.81328  0.15610  0.55420  1.0000
  F   F63       1.0  0.80016  0.64017  0.07083  1.0000
  F   F64       1.0  0.81938  0.66423  0.54816  1.0000
  F   F65       1.0  0.20673  0.21002  0.20034  1.0000
  F   F66       1.0  0.19758  0.20502  0.72034  1.0000
  F   F67       1.0  0.20196  0.69367  0.21451  1.0000
  F   F68       1.0  0.21474  0.71292  0.70695  1.0000
  F   F69       1.0  0.44918  0.20378  0.21595  1.0000
  F   F70       1.0  0.46494  0.19545  0.72082  1.0000
  F   F71       1.0  0.45626  0.69616  0.20989  1.0000
  F   F72       1.0  0.46074  0.69872  0.68773  1.0000
  F   F73       1.0  0.70499  0.19454  0.21817  1.0000
  F   F74       1.0  0.70378  0.21063  0.72417  1.0000
  F   F75       1.0  0.69926  0.70876  0.21377  1.0000
  F   F76       1.0  0.70340  0.68363  0.71420  1.0000
  F   F77       1.0  0.95941  0.19888  0.21734  1.0000
  F   F78       1.0  0.95202  0.20768  0.68762  1.0000
  F   F79       1.0  0.95438  0.70895  0.21385  1.0000
  F   F80       1.0  0.95809  0.69390  0.71251  1.0000
  F   F81       1.0  0.14639  0.08212  0.04937  1.0000
  F   F82       1.0  0.14785  0.10276  0.53361  1.0000
  F   F83       1.0  0.15354  0.58495  0.05182  1.0000
  F   F84       1.0  0.14138  0.59796  0.54634  1.0000
  F   F85       1.0  0.39705  0.07972  0.02926  1.0000
  F   F86       1.0  0.40157  0.11250  0.53011  1.0000
  F   F87       1.0  0.39267  0.60771  0.03329  1.0000
  F   F88       1.0  0.40179  0.57532  0.53686  1.0000
  F   F89       1.0  0.64769  0.09675  0.03966  1.0000
  F   F90       1.0  0.64679  0.09679  0.54402  1.0000
  F   F91       1.0  0.64760  0.59341  0.03429  1.0000
  F   F92       1.0  0.65221  0.59569  0.54265  1.0000
  F   F93       1.0  0.90027  0.10446  0.03570  1.0000
  F   F94       1.0  0.89604  0.08370  0.53588  1.0000
  F   F95       1.0  0.89440  0.60437  0.03921  1.0000
  F   F96       1.0  0.90208  0.58060  0.53276  1.0000
  F   F97       1.0  0.15125  0.19995  0.13554  1.0000
  F   F98       1.0  0.15589  0.18869  0.62444  1.0000
  F   F99       1.0  0.14649  0.69603  0.13040  1.0000
  F   F100      1.0  0.14877  0.71063  0.64370  1.0000
  F   F101      1.0  0.39848  0.19310  0.12002  1.0000
  F   F102      1.0  0.40356  0.20144  0.63232  1.0000
  F   F103      1.0  0.40413  0.68885  0.13803  1.0000
  F   F104      1.0  0.40148  0.70069  0.60527  1.0000
  F   F105      1.0  0.65541  0.20092  0.11653  1.0000
  F   F106      1.0  0.65749  0.19894  0.63324  1.0000
  F   F107      1.0  0.64992  0.69165  0.12910  1.0000
  F   F108      1.0  0.65766  0.69899  0.61561  1.0000
  F   F109      1.0  0.90368  0.19471  0.12411  1.0000
  F   F110      1.0  0.89480  0.20614  0.60907  1.0000
  F   F111      1.0  0.89318  0.71068  0.13667  1.0000
  F   F112      1.0  0.90453  0.67597  0.63659  1.0000
  F   F113      1.0  0.09502  0.29902  0.38119  1.0000
  F   F114      1.0  0.09765  0.29676  0.89173  1.0000
  F   F115      1.0  0.10606  0.79309  0.36489  1.0000
  F   F116      1.0  0.10029  0.80590  0.86525  1.0000
  F   F117      1.0  0.35440  0.30364  0.38033  1.0000
  F   F118      1.0  0.34446  0.31193  0.87966  1.0000
  F   F119      1.0  0.34767  0.80928  0.37501  1.0000
  F   F120      1.0  0.34894  0.79946  0.87959  1.0000
  F   F121      1.0  0.59191  0.29615  0.40161  1.0000
  F   F122      1.0  0.59926  0.30371  0.86754  1.0000
  F   F123      1.0  0.59958  0.80587  0.37486  1.0000
  F   F124      1.0  0.60119  0.80745  0.88396  1.0000
  F   F125      1.0  0.84986  0.30822  0.37505  1.0000
  F   F126      1.0  0.85520  0.29527  0.86486  1.0000
  F   F127      1.0  0.84507  0.81287  0.38243  1.0000
  F   F128      1.0  0.84455  0.80028  0.87434  1.0000
  F   F129      1.0  0.07762  0.26624  0.10990  1.0000
  F   F130      1.0  0.06645  0.24672  0.64080  1.0000
  F   F131      1.0  0.05819  0.74712  0.14613  1.0000
  F   F132      1.0  0.06772  0.74586  0.63708  1.0000
  F   F133      1.0  0.30468  0.25355  0.16783  1.0000
  F   F134      1.0  0.31948  0.25114  0.62661  1.0000
  F   F135      1.0  0.31942  0.75223  0.13330  1.0000
  F   F136      1.0  0.31891  0.74969  0.62471  1.0000
  F   F137      1.0  0.56941  0.24744  0.13603  1.0000
  F   F138      1.0  0.57109  0.25245  0.63325  1.0000
  F   F139      1.0  0.57174  0.75119  0.12893  1.0000
  F   F140      1.0  0.56155  0.74702  0.65175  1.0000
  F   F141      1.0  0.82031  0.25806  0.14185  1.0000
  F   F142      1.0  0.80230  0.24523  0.65137  1.0000
  F   F143      1.0  0.81359  0.75017  0.13486  1.0000
  F   F144      1.0  0.81285  0.75028  0.63605  1.0000
  F   F145      1.0  0.12207  0.37515  0.11670  1.0000
  F   F146      1.0  0.12145  0.34564  0.62829  1.0000
  F   F147      1.0  0.12373  0.85576  0.11914  1.0000
  F   F148      1.0  0.12487  0.87652  0.60723  1.0000
  F   F149      1.0  0.37372  0.35300  0.11999  1.0000
  F   F150      1.0  0.37819  0.37476  0.60627  1.0000
  F   F151      1.0  0.36978  0.85817  0.12846  1.0000
  F   F152      1.0  0.37301  0.85756  0.61616  1.0000
  F   F153      1.0  0.62534  0.35789  0.10764  1.0000
  F   F154      1.0  0.62339  0.36921  0.60709  1.0000
  F   F155      1.0  0.62386  0.85770  0.12383  1.0000
  F   F156      1.0  0.62373  0.85421  0.62289  1.0000
  F   F157      1.0  0.88049  0.40146  0.08537  1.0000
  F   F158      1.0  0.87098  0.37286  0.60841  1.0000
  F   F159      1.0  0.87233  0.88060  0.10476  1.0000
  F   F160      1.0  0.87299  0.84680  0.62451  1.0000
  F   F161      1.0  0.18880  0.25213  0.35154  1.0000
  F   F162      1.0  0.17823  0.24509  0.87228  1.0000
  F   F163      1.0  0.18926  0.74772  0.34935  1.0000
  F   F164      1.0  0.18201  0.75183  0.86456  1.0000
  F   F165      1.0  0.44650  0.25009  0.34134  1.0000
  F   F166      1.0  0.43006  0.24677  0.87058  1.0000
  F   F167      1.0  0.43271  0.74374  0.37399  1.0000
  F   F168      1.0  0.43390  0.74552  0.84468  1.0000
  F   F169      1.0  0.68761  0.25223  0.35036  1.0000
  F   F170      1.0  0.67771  0.25179  0.86817  1.0000
  F   F171      1.0  0.67913  0.74906  0.36885  1.0000
  F   F172      1.0  0.69043  0.75096  0.85122  1.0000
  F   F173      1.0  0.93404  0.24845  0.36355  1.0000
  F   F174      1.0  0.94637  0.25037  0.84075  1.0000
  F   F175      1.0  0.93013  0.74889  0.37191  1.0000
  F   F176      1.0  0.93769  0.74399  0.85580  1.0000
  F   F177      1.0  0.12791  0.12866  0.39152  1.0000
  F   F178      1.0  0.12585  0.13133  0.89518  1.0000
  F   F179      1.0  0.12184  0.61811  0.40421  1.0000
  F   F180      1.0  0.12921  0.63127  0.89409  1.0000
  F   F181      1.0  0.37307  0.13720  0.40065  1.0000
  F   F182      1.0  0.37461  0.14356  0.87806  1.0000
  F   F183      1.0  0.37594  0.64405  0.37170  1.0000
  F   F184      1.0  0.37527  0.62560  0.88677  1.0000
  F   F185      1.0  0.62688  0.13835  0.39454  1.0000
  F   F186      1.0  0.62626  0.12833  0.89807  1.0000
  F   F187      1.0  0.62577  0.62654  0.39474  1.0000
  F   F188      1.0  0.62287  0.62673  0.90481  1.0000
  F   F189      1.0  0.87565  0.13464  0.38681  1.0000
  F   F190      1.0  0.87439  0.12796  0.89101  1.0000
  F   F191      1.0  0.87727  0.64328  0.38060  1.0000
  F   F192      1.0  0.87550  0.62010  0.89836  1.0000
  F   F193      1.0  0.00429  0.35780  0.07623  1.0000
  F   F194      1.0  0.00943  0.34698  0.58516  1.0000
  F   F195      1.0  0.01012  0.87210  0.06556  1.0000
  F   F196      1.0  0.00619  0.85435  0.59224  1.0000
  F   F197      1.0  0.25986  0.36569  0.07478  1.0000
  F   F198      1.0  0.25519  0.35780  0.58859  1.0000
  F   F199      1.0  0.25899  0.84786  0.08506  1.0000
  F   F200      1.0  0.26140  0.87742  0.56132  1.0000
  F   F201      1.0  0.51234  0.36063  0.07050  1.0000
  F   F202      1.0  0.51391  0.35803  0.56638  1.0000
  F   F203      1.0  0.50724  0.84845  0.07514  1.0000
  F   F204      1.0  0.50611  0.86942  0.57090  1.0000
  F   F205      1.0  0.75836  0.35805  0.07352  1.0000
  F   F206      1.0  0.75832  0.38781  0.55029  1.0000
  F   F207      1.0  0.75875  0.86031  0.07375  1.0000
  F   F208      1.0  0.75998  0.85446  0.57452  1.0000
  F   F209      1.0  0.06718  0.48220  0.17736  1.0000
  F   F210      1.0  0.07201  0.47841  0.68143  1.0000
  F   F211      1.0  0.06581  0.97947  0.17759  1.0000
  F   F212      1.0  0.06514  0.98765  0.68881  1.0000
  F   F213      1.0  0.31557  0.49042  0.17645  1.0000
  F   F214      1.0  0.31777  0.48121  0.67194  1.0000
  F   F215      1.0  0.31934  0.98850  0.17234  1.0000
  F   F216      1.0  0.32013  0.98066  0.67966  1.0000
  F   F217      1.0  0.57890  0.47937  0.16439  1.0000
  F   F218      1.0  0.56659  0.48713  0.67680  1.0000
  F   F219      1.0  0.57288  0.98209  0.16602  1.0000
  F   F220      1.0  0.56957  0.98031  0.68137  1.0000
  F   F221      1.0  0.81530  0.48048  0.18692  1.0000
  F   F222      1.0  0.81260  0.48528  0.67913  1.0000
  F   F223      1.0  0.81524  0.98813  0.17959  1.0000
  F   F224      1.0  0.81608  0.97872  0.68093  1.0000
  F   F225      1.0  0.24355  0.13496  0.42663  1.0000
  F   F226      1.0  0.24113  0.15218  0.92100  1.0000
  F   F227      1.0  0.23837  0.63550  0.43290  1.0000
  F   F228      1.0  0.24125  0.64941  0.91223  1.0000
  F   F229      1.0  0.49608  0.14040  0.42342  1.0000
  F   F230      1.0  0.49765  0.14123  0.90815  1.0000
  F   F231      1.0  0.49530  0.64090  0.42144  1.0000
  F   F232      1.0  0.49222  0.63616  0.92366  1.0000
  F   F233      1.0  0.74327  0.14459  0.42023  1.0000
  F   F234      1.0  0.73993  0.14400  0.92438  1.0000
  F   F235      1.0  0.74275  0.63280  0.41875  1.0000
  F   F236      1.0  0.74100  0.64045  0.93615  1.0000
  F   F237      1.0  0.99389  0.13267  0.42915  1.0000
  F   F238      1.0  0.99230  0.13554  0.92963  1.0000
  F   F239      1.0  0.99167  0.64608  0.42951  1.0000
  F   F240      1.0  0.99181  0.63374  0.93472  1.0000
  F   F241      1.0  0.17763  0.02909  0.31677  1.0000
  F   F242      1.0  0.17589  0.00927  0.83746  1.0000
  F   F243      1.0  0.18491  0.51080  0.32325  1.0000
  F   F244      1.0  0.18613  0.51088  0.82273  1.0000
  F   F245      1.0  0.42287  0.01620  0.33580  1.0000
  F   F246      1.0  0.43177  0.00993  0.82520  1.0000
  F   F247      1.0  0.43427  0.51468  0.32270  1.0000
  F   F248      1.0  0.42713  0.51452  0.82702  1.0000
  F   F249      1.0  0.67896  0.00978  0.33502  1.0000
  F   F250      1.0  0.68189  0.01760  0.82149  1.0000
  F   F251      1.0  0.67987  0.51149  0.32329  1.0000
  F   F252      1.0  0.67949  0.51091  0.83318  1.0000
  F   F253      1.0  0.92860  0.01733  0.32347  1.0000
  F   F254      1.0  0.92778  0.01913  0.82053  1.0000
  F   F255      1.0  0.92602  0.52937  0.32201  1.0000
  F   F256      1.0  0.93009  0.51316  0.81879  1.0000
  F   F257      1.0  0.99928  0.24869  0.00130  1.0000
  F   F258      1.0  0.00154  0.26111  0.47767  1.0000
  F   F259      1.0  0.99753  0.75824  0.00036  1.0000
  F   F260      1.0  0.00144  0.76910  0.50005  1.0000
  F   F261      1.0  0.24861  0.24763  0.99982  1.0000
  F   F262      1.0  0.24821  0.24188  0.51800  1.0000
  F   F263      1.0  0.24530  0.74492  0.00367  1.0000
  F   F264      1.0  0.24659  0.74188  0.51164  1.0000
  F   F265      1.0  0.50166  0.25033  0.99243  1.0000
  F   F266      1.0  0.50139  0.25404  0.49943  1.0000
  F   F267      1.0  0.49928  0.74932  0.99758  1.0000
  F   F268      1.0  0.50548  0.76278  0.48203  1.0000
  F   F269      1.0  0.75481  0.24747  0.99437  1.0000
  F   F270      1.0  0.75415  0.24740  0.50239  1.0000
  F   F271      1.0  0.75143  0.75528  0.99884  1.0000
  F   F272      1.0  0.74943  0.73912  0.49783  1.0000
  F   F273      1.0  0.11807  0.99426  0.25231  1.0000
  F   F274      1.0  0.12120  0.00002  0.75476  1.0000
  F   F275      1.0  0.11874  0.49773  0.26552  1.0000
  F   F276      1.0  0.13205  0.51125  0.74028  1.0000
  F   F277      1.0  0.38745  0.00847  0.23151  1.0000
  F   F278      1.0  0.38055  0.00530  0.74265  1.0000
  F   F279      1.0  0.37716  0.49901  0.24448  1.0000
  F   F280      1.0  0.37090  0.49676  0.75502  1.0000
  F   F281      1.0  0.62373  0.00394  0.25891  1.0000
  F   F282      1.0  0.62824  0.99679  0.74530  1.0000
  F   F283      1.0  0.62444  0.49378  0.24762  1.0000
  F   F284      1.0  0.62403  0.50146  0.75570  1.0000
  F   F285      1.0  0.87104  0.99932  0.27182  1.0000
  F   F286      1.0  0.88460  0.00611  0.73028  1.0000
  F   F287      1.0  0.87902  0.51089  0.23590  1.0000
  F   F288      1.0  0.86227  0.48165  0.77033  1.0000
  F   F289      1.0  0.04841  0.02521  0.01944  1.0000
  F   F290      1.0  0.05133  0.02745  0.51743  1.0000
  F   F291      1.0  0.04029  0.54134  0.02874  1.0000
  F   F292      1.0  0.04626  0.52513  0.51282  1.0000
  F   F293      1.0  0.28901  0.04282  0.02294  1.0000
  F   F294      1.0  0.29721  0.02861  0.51442  1.0000
  F   F295      1.0  0.28907  0.53964  0.01731  1.0000
  F   F296      1.0  0.28829  0.53941  0.51786  1.0000
  F   F297      1.0  0.54221  0.02386  0.02767  1.0000
  F   F298      1.0  0.54022  0.02352  0.52932  1.0000
  F   F299      1.0  0.54582  0.53045  0.01988  1.0000
  F   F300      1.0  0.54448  0.53635  0.51708  1.0000
  F   F301      1.0  0.79512  0.03348  0.02267  1.0000
  F   F302      1.0  0.79571  0.03779  0.50905  1.0000
  F   F303      1.0  0.80289  0.52243  0.00367  1.0000
  F   F304      1.0  0.79792  0.54095  0.51745  1.0000
  F   F305      1.0  0.23610  0.40489  0.23799  1.0000
  F   F306      1.0  0.22751  0.41016  0.72958  1.0000
  F   F307      1.0  0.23256  0.92481  0.23074  1.0000
  F   F308      1.0  0.23877  0.90953  0.72194  1.0000
  F   F309      1.0  0.48802  0.41578  0.21446  1.0000
  F   F310      1.0  0.48176  0.41426  0.71625  1.0000
  F   F311      1.0  0.48603  0.91101  0.22179  1.0000
  F   F312      1.0  0.48127  0.90854  0.72728  1.0000
  F   F313      1.0  0.73474  0.41983  0.21044  1.0000
  F   F314      1.0  0.73414  0.41178  0.72167  1.0000
  F   F315      1.0  0.73657  0.90071  0.23522  1.0000
  F   F316      1.0  0.73223  0.92545  0.72173  1.0000
  F   F317      1.0  0.98290  0.42845  0.22427  1.0000
  F   F318      1.0  0.98572  0.42367  0.71739  1.0000
  F   F319      1.0  0.98292  0.89849  0.24331  1.0000
  F   F320      1.0  0.98337  0.92495  0.72320  1.0000
  F   F321      1.0  0.20221  0.46227  0.47959  1.0000
  F   F322      1.0  0.20549  0.47515  0.98392  1.0000
  F   F323      1.0  0.20918  0.98465  0.45540  1.0000
  F   F324      1.0  0.21030  0.97068  0.96969  1.0000
  F   F325      1.0  0.46650  0.46683  0.46733  1.0000
  F   F326      1.0  0.44827  0.46825  0.98636  1.0000
  F   F327      1.0  0.45164  0.98557  0.49031  1.0000
  F   F328      1.0  0.45863  0.95343  0.98366  1.0000
  F   F329      1.0  0.70603  0.46665  0.47728  1.0000
  F   F330      1.0  0.70638  0.46675  0.98593  1.0000
  F   F331      1.0  0.70471  0.97434  0.48353  1.0000
  F   F332      1.0  0.70949  0.95877  0.96466  1.0000
  F   F333      1.0  0.96296  0.46685  0.46970  1.0000
  F   F334      1.0  0.95767  0.46933  0.97210  1.0000
  F   F335      1.0  0.95585  0.95680  0.48364  1.0000
  F   F336      1.0  0.95772  0.97088  0.97954  1.0000
  F   F337      1.0  0.01546  0.07103  0.28708  1.0000
  F   F338      1.0  0.00949  0.09500  0.77471  1.0000
  F   F339      1.0  0.01548  0.58712  0.27221  1.0000
  F   F340      1.0  0.01456  0.57797  0.77976  1.0000
  F   F341      1.0  0.26837  0.09376  0.25963  1.0000
  F   F342      1.0  0.26198  0.09173  0.76498  1.0000
  F   F343      1.0  0.26372  0.58230  0.27072  1.0000
  F   F344      1.0  0.26677  0.57526  0.77938  1.0000
  F   F345      1.0  0.51659  0.08633  0.26346  1.0000
  F   F346      1.0  0.51653  0.07324  0.77599  1.0000
  F   F347      1.0  0.51846  0.59230  0.26593  1.0000
  F   F348      1.0  0.51411  0.57247  0.78447  1.0000
  F   F349      1.0  0.77057  0.08050  0.28661  1.0000
  F   F350      1.0  0.76511  0.08316  0.76533  1.0000
  F   F351      1.0  0.76323  0.56557  0.28535  1.0000
  F   F352      1.0  0.76470  0.58586  0.78101  1.0000
  F   F353      1.0  0.10729  0.41663  0.45404  1.0000
  F   F354      1.0  0.09858  0.42946  0.95373  1.0000
  F   F355      1.0  0.10111  0.88781  0.46457  1.0000
  F   F356      1.0  0.10231  0.89705  0.97061  1.0000
  F   F357      1.0  0.35301  0.42659  0.45736  1.0000
  F   F358      1.0  0.34989  0.41140  0.97158  1.0000
  F   F359      1.0  0.35409  0.90666  0.46251  1.0000
  F   F360      1.0  0.34977  0.91274  0.96482  1.0000
  F   F361      1.0  0.60393  0.41856  0.45474  1.0000
  F   F362      1.0  0.60452  0.40768  0.96278  1.0000
  F   F363      1.0  0.59785  0.90171  0.46780  1.0000
  F   F364      1.0  0.59884  0.92080  0.96294  1.0000
  F   F365      1.0  0.85028  0.40727  0.46448  1.0000
  F   F366      1.0  0.84930  0.39551  0.97009  1.0000
  F   F367      1.0  0.85038  0.91651  0.46942  1.0000
  F   F368      1.0  0.84957  0.90562  0.95344  1.0000
  F   F369      1.0  0.04153  0.28995  0.27126  1.0000
  F   F370      1.0  0.04226  0.29513  0.79827  1.0000
  F   F371      1.0  0.04618  0.80123  0.29739  1.0000
  F   F372      1.0  0.05161  0.79293  0.78016  1.0000
  F   F373      1.0  0.29675  0.30466  0.30726  1.0000
  F   F374      1.0  0.29594  0.30916  0.77357  1.0000
  F   F375      1.0  0.29279  0.80138  0.29022  1.0000
  F   F376      1.0  0.29532  0.79007  0.78511  1.0000
  F   F377      1.0  0.54524  0.29249  0.29072  1.0000
  F   F378      1.0  0.54541  0.30731  0.78380  1.0000
  F   F379      1.0  0.54826  0.78373  0.28862  1.0000
  F   F380      1.0  0.54378  0.80264  0.79687  1.0000
  F   F381      1.0  0.79568  0.30713  0.28929  1.0000
  F   F382      1.0  0.79686  0.29685  0.78824  1.0000
  F   F383      1.0  0.79743  0.79515  0.28244  1.0000
  F   F384      1.0  0.78853  0.79288  0.78786  1.0000
