data_image0
_chemical_formula_structural       Hf96F384
_chemical_formula_sum              "Hf96 F384"
_cell_length_a       31.0442
_cell_length_b       15.5172
_cell_length_c       15.5113
_cell_angle_alpha    63.342
_cell_angle_beta     63.342
_cell_angle_gamma    80.1625

_space_group_name_H-M_alt    "P 1"
_space_group_IT_number       1

loop_
  _space_group_symop_operation_xyz
  'x, y, z'

loop_
  _atom_site_type_symbol
  _atom_site_label
  _atom_site_symmetry_multiplicity
  _atom_site_fract_x
  _atom_site_fract_y
  _atom_site_fract_z
  _atom_site_occupancy
  Hf  Hf1       1.0  0.19670  0.10522  0.37427  1.0000
  Hf  Hf2       1.0  0.19634  0.09819  0.87437  1.0000
  Hf  Hf3       1.0  0.19329  0.60941  0.37854  1.0000
  Hf  Hf4       1.0  0.20053  0.60697  0.86905  1.0000
  Hf  Hf5       1.0  0.44551  0.10867  0.37386  1.0000
  Hf  Hf6       1.0  0.44189  0.11511  0.87695  1.0000
  Hf  Hf7       1.0  0.44102  0.60812  0.37176  1.0000
  Hf  Hf8       1.0  0.44502  0.61103  0.86981  1.0000
  Hf  Hf9       1.0  0.69982  0.10503  0.36930  1.0000
  Hf  Hf10      1.0  0.70012  0.11488  0.85578  1.0000
  Hf  Hf11      1.0  0.69377  0.61071  0.36703  1.0000
  Hf  Hf12      1.0  0.69913  0.61189  0.87301  1.0000
  Hf  Hf13      1.0  0.95035  0.10458  0.36187  1.0000
  Hf  Hf14      1.0  0.94933  0.11244  0.87007  1.0000
  Hf  Hf15      1.0  0.94259  0.60510  0.38468  1.0000
  Hf  Hf16      1.0  0.95038  0.60066  0.88049  1.0000
  Hf  Hf17      1.0  0.05230  0.38569  0.13098  1.0000
  Hf  Hf18      1.0  0.05513  0.38874  0.62991  1.0000
  Hf  Hf19      1.0  0.05406  0.89241  0.12404  1.0000
  Hf  Hf20      1.0  0.05344  0.88958  0.62777  1.0000
  Hf  Hf21      1.0  0.30090  0.39312  0.12537  1.0000
  Hf  Hf22      1.0  0.30461  0.39539  0.62578  1.0000
  Hf  Hf23      1.0  0.30200  0.90526  0.12493  1.0000
  Hf  Hf24      1.0  0.30360  0.89907  0.62729  1.0000
  Hf  Hf25      1.0  0.55668  0.39169  0.12166  1.0000
  Hf  Hf26      1.0  0.55003  0.39097  0.63403  1.0000
  Hf  Hf27      1.0  0.55534  0.89013  0.11927  1.0000
  Hf  Hf28      1.0  0.54986  0.89450  0.63023  1.0000
  Hf  Hf29      1.0  0.80477  0.39216  0.11956  1.0000
  Hf  Hf30      1.0  0.80313  0.39280  0.62960  1.0000
  Hf  Hf31      1.0  0.80173  0.88972  0.12582  1.0000
  Hf  Hf32      1.0  0.80738  0.89327  0.62456  1.0000
  Hf  Hf33      1.0  0.05561  0.17658  0.42272  1.0000
  Hf  Hf34      1.0  0.05737  0.18104  0.91833  1.0000
  Hf  Hf35      1.0  0.05484  0.67255  0.42436  1.0000
  Hf  Hf36      1.0  0.05873  0.67209  0.92254  1.0000
  Hf  Hf37      1.0  0.30345  0.17859  0.42169  1.0000
  Hf  Hf38      1.0  0.30295  0.19091  0.91630  1.0000
  Hf  Hf39      1.0  0.30230  0.68588  0.41865  1.0000
  Hf  Hf40      1.0  0.30521  0.68304  0.92326  1.0000
  Hf  Hf41      1.0  0.55623  0.17895  0.41804  1.0000
  Hf  Hf42      1.0  0.55426  0.18914  0.91615  1.0000
  Hf  Hf43      1.0  0.55092  0.68285  0.41872  1.0000
  Hf  Hf44      1.0  0.55451  0.67558  0.91860  1.0000
  Hf  Hf45      1.0  0.80514  0.18620  0.41236  1.0000
  Hf  Hf46      1.0  0.80819  0.18119  0.91209  1.0000
  Hf  Hf47      1.0  0.80413  0.67882  0.42609  1.0000
  Hf  Hf48      1.0  0.81104  0.68857  0.91471  1.0000
  Hf  Hf49      1.0  0.15598  0.38481  0.33778  1.0000
  Hf  Hf50      1.0  0.16425  0.38637  0.82927  1.0000
  Hf  Hf51      1.0  0.16079  0.88159  0.34113  1.0000
  Hf  Hf52      1.0  0.16069  0.88149  0.83432  1.0000
  Hf  Hf53      1.0  0.40796  0.38942  0.33162  1.0000
  Hf  Hf54      1.0  0.40567  0.39265  0.83676  1.0000
  Hf  Hf55      1.0  0.40699  0.88849  0.33856  1.0000
  Hf  Hf56      1.0  0.40519  0.89473  0.83465  1.0000
  Hf  Hf57      1.0  0.66076  0.38587  0.33053  1.0000
  Hf  Hf58      1.0  0.65915  0.38075  0.83291  1.0000
  Hf  Hf59      1.0  0.65721  0.88862  0.32948  1.0000
  Hf  Hf60      1.0  0.65781  0.89520  0.82636  1.0000
  Hf  Hf61      1.0  0.90936  0.38565  0.33214  1.0000
  Hf  Hf62      1.0  0.90781  0.38479  0.83675  1.0000
  Hf  Hf63      1.0  0.90688  0.88709  0.33647  1.0000
  Hf  Hf64      1.0  0.91017  0.89395  0.83111  1.0000
  Hf  Hf65      1.0  0.18837  0.30991  0.09204  1.0000
  Hf  Hf66      1.0  0.19892  0.31728  0.58099  1.0000
  Hf  Hf67      1.0  0.19170  0.81582  0.08744  1.0000
  Hf  Hf68      1.0  0.19318  0.81783  0.58587  1.0000
  Hf  Hf69      1.0  0.44552  0.32088  0.08036  1.0000
  Hf  Hf70      1.0  0.44388  0.32292  0.57495  1.0000
  Hf  Hf71      1.0  0.44235  0.81583  0.09305  1.0000
  Hf  Hf72      1.0  0.44382  0.81686  0.58772  1.0000
  Hf  Hf73      1.0  0.69674  0.32310  0.07632  1.0000
  Hf  Hf74      1.0  0.69440  0.32438  0.57166  1.0000
  Hf  Hf75      1.0  0.69669  0.82612  0.07296  1.0000
  Hf  Hf76      1.0  0.69467  0.82299  0.57562  1.0000
  Hf  Hf77      1.0  0.94813  0.31059  0.08330  1.0000
  Hf  Hf78      1.0  0.94818  0.32386  0.58099  1.0000
  Hf  Hf79      1.0  0.94616  0.81852  0.08162  1.0000
  Hf  Hf80      1.0  0.94447  0.80401  0.59518  1.0000
  Hf  Hf81      1.0  0.09324  0.11150  0.16186  1.0000
  Hf  Hf82      1.0  0.09326  0.10613  0.67165  1.0000
  Hf  Hf83      1.0  0.08732  0.61529  0.17438  1.0000
  Hf  Hf84      1.0  0.09357  0.60903  0.67098  1.0000
  Hf  Hf85      1.0  0.34165  0.11024  0.16927  1.0000
  Hf  Hf86      1.0  0.34007  0.11526  0.67140  1.0000
  Hf  Hf87      1.0  0.34168  0.61368  0.16606  1.0000
  Hf  Hf88      1.0  0.34228  0.61960  0.66343  1.0000
  Hf  Hf89      1.0  0.58752  0.11195  0.17063  1.0000
  Hf  Hf90      1.0  0.58780  0.11798  0.66493  1.0000
  Hf  Hf91      1.0  0.59117  0.61183  0.16633  1.0000
  Hf  Hf92      1.0  0.59098  0.61549  0.66305  1.0000
  Hf  Hf93      1.0  0.84623  0.11415  0.15540  1.0000
  Hf  Hf94      1.0  0.84613  0.11312  0.65971  1.0000
  Hf  Hf95      1.0  0.84375  0.60875  0.16462  1.0000
  Hf  Hf96      1.0  0.84423  0.61005  0.66762  1.0000
  F   F1        1.0  0.08439  0.13365  0.29813  1.0000
  F   F2        1.0  0.08034  0.14010  0.79475  1.0000
  F   F3        1.0  0.06799  0.61082  0.31833  1.0000
  F   F4        1.0  0.08643  0.63664  0.79776  1.0000
  F   F5        1.0  0.32390  0.12094  0.31440  1.0000
  F   F6        1.0  0.32850  0.13395  0.80272  1.0000
  F   F7        1.0  0.33277  0.63021  0.29685  1.0000
  F   F8        1.0  0.32392  0.62627  0.80213  1.0000
  F   F9        1.0  0.57751  0.12472  0.30879  1.0000
  F   F10       1.0  0.58336  0.16366  0.78231  1.0000
  F   F11       1.0  0.57787  0.63361  0.29278  1.0000
  F   F12       1.0  0.58381  0.62779  0.80573  1.0000
  F   F13       1.0  0.83356  0.14062  0.28895  1.0000
  F   F14       1.0  0.83437  0.10931  0.80075  1.0000
  F   F15       1.0  0.83032  0.61608  0.31674  1.0000
  F   F16       1.0  0.83219  0.63495  0.79896  1.0000
  F   F17       1.0  0.18543  0.33661  0.44654  1.0000
  F   F18       1.0  0.18796  0.34095  0.94189  1.0000
  F   F19       1.0  0.18396  0.84897  0.45211  1.0000
  F   F20       1.0  0.18190  0.82163  0.95867  1.0000
  F   F21       1.0  0.43082  0.34869  0.44603  1.0000
  F   F22       1.0  0.42972  0.33737  0.96112  1.0000
  F   F23       1.0  0.43429  0.83989  0.44734  1.0000
  F   F24       1.0  0.42941  0.85151  0.95222  1.0000
  F   F25       1.0  0.68649  0.34863  0.43558  1.0000
  F   F26       1.0  0.69045  0.34359  0.94059  1.0000
  F   F27       1.0  0.68807  0.84766  0.43879  1.0000
  F   F28       1.0  0.69106  0.86325  0.93092  1.0000
  F   F29       1.0  0.94652  0.33306  0.44226  1.0000
  F   F30       1.0  0.93316  0.32804  0.95610  1.0000
  F   F31       1.0  0.93852  0.83183  0.44595  1.0000
  F   F32       1.0  0.94016  0.85983  0.94138  1.0000
  F   F33       1.0  0.16173  0.35785  0.20473  1.0000
  F   F34       1.0  0.17617  0.37314  0.69071  1.0000
  F   F35       1.0  0.16798  0.87533  0.19677  1.0000
  F   F36       1.0  0.16900  0.86191  0.70531  1.0000
  F   F37       1.0  0.41722  0.36928  0.20175  1.0000
  F   F38       1.0  0.42493  0.38096  0.68697  1.0000
  F   F39       1.0  0.42022  0.86965  0.20054  1.0000
  F   F40       1.0  0.41780  0.86481  0.70391  1.0000
  F   F41       1.0  0.67506  0.36288  0.19333  1.0000
  F   F42       1.0  0.66804  0.37488  0.68835  1.0000
  F   F43       1.0  0.67580  0.89005  0.18539  1.0000
  F   F44       1.0  0.66074  0.86352  0.71244  1.0000
  F   F45       1.0  0.92927  0.37450  0.18967  1.0000
  F   F46       1.0  0.92131  0.37637  0.69036  1.0000
  F   F47       1.0  0.92611  0.89118  0.18316  1.0000
  F   F48       1.0  0.92469  0.85381  0.70753  1.0000
  F   F49       1.0  0.06566  0.15512  0.04613  1.0000
  F   F50       1.0  0.05937  0.13895  0.56996  1.0000
  F   F51       1.0  0.06751  0.65206  0.05206  1.0000
  F   F52       1.0  0.06065  0.64461  0.57118  1.0000
  F   F53       1.0  0.31245  0.17037  0.04957  1.0000
  F   F54       1.0  0.31033  0.14641  0.56323  1.0000
  F   F55       1.0  0.31652  0.66741  0.04765  1.0000
  F   F56       1.0  0.30771  0.66783  0.55637  1.0000
  F   F57       1.0  0.55957  0.15025  0.05784  1.0000
  F   F58       1.0  0.55719  0.16036  0.56314  1.0000
  F   F59       1.0  0.56058  0.64527  0.05304  1.0000
  F   F60       1.0  0.56214  0.64813  0.55627  1.0000
  F   F61       1.0  0.81793  0.15707  0.04717  1.0000
  F   F62       1.0  0.82255  0.16181  0.54550  1.0000
  F   F63       1.0  0.81383  0.66086  0.06091  1.0000
  F   F64       1.0  0.80900  0.65508  0.56635  1.0000
  F   F65       1.0  0.20313  0.19365  0.20392  1.0000
  F   F66       1.0  0.20545  0.20602  0.71152  1.0000
  F   F67       1.0  0.21427  0.70370  0.21382  1.0000
  F   F68       1.0  0.20862  0.69884  0.70035  1.0000
  F   F69       1.0  0.44632  0.20823  0.21448  1.0000
  F   F70       1.0  0.45203  0.20642  0.70529  1.0000
  F   F71       1.0  0.44430  0.69263  0.20875  1.0000
  F   F72       1.0  0.45487  0.70599  0.70973  1.0000
  F   F73       1.0  0.71321  0.20038  0.20579  1.0000
  F   F74       1.0  0.70342  0.20056  0.70403  1.0000
  F   F75       1.0  0.71195  0.72787  0.20216  1.0000
  F   F76       1.0  0.70480  0.70294  0.72416  1.0000
  F   F77       1.0  0.95824  0.19960  0.20560  1.0000
  F   F78       1.0  0.96273  0.20201  0.70063  1.0000
  F   F79       1.0  0.94656  0.70728  0.21855  1.0000
  F   F80       1.0  0.95855  0.68229  0.71218  1.0000
  F   F81       1.0  0.14796  0.07714  0.04185  1.0000
  F   F82       1.0  0.14670  0.09662  0.53681  1.0000
  F   F83       1.0  0.15002  0.60198  0.05103  1.0000
  F   F84       1.0  0.14973  0.59544  0.52804  1.0000
  F   F85       1.0  0.39524  0.08299  0.03995  1.0000
  F   F86       1.0  0.39437  0.07442  0.54965  1.0000
  F   F87       1.0  0.39834  0.59134  0.03245  1.0000
  F   F88       1.0  0.39542  0.59659  0.52888  1.0000
  F   F89       1.0  0.65248  0.11575  0.04651  1.0000
  F   F90       1.0  0.64205  0.09390  0.55255  1.0000
  F   F91       1.0  0.64643  0.61046  0.03715  1.0000
  F   F92       1.0  0.64765  0.57829  0.53636  1.0000
  F   F93       1.0  0.90285  0.09852  0.03529  1.0000
  F   F94       1.0  0.89514  0.07527  0.53227  1.0000
  F   F95       1.0  0.89448  0.57618  0.04677  1.0000
  F   F96       1.0  0.89497  0.58053  0.54597  1.0000
  F   F97       1.0  0.14936  0.19479  0.12225  1.0000
  F   F98       1.0  0.15632  0.18800  0.62482  1.0000
  F   F99       1.0  0.14430  0.70677  0.16485  1.0000
  F   F100      1.0  0.15300  0.68890  0.62761  1.0000
  F   F101      1.0  0.39705  0.19515  0.11979  1.0000
  F   F102      1.0  0.39999  0.19160  0.61932  1.0000
  F   F103      1.0  0.40052  0.70188  0.10905  1.0000
  F   F104      1.0  0.40364  0.69580  0.62583  1.0000
  F   F105      1.0  0.65027  0.21748  0.13999  1.0000
  F   F106      1.0  0.65350  0.21441  0.61290  1.0000
  F   F107      1.0  0.66109  0.69899  0.12193  1.0000
  F   F108      1.0  0.64932  0.70124  0.62405  1.0000
  F   F109      1.0  0.90322  0.19280  0.12310  1.0000
  F   F110      1.0  0.89969  0.19526  0.61854  1.0000
  F   F111      1.0  0.90090  0.69839  0.09939  1.0000
  F   F112      1.0  0.90597  0.68634  0.61886  1.0000
  F   F113      1.0  0.09618  0.29726  0.39568  1.0000
  F   F114      1.0  0.09964  0.29697  0.86629  1.0000
  F   F115      1.0  0.09670  0.79539  0.39256  1.0000
  F   F116      1.0  0.09739  0.78633  0.88099  1.0000
  F   F117      1.0  0.34951  0.30098  0.39396  1.0000
  F   F118      1.0  0.35010  0.31233  0.86310  1.0000
  F   F119      1.0  0.34559  0.79989  0.37708  1.0000
  F   F120      1.0  0.34509  0.81622  0.88766  1.0000
  F   F121      1.0  0.59362  0.29763  0.37247  1.0000
  F   F122      1.0  0.59680  0.30182  0.89288  1.0000
  F   F123      1.0  0.59556  0.79525  0.37105  1.0000
  F   F124      1.0  0.58579  0.79855  0.88541  1.0000
  F   F125      1.0  0.85341  0.31564  0.35456  1.0000
  F   F126      1.0  0.85021  0.31039  0.86639  1.0000
  F   F127      1.0  0.84986  0.80865  0.38056  1.0000
  F   F128      1.0  0.84727  0.81185  0.88453  1.0000
  F   F129      1.0  0.05938  0.24109  0.14486  1.0000
  F   F130      1.0  0.06997  0.24432  0.62864  1.0000
  F   F131      1.0  0.05230  0.74333  0.15639  1.0000
  F   F132      1.0  0.06229  0.74463  0.64797  1.0000
  F   F133      1.0  0.31245  0.24767  0.14555  1.0000
  F   F134      1.0  0.30961  0.24603  0.64944  1.0000
  F   F135      1.0  0.30766  0.75491  0.14806  1.0000
  F   F136      1.0  0.31600  0.76084  0.63480  1.0000
  F   F137      1.0  0.57446  0.25822  0.11458  1.0000
  F   F138      1.0  0.56773  0.26248  0.62252  1.0000
  F   F139      1.0  0.56928  0.75487  0.12911  1.0000
  F   F140      1.0  0.56606  0.75178  0.63284  1.0000
  F   F141      1.0  0.81714  0.25656  0.13330  1.0000
  F   F142      1.0  0.81003  0.24825  0.65896  1.0000
  F   F143      1.0  0.80534  0.75266  0.15527  1.0000
  F   F144      1.0  0.81283  0.75759  0.64466  1.0000
  F   F145      1.0  0.12343  0.36886  0.10189  1.0000
  F   F146      1.0  0.12728  0.34259  0.61991  1.0000
  F   F147      1.0  0.12240  0.88267  0.10031  1.0000
  F   F148      1.0  0.12628  0.88393  0.59851  1.0000
  F   F149      1.0  0.37397  0.36888  0.11199  1.0000
  F   F150      1.0  0.37145  0.34985  0.62396  1.0000
  F   F151      1.0  0.36815  0.87475  0.11966  1.0000
  F   F152      1.0  0.37738  0.89249  0.59005  1.0000
  F   F153      1.0  0.62900  0.38494  0.09096  1.0000
  F   F154      1.0  0.61940  0.39901  0.59668  1.0000
  F   F155      1.0  0.62508  0.86370  0.11450  1.0000
  F   F156      1.0  0.62401  0.87559  0.60595  1.0000
  F   F157      1.0  0.87508  0.34934  0.11715  1.0000
  F   F158      1.0  0.87683  0.34870  0.61076  1.0000
  F   F159      1.0  0.87841  0.84878  0.11615  1.0000
  F   F160      1.0  0.87549  0.86106  0.62431  1.0000
  F   F161      1.0  0.18192  0.25292  0.34767  1.0000
  F   F162      1.0  0.17627  0.23663  0.87830  1.0000
  F   F163      1.0  0.18387  0.75167  0.37574  1.0000
  F   F164      1.0  0.18747  0.74118  0.85941  1.0000
  F   F165      1.0  0.43796  0.24764  0.36694  1.0000
  F   F166      1.0  0.43266  0.25438  0.85038  1.0000
  F   F167      1.0  0.42898  0.75522  0.35490  1.0000
  F   F168      1.0  0.42849  0.75617  0.86862  1.0000
  F   F169      1.0  0.69060  0.24969  0.34908  1.0000
  F   F170      1.0  0.68198  0.24857  0.85495  1.0000
  F   F171      1.0  0.67907  0.74668  0.36636  1.0000
  F   F172      1.0  0.68107  0.75057  0.88081  1.0000
  F   F173      1.0  0.93275  0.24739  0.36176  1.0000
  F   F174      1.0  0.93640  0.25552  0.83932  1.0000
  F   F175      1.0  0.93421  0.74454  0.35509  1.0000
  F   F176      1.0  0.93963  0.74152  0.86005  1.0000
  F   F177      1.0  0.12705  0.12551  0.39429  1.0000
  F   F178      1.0  0.12500  0.11419  0.89549  1.0000
  F   F179      1.0  0.12667  0.62947  0.37544  1.0000
  F   F180      1.0  0.12823  0.62143  0.89819  1.0000
  F   F181      1.0  0.37410  0.13528  0.39279  1.0000
  F   F182      1.0  0.37287  0.13990  0.88942  1.0000
  F   F183      1.0  0.36949  0.62244  0.39603  1.0000
  F   F184      1.0  0.38036  0.66081  0.86382  1.0000
  F   F185      1.0  0.62788  0.12919  0.39808  1.0000
  F   F186      1.0  0.62333  0.12810  0.89939  1.0000
  F   F187      1.0  0.62766  0.63056  0.37855  1.0000
  F   F188      1.0  0.62559  0.61320  0.90478  1.0000
  F   F189      1.0  0.87680  0.11831  0.38252  1.0000
  F   F190      1.0  0.87735  0.12785  0.89271  1.0000
  F   F191      1.0  0.87554  0.63650  0.39726  1.0000
  F   F192      1.0  0.87763  0.64910  0.87694  1.0000
  F   F193      1.0  0.01081  0.35313  0.06756  1.0000
  F   F194      1.0  0.01224  0.35349  0.57976  1.0000
  F   F195      1.0  0.00767  0.87278  0.06412  1.0000
  F   F196      1.0  0.00811  0.84586  0.58402  1.0000
  F   F197      1.0  0.25167  0.35919  0.08729  1.0000
  F   F198      1.0  0.26058  0.37201  0.56223  1.0000
  F   F199      1.0  0.25668  0.87636  0.06863  1.0000
  F   F200      1.0  0.25489  0.86064  0.57250  1.0000
  F   F201      1.0  0.50346  0.36423  0.08607  1.0000
  F   F202      1.0  0.50690  0.36114  0.58041  1.0000
  F   F203      1.0  0.50708  0.84539  0.07986  1.0000
  F   F204      1.0  0.50175  0.85431  0.58923  1.0000
  F   F205      1.0  0.75814  0.37149  0.06167  1.0000
  F   F206      1.0  0.76061  0.36591  0.56360  1.0000
  F   F207      1.0  0.76005  0.88083  0.06124  1.0000
  F   F208      1.0  0.75449  0.87005  0.57143  1.0000
  F   F209      1.0  0.06775  0.48281  0.17517  1.0000
  F   F210      1.0  0.07829  0.47931  0.66804  1.0000
  F   F211      1.0  0.07014  0.99156  0.17109  1.0000
  F   F212      1.0  0.06965  0.98217  0.68964  1.0000
  F   F213      1.0  0.31420  0.48421  0.17458  1.0000
  F   F214      1.0  0.32441  0.48224  0.67280  1.0000
  F   F215      1.0  0.30960  0.99093  0.18067  1.0000
  F   F216      1.0  0.30938  0.99320  0.67765  1.0000
  F   F217      1.0  0.56951  0.47518  0.18111  1.0000
  F   F218      1.0  0.56333  0.48665  0.68998  1.0000
  F   F219      1.0  0.57773  0.99135  0.14972  1.0000
  F   F220      1.0  0.56734  0.98803  0.67595  1.0000
  F   F221      1.0  0.82276  0.46899  0.18422  1.0000
  F   F222      1.0  0.82642  0.47816  0.67573  1.0000
  F   F223      1.0  0.82597  0.98430  0.15228  1.0000
  F   F224      1.0  0.81458  0.97674  0.69878  1.0000
  F   F225      1.0  0.23783  0.15637  0.41859  1.0000
  F   F226      1.0  0.24201  0.13913  0.92532  1.0000
  F   F227      1.0  0.24285  0.62606  0.43161  1.0000
  F   F228      1.0  0.24689  0.63677  0.91662  1.0000
  F   F229      1.0  0.49334  0.13034  0.43341  1.0000
  F   F230      1.0  0.49374  0.15553  0.90918  1.0000
  F   F231      1.0  0.48413  0.63913  0.44522  1.0000
  F   F232      1.0  0.49380  0.63402  0.90934  1.0000
  F   F233      1.0  0.74321  0.14020  0.42991  1.0000
  F   F234      1.0  0.74890  0.13263  0.90140  1.0000
  F   F235      1.0  0.74551  0.64418  0.41476  1.0000
  F   F236      1.0  0.75024  0.65186  0.91176  1.0000
  F   F237      1.0  0.98967  0.13334  0.42576  1.0000
  F   F238      1.0  0.98990  0.14595  0.93491  1.0000
  F   F239      1.0  0.98456  0.62824  0.43966  1.0000
  F   F240      1.0  0.99457  0.62058  0.93501  1.0000
  F   F241      1.0  0.17871  0.01168  0.33684  1.0000
  F   F242      1.0  0.18147  0.00621  0.82903  1.0000
  F   F243      1.0  0.18056  0.51407  0.32600  1.0000
  F   F244      1.0  0.18628  0.51448  0.81479  1.0000
  F   F245      1.0  0.42602  0.00808  0.32878  1.0000
  F   F246      1.0  0.43580  0.01498  0.82266  1.0000
  F   F247      1.0  0.42749  0.51191  0.33209  1.0000
  F   F248      1.0  0.41759  0.50492  0.85813  1.0000
  F   F249      1.0  0.68511  0.01012  0.30067  1.0000
  F   F250      1.0  0.68039  0.02299  0.81268  1.0000
  F   F251      1.0  0.68515  0.51847  0.31453  1.0000
  F   F252      1.0  0.68850  0.51851  0.82748  1.0000
  F   F253      1.0  0.93406  0.01079  0.31353  1.0000
  F   F254      1.0  0.93679  0.02524  0.80323  1.0000
  F   F255      1.0  0.92915  0.50141  0.33692  1.0000
  F   F256      1.0  0.93326  0.51819  0.82699  1.0000
  F   F257      1.0  0.00227  0.25937  0.98913  1.0000
  F   F258      1.0  0.00016  0.23890  0.50475  1.0000
  F   F259      1.0  0.99705  0.73447  0.00700  1.0000
  F   F260      1.0  0.99896  0.73323  0.50699  1.0000
  F   F261      1.0  0.25012  0.25967  0.99911  1.0000
  F   F262      1.0  0.25078  0.25580  0.49067  1.0000
  F   F263      1.0  0.24773  0.74509  0.00874  1.0000
  F   F264      1.0  0.24958  0.76218  0.48685  1.0000
  F   F265      1.0  0.49886  0.25331  0.00557  1.0000
  F   F266      1.0  0.49863  0.25038  0.49322  1.0000
  F   F267      1.0  0.49270  0.73950  0.00374  1.0000
  F   F268      1.0  0.50109  0.76267  0.48519  1.0000
  F   F269      1.0  0.74733  0.23727  0.99910  1.0000
  F   F270      1.0  0.75692  0.26335  0.48319  1.0000
  F   F271      1.0  0.75416  0.75595  0.99825  1.0000
  F   F272      1.0  0.74553  0.74196  0.50501  1.0000
  F   F273      1.0  0.12758  0.99345  0.25618  1.0000
  F   F274      1.0  0.12286  0.98909  0.75473  1.0000
  F   F275      1.0  0.12206  0.50544  0.25884  1.0000
  F   F276      1.0  0.12616  0.50025  0.75215  1.0000
  F   F277      1.0  0.37524  0.00804  0.24450  1.0000
  F   F278      1.0  0.37297  0.99939  0.75493  1.0000
  F   F279      1.0  0.37200  0.49814  0.25207  1.0000
  F   F280      1.0  0.38459  0.51895  0.73993  1.0000
  F   F281      1.0  0.61608  0.99003  0.26257  1.0000
  F   F282      1.0  0.61940  0.00258  0.75963  1.0000
  F   F283      1.0  0.62951  0.50188  0.24204  1.0000
  F   F284      1.0  0.62936  0.49779  0.74933  1.0000
  F   F285      1.0  0.86329  0.99268  0.27084  1.0000
  F   F286      1.0  0.88629  0.99485  0.72927  1.0000
  F   F287      1.0  0.87674  0.50151  0.25272  1.0000
  F   F288      1.0  0.87038  0.49349  0.76800  1.0000
  F   F289      1.0  0.04462  0.03301  0.01741  1.0000
  F   F290      1.0  0.03998  0.02836  0.51844  1.0000
  F   F291      1.0  0.04300  0.51565  0.02763  1.0000
  F   F292      1.0  0.04161  0.53258  0.52332  1.0000
  F   F293      1.0  0.28362  0.03720  0.03311  1.0000
  F   F294      1.0  0.28245  0.02609  0.52724  1.0000
  F   F295      1.0  0.29914  0.53261  0.01295  1.0000
  F   F296      1.0  0.29063  0.53214  0.53529  1.0000
  F   F297      1.0  0.53657  0.02575  0.01971  1.0000
  F   F298      1.0  0.55231  0.01586  0.50843  1.0000
  F   F299      1.0  0.53747  0.52781  0.02840  1.0000
  F   F300      1.0  0.54279  0.52302  0.52428  1.0000
  F   F301      1.0  0.79297  0.03779  0.01411  1.0000
  F   F302      1.0  0.79085  0.03611  0.53784  1.0000
  F   F303      1.0  0.80042  0.53220  0.02165  1.0000
  F   F304      1.0  0.79284  0.52770  0.52766  1.0000
  F   F305      1.0  0.23063  0.40915  0.23573  1.0000
  F   F306      1.0  0.23500  0.40894  0.73147  1.0000
  F   F307      1.0  0.23228  0.90787  0.24001  1.0000
  F   F308      1.0  0.23414  0.90012  0.73329  1.0000
  F   F309      1.0  0.48322  0.41399  0.22982  1.0000
  F   F310      1.0  0.48289  0.41281  0.73762  1.0000
  F   F311      1.0  0.48464  0.92171  0.21784  1.0000
  F   F312      1.0  0.48173  0.93596  0.70816  1.0000
  F   F313      1.0  0.73584  0.42059  0.22217  1.0000
  F   F314      1.0  0.73168  0.41527  0.72579  1.0000
  F   F315      1.0  0.73901  0.90242  0.23380  1.0000
  F   F316      1.0  0.73455  0.90618  0.73471  1.0000
  F   F317      1.0  0.98572  0.40987  0.23652  1.0000
  F   F318      1.0  0.98307  0.42547  0.72332  1.0000
  F   F319      1.0  0.98978  0.90301  0.22655  1.0000
  F   F320      1.0  0.98815  0.90431  0.73087  1.0000
  F   F321      1.0  0.19906  0.46824  0.48675  1.0000
  F   F322      1.0  0.19878  0.47845  0.97393  1.0000
  F   F323      1.0  0.21026  0.97511  0.47445  1.0000
  F   F324      1.0  0.20526  0.95655  0.97518  1.0000
  F   F325      1.0  0.45018  0.46373  0.48847  1.0000
  F   F326      1.0  0.45614  0.46676  0.97938  1.0000
  F   F327      1.0  0.46037  0.98029  0.46121  1.0000
  F   F328      1.0  0.45948  0.97870  0.97104  1.0000
  F   F329      1.0  0.70524  0.47212  0.47286  1.0000
  F   F330      1.0  0.71350  0.48089  0.96549  1.0000
  F   F331      1.0  0.70584  0.97199  0.46551  1.0000
  F   F332      1.0  0.70257  0.97643  0.97197  1.0000
  F   F333      1.0  0.96321  0.46763  0.48244  1.0000
  F   F334      1.0  0.95748  0.46053  0.98229  1.0000
  F   F335      1.0  0.96310  0.96960  0.45722  1.0000
  F   F336      1.0  0.94721  0.97832  0.98366  1.0000
  F   F337      1.0  0.01536  0.07463  0.27542  1.0000
  F   F338      1.0  0.02016  0.07994  0.77888  1.0000
  F   F339      1.0  0.00562  0.58234  0.27891  1.0000
  F   F340      1.0  0.02255  0.57034  0.78461  1.0000
  F   F341      1.0  0.26499  0.08036  0.27848  1.0000
  F   F342      1.0  0.26879  0.07223  0.79051  1.0000
  F   F343      1.0  0.26821  0.57360  0.28157  1.0000
  F   F344      1.0  0.26895  0.57199  0.77894  1.0000
  F   F345      1.0  0.51140  0.10077  0.26352  1.0000
  F   F346      1.0  0.51339  0.09575  0.76119  1.0000
  F   F347      1.0  0.50784  0.61163  0.27329  1.0000
  F   F348      1.0  0.51324  0.59641  0.76564  1.0000
  F   F349      1.0  0.76405  0.08179  0.27987  1.0000
  F   F350      1.0  0.76298  0.08652  0.76488  1.0000
  F   F351      1.0  0.76612  0.59702  0.27131  1.0000
  F   F352      1.0  0.77146  0.58860  0.77159  1.0000
  F   F353      1.0  0.10087  0.41299  0.46592  1.0000
  F   F354      1.0  0.10399  0.40265  0.95384  1.0000
  F   F355      1.0  0.10040  0.89992  0.46723  1.0000
  F   F356      1.0  0.09380  0.88717  0.96122  1.0000
  F   F357      1.0  0.34681  0.41622  0.47608  1.0000
  F   F358      1.0  0.34842  0.39704  0.96720  1.0000
  F   F359      1.0  0.35081  0.91690  0.45346  1.0000
  F   F360      1.0  0.34917  0.93174  0.96267  1.0000
  F   F361      1.0  0.60486  0.40858  0.44668  1.0000
  F   F362      1.0  0.60254  0.41333  0.95509  1.0000
  F   F363      1.0  0.59951  0.90459  0.45711  1.0000
  F   F364      1.0  0.59896  0.91203  0.95679  1.0000
  F   F365      1.0  0.85163  0.39300  0.47719  1.0000
  F   F366      1.0  0.85318  0.40834  0.95968  1.0000
  F   F367      1.0  0.85593  0.91865  0.47043  1.0000
  F   F368      1.0  0.85834  0.91770  0.95763  1.0000
  F   F369      1.0  0.05132  0.29542  0.28699  1.0000
  F   F370      1.0  0.03951  0.29072  0.77564  1.0000
  F   F371      1.0  0.05123  0.78579  0.29445  1.0000
  F   F372      1.0  0.04507  0.79178  0.79775  1.0000
  F   F373      1.0  0.29806  0.29329  0.28813  1.0000
  F   F374      1.0  0.28797  0.30329  0.79260  1.0000
  F   F375      1.0  0.29216  0.79592  0.28913  1.0000
  F   F376      1.0  0.30231  0.80417  0.79544  1.0000
  F   F377      1.0  0.54657  0.28498  0.27532  1.0000
  F   F378      1.0  0.55212  0.32288  0.78382  1.0000
  F   F379      1.0  0.54407  0.80142  0.28959  1.0000
  F   F380      1.0  0.53747  0.80066  0.77643  1.0000
  F   F381      1.0  0.79065  0.30470  0.27882  1.0000
  F   F382      1.0  0.79773  0.29362  0.79038  1.0000
  F   F383      1.0  0.80067  0.80497  0.29567  1.0000
  F   F384      1.0  0.80395  0.79664  0.79190  1.0000
