data_image0
_chemical_formula_structural       Hf96F384
_chemical_formula_sum              "Hf96 F384"
_cell_length_a       31.013
_cell_length_b       15.5058
_cell_length_c       15.4986
_cell_angle_alpha    63.342
_cell_angle_beta     63.342
_cell_angle_gamma    80.1625

_space_group_name_H-M_alt    "P 1"
_space_group_IT_number       1

loop_
  _space_group_symop_operation_xyz
  'x, y, z'

loop_
  _atom_site_type_symbol
  _atom_site_label
  _atom_site_symmetry_multiplicity
  _atom_site_fract_x
  _atom_site_fract_y
  _atom_site_fract_z
  _atom_site_occupancy
  Hf  Hf1       1.0  0.19985  0.11089  0.36423  1.0000
  Hf  Hf2       1.0  0.19719  0.10757  0.86689  1.0000
  Hf  Hf3       1.0  0.19721  0.60322  0.37821  1.0000
  Hf  Hf4       1.0  0.19760  0.60948  0.87124  1.0000
  Hf  Hf5       1.0  0.44884  0.10666  0.37832  1.0000
  Hf  Hf6       1.0  0.44784  0.11293  0.87216  1.0000
  Hf  Hf7       1.0  0.44405  0.60905  0.37315  1.0000
  Hf  Hf8       1.0  0.44641  0.59932  0.88125  1.0000
  Hf  Hf9       1.0  0.69706  0.10677  0.37263  1.0000
  Hf  Hf10      1.0  0.69718  0.11112  0.87332  1.0000
  Hf  Hf11      1.0  0.69450  0.60604  0.37537  1.0000
  Hf  Hf12      1.0  0.69472  0.60887  0.87842  1.0000
  Hf  Hf13      1.0  0.94391  0.11331  0.38400  1.0000
  Hf  Hf14      1.0  0.94876  0.10164  0.87493  1.0000
  Hf  Hf15      1.0  0.94468  0.61165  0.37654  1.0000
  Hf  Hf16      1.0  0.94573  0.61195  0.88107  1.0000
  Hf  Hf17      1.0  0.05269  0.39279  0.12551  1.0000
  Hf  Hf18      1.0  0.05286  0.39519  0.62260  1.0000
  Hf  Hf19      1.0  0.05359  0.88897  0.13085  1.0000
  Hf  Hf20      1.0  0.05406  0.89482  0.63042  1.0000
  Hf  Hf21      1.0  0.30793  0.39276  0.11276  1.0000
  Hf  Hf22      1.0  0.30456  0.39713  0.61709  1.0000
  Hf  Hf23      1.0  0.30248  0.89607  0.12067  1.0000
  Hf  Hf24      1.0  0.30741  0.89485  0.62246  1.0000
  Hf  Hf25      1.0  0.55274  0.39075  0.12760  1.0000
  Hf  Hf26      1.0  0.55224  0.39174  0.62135  1.0000
  Hf  Hf27      1.0  0.55535  0.88922  0.12425  1.0000
  Hf  Hf28      1.0  0.55466  0.88955  0.63037  1.0000
  Hf  Hf29      1.0  0.80106  0.39111  0.12896  1.0000
  Hf  Hf30      1.0  0.80236  0.39019  0.62520  1.0000
  Hf  Hf31      1.0  0.80579  0.89362  0.12032  1.0000
  Hf  Hf32      1.0  0.80128  0.89249  0.62837  1.0000
  Hf  Hf33      1.0  0.05640  0.17953  0.42217  1.0000
  Hf  Hf34      1.0  0.05539  0.18502  0.91773  1.0000
  Hf  Hf35      1.0  0.05637  0.67684  0.41664  1.0000
  Hf  Hf36      1.0  0.05751  0.68524  0.91377  1.0000
  Hf  Hf37      1.0  0.30651  0.18233  0.41556  1.0000
  Hf  Hf38      1.0  0.30708  0.19152  0.91000  1.0000
  Hf  Hf39      1.0  0.30611  0.68132  0.41450  1.0000
  Hf  Hf40      1.0  0.30902  0.68041  0.91724  1.0000
  Hf  Hf41      1.0  0.55409  0.17806  0.42587  1.0000
  Hf  Hf42      1.0  0.55549  0.18511  0.91404  1.0000
  Hf  Hf43      1.0  0.55429  0.68736  0.41317  1.0000
  Hf  Hf44      1.0  0.55469  0.68615  0.91590  1.0000
  Hf  Hf45      1.0  0.80447  0.18841  0.41206  1.0000
  Hf  Hf46      1.0  0.80867  0.18227  0.91432  1.0000
  Hf  Hf47      1.0  0.80460  0.68011  0.41592  1.0000
  Hf  Hf48      1.0  0.80525  0.68347  0.91658  1.0000
  Hf  Hf49      1.0  0.16097  0.39263  0.32231  1.0000
  Hf  Hf50      1.0  0.15350  0.38659  0.83414  1.0000
  Hf  Hf51      1.0  0.15980  0.88588  0.33032  1.0000
  Hf  Hf52      1.0  0.16336  0.89181  0.83442  1.0000
  Hf  Hf53      1.0  0.40877  0.38004  0.33643  1.0000
  Hf  Hf54      1.0  0.41284  0.38451  0.82605  1.0000
  Hf  Hf55      1.0  0.41100  0.88760  0.33080  1.0000
  Hf  Hf56      1.0  0.40882  0.88885  0.83692  1.0000
  Hf  Hf57      1.0  0.65458  0.38577  0.33692  1.0000
  Hf  Hf58      1.0  0.66220  0.38757  0.83871  1.0000
  Hf  Hf59      1.0  0.66097  0.88755  0.33133  1.0000
  Hf  Hf60      1.0  0.65714  0.88922  0.83512  1.0000
  Hf  Hf61      1.0  0.90729  0.39612  0.33029  1.0000
  Hf  Hf62      1.0  0.90782  0.38827  0.83444  1.0000
  Hf  Hf63      1.0  0.91399  0.89592  0.32451  1.0000
  Hf  Hf64      1.0  0.90653  0.89178  0.83197  1.0000
  Hf  Hf65      1.0  0.19457  0.31806  0.08266  1.0000
  Hf  Hf66      1.0  0.19492  0.31185  0.58002  1.0000
  Hf  Hf67      1.0  0.19326  0.80980  0.08894  1.0000
  Hf  Hf68      1.0  0.19513  0.82522  0.58278  1.0000
  Hf  Hf69      1.0  0.44657  0.30806  0.07986  1.0000
  Hf  Hf70      1.0  0.44416  0.31605  0.58039  1.0000
  Hf  Hf71      1.0  0.44098  0.81821  0.08639  1.0000
  Hf  Hf72      1.0  0.44437  0.81990  0.58392  1.0000
  Hf  Hf73      1.0  0.69338  0.31309  0.08844  1.0000
  Hf  Hf74      1.0  0.68891  0.31767  0.58634  1.0000
  Hf  Hf75      1.0  0.69449  0.81502  0.09106  1.0000
  Hf  Hf76      1.0  0.69381  0.81565  0.58814  1.0000
  Hf  Hf77      1.0  0.94349  0.31685  0.08554  1.0000
  Hf  Hf78      1.0  0.94454  0.32339  0.58127  1.0000
  Hf  Hf79      1.0  0.94217  0.81116  0.08986  1.0000
  Hf  Hf80      1.0  0.94215  0.82115  0.58377  1.0000
  Hf  Hf81      1.0  0.09015  0.11351  0.16413  1.0000
  Hf  Hf82      1.0  0.09391  0.11347  0.66796  1.0000
  Hf  Hf83      1.0  0.08742  0.61262  0.16220  1.0000
  Hf  Hf84      1.0  0.09217  0.61396  0.66784  1.0000
  Hf  Hf85      1.0  0.34461  0.11198  0.16485  1.0000
  Hf  Hf86      1.0  0.33947  0.11310  0.66925  1.0000
  Hf  Hf87      1.0  0.34183  0.60583  0.17269  1.0000
  Hf  Hf88      1.0  0.34319  0.61140  0.66360  1.0000
  Hf  Hf89      1.0  0.59355  0.10771  0.17021  1.0000
  Hf  Hf90      1.0  0.59237  0.11044  0.66565  1.0000
  Hf  Hf91      1.0  0.58626  0.60245  0.17257  1.0000
  Hf  Hf92      1.0  0.59126  0.61484  0.66740  1.0000
  Hf  Hf93      1.0  0.84057  0.11073  0.17270  1.0000
  Hf  Hf94      1.0  0.83995  0.11506  0.66093  1.0000
  Hf  Hf95      1.0  0.83833  0.60615  0.16625  1.0000
  Hf  Hf96      1.0  0.83901  0.60674  0.67115  1.0000
  F   F1        1.0  0.08331  0.13024  0.30654  1.0000
  F   F2        1.0  0.08082  0.11948  0.81243  1.0000
  F   F3        1.0  0.07567  0.64022  0.29782  1.0000
  F   F4        1.0  0.08121  0.60988  0.80825  1.0000
  F   F5        1.0  0.33609  0.11472  0.30799  1.0000
  F   F6        1.0  0.32802  0.13814  0.80065  1.0000
  F   F7        1.0  0.33152  0.63569  0.29891  1.0000
  F   F8        1.0  0.32948  0.62298  0.80102  1.0000
  F   F9        1.0  0.57656  0.12556  0.31369  1.0000
  F   F10       1.0  0.58255  0.12586  0.79725  1.0000
  F   F11       1.0  0.57737  0.62859  0.30114  1.0000
  F   F12       1.0  0.57396  0.62709  0.81166  1.0000
  F   F13       1.0  0.83036  0.12562  0.30748  1.0000
  F   F14       1.0  0.82839  0.12895  0.79862  1.0000
  F   F15       1.0  0.82857  0.62551  0.29943  1.0000
  F   F16       1.0  0.82740  0.61746  0.81717  1.0000
  F   F17       1.0  0.19524  0.34741  0.42669  1.0000
  F   F18       1.0  0.17771  0.33633  0.94852  1.0000
  F   F19       1.0  0.19445  0.84327  0.44040  1.0000
  F   F20       1.0  0.19312  0.85770  0.93622  1.0000
  F   F21       1.0  0.43363  0.32592  0.45086  1.0000
  F   F22       1.0  0.43753  0.33163  0.94260  1.0000
  F   F23       1.0  0.43047  0.83283  0.45627  1.0000
  F   F24       1.0  0.43909  0.84835  0.94414  1.0000
  F   F25       1.0  0.67954  0.34227  0.44803  1.0000
  F   F26       1.0  0.69033  0.34111  0.94246  1.0000
  F   F27       1.0  0.68877  0.85271  0.44379  1.0000
  F   F28       1.0  0.68649  0.84556  0.94879  1.0000
  F   F29       1.0  0.93382  0.35194  0.44465  1.0000
  F   F30       1.0  0.93787  0.33561  0.94626  1.0000
  F   F31       1.0  0.94220  0.86126  0.43651  1.0000
  F   F32       1.0  0.92973  0.84027  0.95205  1.0000
  F   F33       1.0  0.17230  0.37200  0.19278  1.0000
  F   F34       1.0  0.16765  0.36449  0.69325  1.0000
  F   F35       1.0  0.17020  0.85842  0.20408  1.0000
  F   F36       1.0  0.16681  0.87826  0.69446  1.0000
  F   F37       1.0  0.42507  0.36773  0.19406  1.0000
  F   F38       1.0  0.42191  0.36689  0.69241  1.0000
  F   F39       1.0  0.42107  0.86913  0.19570  1.0000
  F   F40       1.0  0.42068  0.86950  0.70157  1.0000
  F   F41       1.0  0.67152  0.36517  0.20052  1.0000
  F   F42       1.0  0.66625  0.37805  0.69656  1.0000
  F   F43       1.0  0.67657  0.88623  0.18759  1.0000
  F   F44       1.0  0.67267  0.88207  0.69454  1.0000
  F   F45       1.0  0.91916  0.37273  0.19731  1.0000
  F   F46       1.0  0.92515  0.38687  0.68573  1.0000
  F   F47       1.0  0.92009  0.85337  0.21222  1.0000
  F   F48       1.0  0.92292  0.87464  0.69917  1.0000
  F   F49       1.0  0.05912  0.15267  0.05976  1.0000
  F   F50       1.0  0.06166  0.17237  0.55069  1.0000
  F   F51       1.0  0.05418  0.65957  0.05867  1.0000
  F   F52       1.0  0.06019  0.65696  0.56507  1.0000
  F   F53       1.0  0.32351  0.16989  0.04060  1.0000
  F   F54       1.0  0.31698  0.16557  0.54807  1.0000
  F   F55       1.0  0.31144  0.64908  0.06290  1.0000
  F   F56       1.0  0.31065  0.66537  0.55478  1.0000
  F   F57       1.0  0.55747  0.14825  0.06510  1.0000
  F   F58       1.0  0.56319  0.15282  0.55814  1.0000
  F   F59       1.0  0.55470  0.64899  0.06408  1.0000
  F   F60       1.0  0.56705  0.67037  0.54704  1.0000
  F   F61       1.0  0.82793  0.16363  0.04284  1.0000
  F   F62       1.0  0.81051  0.16021  0.55143  1.0000
  F   F63       1.0  0.80951  0.64819  0.05913  1.0000
  F   F64       1.0  0.81799  0.66276  0.55001  1.0000
  F   F65       1.0  0.19792  0.21038  0.21624  1.0000
  F   F66       1.0  0.21188  0.20547  0.70500  1.0000
  F   F67       1.0  0.20666  0.69578  0.21844  1.0000
  F   F68       1.0  0.20268  0.71035  0.71238  1.0000
  F   F69       1.0  0.45684  0.18793  0.20560  1.0000
  F   F70       1.0  0.46073  0.19790  0.70338  1.0000
  F   F71       1.0  0.44953  0.70222  0.21317  1.0000
  F   F72       1.0  0.45333  0.70049  0.71090  1.0000
  F   F73       1.0  0.70723  0.19931  0.20937  1.0000
  F   F74       1.0  0.70337  0.20705  0.70972  1.0000
  F   F75       1.0  0.69993  0.70533  0.21983  1.0000
  F   F76       1.0  0.70375  0.70384  0.71902  1.0000
  F   F77       1.0  0.95368  0.20130  0.21104  1.0000
  F   F78       1.0  0.94961  0.20893  0.70647  1.0000
  F   F79       1.0  0.95666  0.70227  0.22930  1.0000
  F   F80       1.0  0.94027  0.70418  0.71634  1.0000
  F   F81       1.0  0.14436  0.09251  0.04277  1.0000
  F   F82       1.0  0.14972  0.08977  0.55222  1.0000
  F   F83       1.0  0.14449  0.59702  0.03452  1.0000
  F   F84       1.0  0.14714  0.59377  0.52933  1.0000
  F   F85       1.0  0.40458  0.10021  0.02710  1.0000
  F   F86       1.0  0.39811  0.08206  0.54253  1.0000
  F   F87       1.0  0.39950  0.59202  0.03814  1.0000
  F   F88       1.0  0.39902  0.58501  0.53385  1.0000
  F   F89       1.0  0.64597  0.09639  0.03822  1.0000
  F   F90       1.0  0.65233  0.09480  0.54334  1.0000
  F   F91       1.0  0.64177  0.58889  0.04347  1.0000
  F   F92       1.0  0.64931  0.58807  0.53579  1.0000
  F   F93       1.0  0.90491  0.08844  0.03771  1.0000
  F   F94       1.0  0.89503  0.07934  0.54697  1.0000
  F   F95       1.0  0.90195  0.58678  0.04809  1.0000
  F   F96       1.0  0.89548  0.58216  0.54261  1.0000
  F   F97       1.0  0.15392  0.20260  0.12921  1.0000
  F   F98       1.0  0.14803  0.19579  0.63932  1.0000
  F   F99       1.0  0.15409  0.69344  0.12065  1.0000
  F   F100      1.0  0.15382  0.69472  0.61717  1.0000
  F   F101      1.0  0.40427  0.19984  0.11056  1.0000
  F   F102      1.0  0.40442  0.19493  0.61965  1.0000
  F   F103      1.0  0.39467  0.70325  0.12207  1.0000
  F   F104      1.0  0.40276  0.69690  0.62094  1.0000
  F   F105      1.0  0.65679  0.18712  0.13244  1.0000
  F   F106      1.0  0.65511  0.20158  0.61578  1.0000
  F   F107      1.0  0.65640  0.68736  0.13016  1.0000
  F   F108      1.0  0.65575  0.70364  0.62095  1.0000
  F   F109      1.0  0.89690  0.20246  0.13012  1.0000
  F   F110      1.0  0.90137  0.19873  0.60615  1.0000
  F   F111      1.0  0.90697  0.68856  0.14057  1.0000
  F   F112      1.0  0.89642  0.70532  0.61575  1.0000
  F   F113      1.0  0.09522  0.30432  0.35301  1.0000
  F   F114      1.0  0.09527  0.29919  0.87351  1.0000
  F   F115      1.0  0.09470  0.79200  0.37391  1.0000
  F   F116      1.0  0.09462  0.79998  0.88163  1.0000
  F   F117      1.0  0.35413  0.30153  0.37246  1.0000
  F   F118      1.0  0.34808  0.31706  0.86650  1.0000
  F   F119      1.0  0.35137  0.79264  0.38578  1.0000
  F   F120      1.0  0.34897  0.79617  0.89377  1.0000
  F   F121      1.0  0.60003  0.30129  0.37457  1.0000
  F   F122      1.0  0.59956  0.29272  0.87603  1.0000
  F   F123      1.0  0.60347  0.79694  0.35170  1.0000
  F   F124      1.0  0.60050  0.79780  0.87167  1.0000
  F   F125      1.0  0.84191  0.31102  0.37372  1.0000
  F   F126      1.0  0.84701  0.30266  0.86453  1.0000
  F   F127      1.0  0.84234  0.79639  0.36436  1.0000
  F   F128      1.0  0.84381  0.81044  0.88360  1.0000
  F   F129      1.0  0.07108  0.25668  0.12495  1.0000
  F   F130      1.0  0.07116  0.26255  0.63843  1.0000
  F   F131      1.0  0.06879  0.75785  0.12035  1.0000
  F   F132      1.0  0.06370  0.75590  0.64616  1.0000
  F   F133      1.0  0.31267  0.24341  0.16261  1.0000
  F   F134      1.0  0.30951  0.25161  0.64665  1.0000
  F   F135      1.0  0.30704  0.75376  0.14944  1.0000
  F   F136      1.0  0.31452  0.75644  0.64607  1.0000
  F   F137      1.0  0.56878  0.25024  0.13768  1.0000
  F   F138      1.0  0.57640  0.26274  0.60545  1.0000
  F   F139      1.0  0.56671  0.75152  0.13309  1.0000
  F   F140      1.0  0.56336  0.74754  0.65402  1.0000
  F   F141      1.0  0.80790  0.25077  0.15154  1.0000
  F   F142      1.0  0.82028  0.24642  0.63487  1.0000
  F   F143      1.0  0.81809  0.74804  0.12117  1.0000
  F   F144      1.0  0.81632  0.74987  0.64809  1.0000
  F   F145      1.0  0.12356  0.38275  0.09352  1.0000
  F   F146      1.0  0.12858  0.38742  0.58249  1.0000
  F   F147      1.0  0.12461  0.85138  0.12099  1.0000
  F   F148      1.0  0.12583  0.88055  0.59459  1.0000
  F   F149      1.0  0.37566  0.36437  0.11340  1.0000
  F   F150      1.0  0.37395  0.37020  0.60937  1.0000
  F   F151      1.0  0.37594  0.87929  0.10257  1.0000
  F   F152      1.0  0.37819  0.88253  0.60260  1.0000
  F   F153      1.0  0.62500  0.36373  0.10918  1.0000
  F   F154      1.0  0.62276  0.37386  0.60587  1.0000
  F   F155      1.0  0.62880  0.86451  0.11905  1.0000
  F   F156      1.0  0.62374  0.86357  0.61557  1.0000
  F   F157      1.0  0.87360  0.37830  0.10225  1.0000
  F   F158      1.0  0.87410  0.37080  0.61485  1.0000
  F   F159      1.0  0.87257  0.86294  0.12171  1.0000
  F   F160      1.0  0.87307  0.87756  0.61336  1.0000
  F   F161      1.0  0.18652  0.25171  0.35709  1.0000
  F   F162      1.0  0.18228  0.25048  0.85856  1.0000
  F   F163      1.0  0.18452  0.74537  0.36785  1.0000
  F   F164      1.0  0.18241  0.74959  0.87071  1.0000
  F   F165      1.0  0.44978  0.25138  0.33228  1.0000
  F   F166      1.0  0.44408  0.25604  0.83747  1.0000
  F   F167      1.0  0.44298  0.75495  0.34162  1.0000
  F   F168      1.0  0.43597  0.75120  0.86478  1.0000
  F   F169      1.0  0.68910  0.24566  0.35238  1.0000
  F   F170      1.0  0.68199  0.24885  0.86077  1.0000
  F   F171      1.0  0.68020  0.74858  0.37012  1.0000
  F   F172      1.0  0.68097  0.74774  0.87085  1.0000
  F   F173      1.0  0.93523  0.25202  0.36544  1.0000
  F   F174      1.0  0.93082  0.24163  0.87156  1.0000
  F   F175      1.0  0.92586  0.75762  0.38084  1.0000
  F   F176      1.0  0.93280  0.75012  0.86285  1.0000
  F   F177      1.0  0.12773  0.12461  0.40425  1.0000
  F   F178      1.0  0.12054  0.11770  0.90403  1.0000
  F   F179      1.0  0.12458  0.62012  0.39347  1.0000
  F   F180      1.0  0.12554  0.63708  0.88497  1.0000
  F   F181      1.0  0.37843  0.12947  0.39711  1.0000
  F   F182      1.0  0.37884  0.13776  0.87951  1.0000
  F   F183      1.0  0.37629  0.62480  0.39389  1.0000
  F   F184      1.0  0.37741  0.62531  0.88618  1.0000
  F   F185      1.0  0.62457  0.13056  0.39924  1.0000
  F   F186      1.0  0.62516  0.12570  0.89776  1.0000
  F   F187      1.0  0.62255  0.61306  0.40285  1.0000
  F   F188      1.0  0.62226  0.63231  0.88681  1.0000
  F   F189      1.0  0.87515  0.15604  0.38629  1.0000
  F   F190      1.0  0.87572  0.11841  0.90035  1.0000
  F   F191      1.0  0.87654  0.63204  0.38548  1.0000
  F   F192      1.0  0.87387  0.62257  0.90246  1.0000
  F   F193      1.0  0.00684  0.36779  0.07336  1.0000
  F   F194      1.0  0.01022  0.37222  0.56192  1.0000
  F   F195      1.0  0.00548  0.86125  0.07618  1.0000
  F   F196      1.0  0.00753  0.85707  0.57980  1.0000
  F   F197      1.0  0.26276  0.34905  0.06348  1.0000
  F   F198      1.0  0.25655  0.37579  0.56653  1.0000
  F   F199      1.0  0.25707  0.86572  0.06303  1.0000
  F   F200      1.0  0.25689  0.87319  0.56329  1.0000
  F   F201      1.0  0.51384  0.35948  0.06211  1.0000
  F   F202      1.0  0.50548  0.36197  0.57517  1.0000
  F   F203      1.0  0.50522  0.85175  0.08736  1.0000
  F   F204      1.0  0.50430  0.85227  0.58806  1.0000
  F   F205      1.0  0.75413  0.35976  0.06916  1.0000
  F   F206      1.0  0.75933  0.35510  0.58060  1.0000
  F   F207      1.0  0.75590  0.86622  0.07500  1.0000
  F   F208      1.0  0.75915  0.86202  0.56302  1.0000
  F   F209      1.0  0.06746  0.48345  0.17682  1.0000
  F   F210      1.0  0.06896  0.48290  0.67699  1.0000
  F   F211      1.0  0.06828  0.98274  0.17500  1.0000
  F   F212      1.0  0.06869  0.99722  0.67084  1.0000
  F   F213      1.0  0.31910  0.47882  0.16951  1.0000
  F   F214      1.0  0.31943  0.48531  0.67142  1.0000
  F   F215      1.0  0.32467  0.99806  0.15843  1.0000
  F   F216      1.0  0.31457  0.98685  0.68255  1.0000
  F   F217      1.0  0.56311  0.47245  0.19389  1.0000
  F   F218      1.0  0.56308  0.48900  0.69056  1.0000
  F   F219      1.0  0.56583  0.97458  0.18255  1.0000
  F   F220      1.0  0.57297  0.98742  0.66314  1.0000
  F   F221      1.0  0.81821  0.47914  0.18582  1.0000
  F   F222      1.0  0.80951  0.48549  0.68378  1.0000
  F   F223      1.0  0.81992  0.97540  0.18231  1.0000
  F   F224      1.0  0.81553  0.98429  0.68523  1.0000
  F   F225      1.0  0.24557  0.14757  0.41776  1.0000
  F   F226      1.0  0.23789  0.13802  0.92387  1.0000
  F   F227      1.0  0.24697  0.64925  0.41174  1.0000
  F   F228      1.0  0.24363  0.63058  0.92365  1.0000
  F   F229      1.0  0.48723  0.13332  0.44433  1.0000
  F   F230      1.0  0.49545  0.15147  0.91530  1.0000
  F   F231      1.0  0.48779  0.64456  0.42957  1.0000
  F   F232      1.0  0.48801  0.64861  0.93710  1.0000
  F   F233      1.0  0.74299  0.13038  0.43651  1.0000
  F   F234      1.0  0.73922  0.13179  0.93526  1.0000
  F   F235      1.0  0.73678  0.61740  0.44511  1.0000
  F   F236      1.0  0.73897  0.64504  0.93331  1.0000
  F   F237      1.0  0.99464  0.13857  0.42510  1.0000
  F   F238      1.0  0.99479  0.13753  0.92537  1.0000
  F   F239      1.0  0.99115  0.63345  0.42984  1.0000
  F   F240      1.0  0.99001  0.65107  0.92167  1.0000
  F   F241      1.0  0.17566  0.01662  0.33442  1.0000
  F   F242      1.0  0.19182  0.02476  0.80289  1.0000
  F   F243      1.0  0.18509  0.51168  0.31366  1.0000
  F   F244      1.0  0.17856  0.51274  0.83365  1.0000
  F   F245      1.0  0.42798  0.01428  0.33331  1.0000
  F   F246      1.0  0.42882  0.01394  0.83119  1.0000
  F   F247      1.0  0.42403  0.50832  0.34005  1.0000
  F   F248      1.0  0.43155  0.51402  0.82807  1.0000
  F   F249      1.0  0.67777  0.01249  0.32900  1.0000
  F   F250      1.0  0.68403  0.01812  0.81600  1.0000
  F   F251      1.0  0.67935  0.51157  0.32535  1.0000
  F   F252      1.0  0.68684  0.51927  0.82275  1.0000
  F   F253      1.0  0.92575  0.02480  0.33612  1.0000
  F   F254      1.0  0.92946  0.01734  0.82739  1.0000
  F   F255      1.0  0.93408  0.51734  0.32412  1.0000
  F   F256      1.0  0.93098  0.51450  0.81505  1.0000
  F   F257      1.0  0.00016  0.25413  0.99784  1.0000
  F   F258      1.0  0.00214  0.26236  0.48653  1.0000
  F   F259      1.0  0.00146  0.75738  0.99441  1.0000
  F   F260      1.0  0.99686  0.73608  0.51356  1.0000
  F   F261      1.0  0.24455  0.24047  0.99990  1.0000
  F   F262      1.0  0.25033  0.24517  0.50606  1.0000
  F   F263      1.0  0.25138  0.74216  0.00428  1.0000
  F   F264      1.0  0.24709  0.74345  0.51519  1.0000
  F   F265      1.0  0.50659  0.26715  0.98018  1.0000
  F   F266      1.0  0.50645  0.25669  0.49315  1.0000
  F   F267      1.0  0.50352  0.77307  0.99375  1.0000
  F   F268      1.0  0.49999  0.75418  0.49217  1.0000
  F   F269      1.0  0.75136  0.23688  0.00930  1.0000
  F   F270      1.0  0.74303  0.24747  0.50156  1.0000
  F   F271      1.0  0.75316  0.75900  0.00619  1.0000
  F   F272      1.0  0.74891  0.75367  0.48573  1.0000
  F   F273      1.0  0.12654  0.99476  0.24715  1.0000
  F   F274      1.0  0.12617  0.00041  0.75267  1.0000
  F   F275      1.0  0.12772  0.50554  0.23729  1.0000
  F   F276      1.0  0.13313  0.50251  0.73015  1.0000
  F   F277      1.0  0.38284  0.00599  0.22933  1.0000
  F   F278      1.0  0.37382  0.99822  0.75705  1.0000
  F   F279      1.0  0.37124  0.49739  0.26740  1.0000
  F   F280      1.0  0.37618  0.49427  0.74210  1.0000
  F   F281      1.0  0.61831  0.99089  0.26685  1.0000
  F   F282      1.0  0.61554  0.99168  0.76452  1.0000
  F   F283      1.0  0.62435  0.49215  0.25198  1.0000
  F   F284      1.0  0.62065  0.50659  0.75661  1.0000
  F   F285      1.0  0.88023  0.00814  0.23590  1.0000
  F   F286      1.0  0.87520  0.00506  0.74359  1.0000
  F   F287      1.0  0.88537  0.51630  0.23820  1.0000
  F   F288      1.0  0.87036  0.48893  0.75271  1.0000
  F   F289      1.0  0.03906  0.01851  0.02724  1.0000
  F   F290      1.0  0.04474  0.02568  0.52883  1.0000
  F   F291      1.0  0.04544  0.52948  0.02490  1.0000
  F   F292      1.0  0.04240  0.52723  0.52027  1.0000
  F   F293      1.0  0.29354  0.04392  0.01067  1.0000
  F   F294      1.0  0.29012  0.03695  0.52663  1.0000
  F   F295      1.0  0.30108  0.52584  0.00544  1.0000
  F   F296      1.0  0.29075  0.53618  0.51223  1.0000
  F   F297      1.0  0.54656  0.02808  0.01603  1.0000
  F   F298      1.0  0.55172  0.01624  0.51068  1.0000
  F   F299      1.0  0.54524  0.52066  0.02326  1.0000
  F   F300      1.0  0.53538  0.53461  0.53713  1.0000
  F   F301      1.0  0.78983  0.04470  0.03017  1.0000
  F   F302      1.0  0.80358  0.02371  0.51209  1.0000
  F   F303      1.0  0.79019  0.52376  0.03022  1.0000
  F   F304      1.0  0.79658  0.52769  0.51605  1.0000
  F   F305      1.0  0.23878  0.41683  0.21353  1.0000
  F   F306      1.0  0.22888  0.42329  0.72127  1.0000
  F   F307      1.0  0.23396  0.92719  0.21092  1.0000
  F   F308      1.0  0.23484  0.89317  0.73349  1.0000
  F   F309      1.0  0.48570  0.41624  0.23274  1.0000
  F   F310      1.0  0.48517  0.42355  0.71948  1.0000
  F   F311      1.0  0.48596  0.91942  0.22885  1.0000
  F   F312      1.0  0.48664  0.91955  0.72620  1.0000
  F   F313      1.0  0.73609  0.41410  0.22863  1.0000
  F   F314      1.0  0.73084  0.40490  0.73443  1.0000
  F   F315      1.0  0.73683  0.92532  0.22211  1.0000
  F   F316      1.0  0.73108  0.91358  0.73615  1.0000
  F   F317      1.0  0.97682  0.42512  0.22096  1.0000
  F   F318      1.0  0.98725  0.40495  0.73020  1.0000
  F   F319      1.0  0.98336  0.93262  0.21833  1.0000
  F   F320      1.0  0.98575  0.91744  0.74097  1.0000
  F   F321      1.0  0.20650  0.46990  0.47861  1.0000
  F   F322      1.0  0.21342  0.46677  0.97691  1.0000
  F   F323      1.0  0.20834  0.98536  0.47109  1.0000
  F   F324      1.0  0.20203  0.97665  0.97676  1.0000
  F   F325      1.0  0.45683  0.47279  0.47653  1.0000
  F   F326      1.0  0.45881  0.46938  0.96973  1.0000
  F   F327      1.0  0.45246  0.96232  0.48569  1.0000
  F   F328      1.0  0.45614  0.98023  0.98443  1.0000
  F   F329      1.0  0.70766  0.46265  0.46940  1.0000
  F   F330      1.0  0.70435  0.47461  0.98245  1.0000
  F   F331      1.0  0.70659  0.97715  0.48133  1.0000
  F   F332      1.0  0.69907  0.97786  0.98154  1.0000
  F   F333      1.0  0.96282  0.47033  0.45959  1.0000
  F   F334      1.0  0.95252  0.47058  0.98200  1.0000
  F   F335      1.0  0.95932  0.97504  0.48395  1.0000
  F   F336      1.0  0.95055  0.97106  0.98281  1.0000
  F   F337      1.0  0.01645  0.08939  0.26458  1.0000
  F   F338      1.0  0.01707  0.09123  0.76218  1.0000
  F   F339      1.0  0.01789  0.58785  0.26507  1.0000
  F   F340      1.0  0.01139  0.60156  0.77318  1.0000
  F   F341      1.0  0.26770  0.08371  0.26462  1.0000
  F   F342      1.0  0.26867  0.07588  0.78365  1.0000
  F   F343      1.0  0.26441  0.57313  0.28597  1.0000
  F   F344      1.0  0.26476  0.57832  0.78232  1.0000
  F   F345      1.0  0.51716  0.06713  0.29190  1.0000
  F   F346      1.0  0.51768  0.08608  0.76461  1.0000
  F   F347      1.0  0.51203  0.57712  0.27856  1.0000
  F   F348      1.0  0.51357  0.60410  0.77350  1.0000
  F   F349      1.0  0.76674  0.07895  0.27235  1.0000
  F   F350      1.0  0.76245  0.08514  0.76842  1.0000
  F   F351      1.0  0.76581  0.57823  0.27820  1.0000
  F   F352      1.0  0.76649  0.58995  0.77904  1.0000
  F   F353      1.0  0.10517  0.39841  0.45577  1.0000
  F   F354      1.0  0.09289  0.41804  0.94908  1.0000
  F   F355      1.0  0.10266  0.89671  0.46208  1.0000
  F   F356      1.0  0.11201  0.91546  0.95912  1.0000
  F   F357      1.0  0.35149  0.40269  0.46734  1.0000
  F   F358      1.0  0.35650  0.39136  0.96960  1.0000
  F   F359      1.0  0.34784  0.92269  0.46726  1.0000
  F   F360      1.0  0.35077  0.91078  0.96466  1.0000
  F   F361      1.0  0.59184  0.42409  0.45325  1.0000
  F   F362      1.0  0.60508  0.40634  0.95945  1.0000
  F   F363      1.0  0.59823  0.88392  0.46166  1.0000
  F   F364      1.0  0.59946  0.91113  0.97158  1.0000
  F   F365      1.0  0.84878  0.41235  0.46654  1.0000
  F   F366      1.0  0.84770  0.40275  0.96049  1.0000
  F   F367      1.0  0.85560  0.88348  0.46392  1.0000
  F   F368      1.0  0.84818  0.92060  0.96577  1.0000
  F   F369      1.0  0.03802  0.29317  0.29010  1.0000
  F   F370      1.0  0.04489  0.29548  0.79206  1.0000
  F   F371      1.0  0.03312  0.79682  0.29969  1.0000
  F   F372      1.0  0.04802  0.80035  0.78344  1.0000
  F   F373      1.0  0.30083  0.29584  0.29295  1.0000
  F   F374      1.0  0.29216  0.30497  0.78744  1.0000
  F   F375      1.0  0.29834  0.81028  0.29270  1.0000
  F   F376      1.0  0.30940  0.79850  0.78823  1.0000
  F   F377      1.0  0.54621  0.28589  0.29055  1.0000
  F   F378      1.0  0.54892  0.29447  0.77036  1.0000
  F   F379      1.0  0.54359  0.79887  0.28655  1.0000
  F   F380      1.0  0.54863  0.80240  0.78998  1.0000
  F   F381      1.0  0.79224  0.29396  0.29315  1.0000
  F   F382      1.0  0.79964  0.28777  0.78665  1.0000
  F   F383      1.0  0.78652  0.78622  0.27909  1.0000
  F   F384      1.0  0.79244  0.79700  0.79008  1.0000
