data_image0
_chemical_formula_structural       Hf96F384
_chemical_formula_sum              "Hf96 F384"
_cell_length_a       31.0495
_cell_length_b       15.5236
_cell_length_c       15.5157
_cell_angle_alpha    63.342
_cell_angle_beta     63.342
_cell_angle_gamma    80.1625

_space_group_name_H-M_alt    "P 1"
_space_group_IT_number       1

loop_
  _space_group_symop_operation_xyz
  'x, y, z'

loop_
  _atom_site_type_symbol
  _atom_site_label
  _atom_site_symmetry_multiplicity
  _atom_site_fract_x
  _atom_site_fract_y
  _atom_site_fract_z
  _atom_site_occupancy
  Hf  Hf1       1.0  0.19861  0.10246  0.36747  1.0000
  Hf  Hf2       1.0  0.19591  0.09866  0.88087  1.0000
  Hf  Hf3       1.0  0.19589  0.60765  0.38324  1.0000
  Hf  Hf4       1.0  0.19746  0.60560  0.87723  1.0000
  Hf  Hf5       1.0  0.45095  0.11310  0.36781  1.0000
  Hf  Hf6       1.0  0.44413  0.10892  0.87395  1.0000
  Hf  Hf7       1.0  0.44733  0.60519  0.37789  1.0000
  Hf  Hf8       1.0  0.44709  0.60602  0.87975  1.0000
  Hf  Hf9       1.0  0.69698  0.12305  0.36560  1.0000
  Hf  Hf10      1.0  0.70220  0.10126  0.87158  1.0000
  Hf  Hf11      1.0  0.69261  0.60322  0.38304  1.0000
  Hf  Hf12      1.0  0.69746  0.60606  0.87301  1.0000
  Hf  Hf13      1.0  0.94483  0.11216  0.37478  1.0000
  Hf  Hf14      1.0  0.94523  0.10418  0.87783  1.0000
  Hf  Hf15      1.0  0.94867  0.60194  0.37536  1.0000
  Hf  Hf16      1.0  0.94580  0.60550  0.87017  1.0000
  Hf  Hf17      1.0  0.05192  0.38830  0.12766  1.0000
  Hf  Hf18      1.0  0.05130  0.39530  0.62560  1.0000
  Hf  Hf19      1.0  0.05453  0.89450  0.12743  1.0000
  Hf  Hf20      1.0  0.04985  0.89046  0.63315  1.0000
  Hf  Hf21      1.0  0.30053  0.38626  0.12571  1.0000
  Hf  Hf22      1.0  0.29958  0.39475  0.63199  1.0000
  Hf  Hf23      1.0  0.30523  0.89348  0.11935  1.0000
  Hf  Hf24      1.0  0.30439  0.89835  0.61955  1.0000
  Hf  Hf25      1.0  0.55053  0.39285  0.13642  1.0000
  Hf  Hf26      1.0  0.55096  0.39024  0.62564  1.0000
  Hf  Hf27      1.0  0.54705  0.89480  0.13308  1.0000
  Hf  Hf28      1.0  0.55585  0.89149  0.62040  1.0000
  Hf  Hf29      1.0  0.80357  0.39694  0.12263  1.0000
  Hf  Hf30      1.0  0.80394  0.39363  0.62409  1.0000
  Hf  Hf31      1.0  0.80612  0.88819  0.12477  1.0000
  Hf  Hf32      1.0  0.80799  0.88648  0.61036  1.0000
  Hf  Hf33      1.0  0.05574  0.17732  0.42175  1.0000
  Hf  Hf34      1.0  0.05511  0.17622  0.92008  1.0000
  Hf  Hf35      1.0  0.05772  0.68999  0.40987  1.0000
  Hf  Hf36      1.0  0.05334  0.68567  0.91903  1.0000
  Hf  Hf37      1.0  0.30847  0.18893  0.40613  1.0000
  Hf  Hf38      1.0  0.30266  0.18640  0.92396  1.0000
  Hf  Hf39      1.0  0.30529  0.68689  0.41037  1.0000
  Hf  Hf40      1.0  0.30551  0.67988  0.92427  1.0000
  Hf  Hf41      1.0  0.56064  0.18882  0.41180  1.0000
  Hf  Hf42      1.0  0.55860  0.18696  0.90780  1.0000
  Hf  Hf43      1.0  0.55395  0.68476  0.42351  1.0000
  Hf  Hf44      1.0  0.55703  0.68570  0.91355  1.0000
  Hf  Hf45      1.0  0.80580  0.18383  0.41864  1.0000
  Hf  Hf46      1.0  0.80858  0.18260  0.91798  1.0000
  Hf  Hf47      1.0  0.80322  0.67902  0.42678  1.0000
  Hf  Hf48      1.0  0.80641  0.67951  0.91212  1.0000
  Hf  Hf49      1.0  0.15609  0.38321  0.33692  1.0000
  Hf  Hf50      1.0  0.15931  0.38271  0.83175  1.0000
  Hf  Hf51      1.0  0.15716  0.88126  0.33064  1.0000
  Hf  Hf52      1.0  0.16119  0.88315  0.83464  1.0000
  Hf  Hf53      1.0  0.40753  0.38742  0.33697  1.0000
  Hf  Hf54      1.0  0.40819  0.39133  0.83501  1.0000
  Hf  Hf55      1.0  0.40477  0.88820  0.33865  1.0000
  Hf  Hf56      1.0  0.41265  0.89731  0.82843  1.0000
  Hf  Hf57      1.0  0.66034  0.39646  0.32691  1.0000
  Hf  Hf58      1.0  0.65964  0.38297  0.83574  1.0000
  Hf  Hf59      1.0  0.66190  0.89009  0.32473  1.0000
  Hf  Hf60      1.0  0.66411  0.89266  0.82328  1.0000
  Hf  Hf61      1.0  0.90798  0.38935  0.33921  1.0000
  Hf  Hf62      1.0  0.90945  0.38558  0.83396  1.0000
  Hf  Hf63      1.0  0.91212  0.89470  0.32411  1.0000
  Hf  Hf64      1.0  0.90986  0.88610  0.83567  1.0000
  Hf  Hf65      1.0  0.19302  0.31676  0.07868  1.0000
  Hf  Hf66      1.0  0.19048  0.31113  0.59561  1.0000
  Hf  Hf67      1.0  0.19663  0.81076  0.08379  1.0000
  Hf  Hf68      1.0  0.19066  0.81456  0.58891  1.0000
  Hf  Hf69      1.0  0.44402  0.31538  0.08538  1.0000
  Hf  Hf70      1.0  0.44256  0.31991  0.58865  1.0000
  Hf  Hf71      1.0  0.44179  0.81305  0.09040  1.0000
  Hf  Hf72      1.0  0.44429  0.82629  0.58624  1.0000
  Hf  Hf73      1.0  0.69541  0.32111  0.07502  1.0000
  Hf  Hf74      1.0  0.69368  0.32217  0.58522  1.0000
  Hf  Hf75      1.0  0.69213  0.81883  0.08150  1.0000
  Hf  Hf76      1.0  0.69352  0.82366  0.57974  1.0000
  Hf  Hf77      1.0  0.94417  0.30997  0.08714  1.0000
  Hf  Hf78      1.0  0.94196  0.31042  0.59541  1.0000
  Hf  Hf79      1.0  0.94758  0.81645  0.08323  1.0000
  Hf  Hf80      1.0  0.94562  0.82030  0.57883  1.0000
  Hf  Hf81      1.0  0.08722  0.10407  0.17478  1.0000
  Hf  Hf82      1.0  0.09065  0.10863  0.66585  1.0000
  Hf  Hf83      1.0  0.09052  0.61340  0.16729  1.0000
  Hf  Hf84      1.0  0.08965  0.61089  0.66504  1.0000
  Hf  Hf85      1.0  0.34050  0.10600  0.16485  1.0000
  Hf  Hf86      1.0  0.34136  0.11701  0.66272  1.0000
  Hf  Hf87      1.0  0.33901  0.60807  0.16981  1.0000
  Hf  Hf88      1.0  0.34049  0.61306  0.66665  1.0000
  Hf  Hf89      1.0  0.59214  0.11530  0.15773  1.0000
  Hf  Hf90      1.0  0.59278  0.11535  0.66119  1.0000
  Hf  Hf91      1.0  0.59414  0.61999  0.16170  1.0000
  Hf  Hf92      1.0  0.59435  0.60999  0.66459  1.0000
  Hf  Hf93      1.0  0.83966  0.11175  0.16448  1.0000
  Hf  Hf94      1.0  0.84099  0.10586  0.66492  1.0000
  Hf  Hf95      1.0  0.84113  0.61024  0.16253  1.0000
  Hf  Hf96      1.0  0.83857  0.60289  0.67301  1.0000
  F   F1        1.0  0.08460  0.12697  0.30691  1.0000
  F   F2        1.0  0.07880  0.14844  0.79597  1.0000
  F   F3        1.0  0.07794  0.63580  0.30143  1.0000
  F   F4        1.0  0.07105  0.62862  0.81384  1.0000
  F   F5        1.0  0.33186  0.11708  0.29941  1.0000
  F   F6        1.0  0.33017  0.14269  0.81257  1.0000
  F   F7        1.0  0.32244  0.63377  0.30477  1.0000
  F   F8        1.0  0.33117  0.61212  0.80816  1.0000
  F   F9        1.0  0.58261  0.14148  0.29619  1.0000
  F   F10       1.0  0.57941  0.12874  0.80413  1.0000
  F   F11       1.0  0.58850  0.65996  0.29378  1.0000
  F   F12       1.0  0.57398  0.63201  0.80664  1.0000
  F   F13       1.0  0.83765  0.14174  0.28722  1.0000
  F   F14       1.0  0.82955  0.12071  0.80014  1.0000
  F   F15       1.0  0.82891  0.61876  0.31077  1.0000
  F   F16       1.0  0.82843  0.61966  0.80841  1.0000
  F   F17       1.0  0.18276  0.34172  0.45240  1.0000
  F   F18       1.0  0.19429  0.34361  0.93451  1.0000
  F   F19       1.0  0.18706  0.83297  0.44991  1.0000
  F   F20       1.0  0.19277  0.83489  0.94058  1.0000
  F   F21       1.0  0.43702  0.34072  0.44513  1.0000
  F   F22       1.0  0.43526  0.33450  0.94513  1.0000
  F   F23       1.0  0.44083  0.84776  0.45143  1.0000
  F   F24       1.0  0.43360  0.83633  0.94380  1.0000
  F   F25       1.0  0.68183  0.32959  0.46053  1.0000
  F   F26       1.0  0.69555  0.34994  0.93330  1.0000
  F   F27       1.0  0.68911  0.83307  0.44602  1.0000
  F   F28       1.0  0.69413  0.83493  0.93922  1.0000
  F   F29       1.0  0.93388  0.32759  0.44920  1.0000
  F   F30       1.0  0.93533  0.33720  0.95503  1.0000
  F   F31       1.0  0.93770  0.83754  0.45460  1.0000
  F   F32       1.0  0.94038  0.85302  0.94008  1.0000
  F   F33       1.0  0.16812  0.36818  0.19264  1.0000
  F   F34       1.0  0.16928  0.37004  0.69894  1.0000
  F   F35       1.0  0.16870  0.86801  0.19600  1.0000
  F   F36       1.0  0.16647  0.86722  0.69814  1.0000
  F   F37       1.0  0.41728  0.38002  0.18522  1.0000
  F   F38       1.0  0.41974  0.37251  0.69973  1.0000
  F   F39       1.0  0.41334  0.85859  0.21284  1.0000
  F   F40       1.0  0.42118  0.86741  0.70517  1.0000
  F   F41       1.0  0.66871  0.36944  0.19650  1.0000
  F   F42       1.0  0.67089  0.36809  0.70130  1.0000
  F   F43       1.0  0.66964  0.87967  0.19170  1.0000
  F   F44       1.0  0.67374  0.88698  0.68631  1.0000
  F   F45       1.0  0.92191  0.35189  0.20560  1.0000
  F   F46       1.0  0.92073  0.36781  0.70415  1.0000
  F   F47       1.0  0.91991  0.87853  0.20028  1.0000
  F   F48       1.0  0.91332  0.86536  0.71149  1.0000
  F   F49       1.0  0.06002  0.15513  0.06456  1.0000
  F   F50       1.0  0.05913  0.15260  0.55499  1.0000
  F   F51       1.0  0.05597  0.65352  0.05638  1.0000
  F   F52       1.0  0.07082  0.68288  0.54390  1.0000
  F   F53       1.0  0.30821  0.14573  0.05930  1.0000
  F   F54       1.0  0.30553  0.16483  0.55122  1.0000
  F   F55       1.0  0.30973  0.65626  0.06453  1.0000
  F   F56       1.0  0.31268  0.65850  0.56405  1.0000
  F   F57       1.0  0.55926  0.15238  0.05514  1.0000
  F   F58       1.0  0.56402  0.16100  0.55351  1.0000
  F   F59       1.0  0.56882  0.66812  0.04217  1.0000
  F   F60       1.0  0.56643  0.65331  0.55631  1.0000
  F   F61       1.0  0.80760  0.15248  0.06316  1.0000
  F   F62       1.0  0.81664  0.15162  0.55691  1.0000
  F   F63       1.0  0.80766  0.64765  0.05852  1.0000
  F   F64       1.0  0.82257  0.64913  0.55191  1.0000
  F   F65       1.0  0.20504  0.20737  0.20679  1.0000
  F   F66       1.0  0.21142  0.20390  0.70771  1.0000
  F   F67       1.0  0.20497  0.70689  0.20633  1.0000
  F   F68       1.0  0.20295  0.68661  0.71726  1.0000
  F   F69       1.0  0.45385  0.19958  0.21096  1.0000
  F   F70       1.0  0.45605  0.19803  0.70778  1.0000
  F   F71       1.0  0.45728  0.71807  0.21165  1.0000
  F   F72       1.0  0.44428  0.69606  0.69980  1.0000
  F   F73       1.0  0.70861  0.20017  0.20031  1.0000
  F   F74       1.0  0.70370  0.20310  0.71101  1.0000
  F   F75       1.0  0.69064  0.69775  0.23687  1.0000
  F   F76       1.0  0.70679  0.71926  0.69410  1.0000
  F   F77       1.0  0.95368  0.19404  0.21580  1.0000
  F   F78       1.0  0.95648  0.20163  0.71835  1.0000
  F   F79       1.0  0.95687  0.70393  0.20262  1.0000
  F   F80       1.0  0.96071  0.69866  0.71260  1.0000
  F   F81       1.0  0.14261  0.08121  0.04186  1.0000
  F   F82       1.0  0.14823  0.09019  0.54659  1.0000
  F   F83       1.0  0.14908  0.60258  0.03146  1.0000
  F   F84       1.0  0.15220  0.60182  0.53135  1.0000
  F   F85       1.0  0.39511  0.10074  0.03830  1.0000
  F   F86       1.0  0.39755  0.10123  0.52423  1.0000
  F   F87       1.0  0.40585  0.59242  0.03392  1.0000
  F   F88       1.0  0.40016  0.59726  0.53471  1.0000
  F   F89       1.0  0.64354  0.08422  0.03905  1.0000
  F   F90       1.0  0.64940  0.11270  0.51525  1.0000
  F   F91       1.0  0.65049  0.58131  0.04910  1.0000
  F   F92       1.0  0.65125  0.59217  0.54379  1.0000
  F   F93       1.0  0.89751  0.07754  0.03695  1.0000
  F   F94       1.0  0.90300  0.09579  0.53831  1.0000
  F   F95       1.0  0.89328  0.59613  0.02120  1.0000
  F   F96       1.0  0.90377  0.58623  0.54755  1.0000
  F   F97       1.0  0.15040  0.19361  0.10999  1.0000
  F   F98       1.0  0.15052  0.18242  0.64014  1.0000
  F   F99       1.0  0.15059  0.69214  0.12539  1.0000
  F   F100      1.0  0.14701  0.69880  0.62178  1.0000
  F   F101      1.0  0.40077  0.19704  0.13075  1.0000
  F   F102      1.0  0.40201  0.19234  0.62163  1.0000
  F   F103      1.0  0.40272  0.69708  0.13505  1.0000
  F   F104      1.0  0.38811  0.72527  0.60575  1.0000
  F   F105      1.0  0.64730  0.20476  0.11931  1.0000
  F   F106      1.0  0.65115  0.20363  0.61859  1.0000
  F   F107      1.0  0.65039  0.71116  0.10841  1.0000
  F   F108      1.0  0.65199  0.70442  0.62215  1.0000
  F   F109      1.0  0.90263  0.18580  0.12080  1.0000
  F   F110      1.0  0.89203  0.21098  0.63100  1.0000
  F   F111      1.0  0.89556  0.69671  0.13355  1.0000
  F   F112      1.0  0.90498  0.68909  0.62796  1.0000
  F   F113      1.0  0.09871  0.30535  0.38848  1.0000
  F   F114      1.0  0.09288  0.29673  0.86254  1.0000
  F   F115      1.0  0.09879  0.80595  0.35272  1.0000
  F   F116      1.0  0.09990  0.80318  0.89243  1.0000
  F   F117      1.0  0.34957  0.30353  0.36427  1.0000
  F   F118      1.0  0.34840  0.30032  0.88720  1.0000
  F   F119      1.0  0.34157  0.81424  0.37901  1.0000
  F   F120      1.0  0.35358  0.81106  0.90782  1.0000
  F   F121      1.0  0.60153  0.31172  0.36280  1.0000
  F   F122      1.0  0.59913  0.30730  0.86884  1.0000
  F   F123      1.0  0.59814  0.79292  0.37289  1.0000
  F   F124      1.0  0.60330  0.80052  0.85700  1.0000
  F   F125      1.0  0.84925  0.29509  0.39536  1.0000
  F   F126      1.0  0.85010  0.29620  0.90207  1.0000
  F   F127      1.0  0.84712  0.78443  0.38138  1.0000
  F   F128      1.0  0.84170  0.79325  0.89257  1.0000
  F   F129      1.0  0.06312  0.24920  0.14856  1.0000
  F   F130      1.0  0.06343  0.25252  0.62866  1.0000
  F   F131      1.0  0.06567  0.74834  0.13993  1.0000
  F   F132      1.0  0.05627  0.74488  0.66945  1.0000
  F   F133      1.0  0.31689  0.24586  0.13068  1.0000
  F   F134      1.0  0.31439  0.25477  0.64916  1.0000
  F   F135      1.0  0.32248  0.75525  0.13032  1.0000
  F   F136      1.0  0.30440  0.75396  0.67773  1.0000
  F   F137      1.0  0.56253  0.25844  0.14087  1.0000
  F   F138      1.0  0.57035  0.25576  0.62909  1.0000
  F   F139      1.0  0.56185  0.75520  0.14358  1.0000
  F   F140      1.0  0.56786  0.75489  0.64338  1.0000
  F   F141      1.0  0.80861  0.25477  0.14279  1.0000
  F   F142      1.0  0.80819  0.25140  0.64175  1.0000
  F   F143      1.0  0.81155  0.73769  0.15159  1.0000
  F   F144      1.0  0.80840  0.74296  0.65826  1.0000
  F   F145      1.0  0.12576  0.36062  0.10979  1.0000
  F   F146      1.0  0.12244  0.36193  0.61837  1.0000
  F   F147      1.0  0.11966  0.86064  0.12247  1.0000
  F   F148      1.0  0.12251  0.87483  0.60552  1.0000
  F   F149      1.0  0.37450  0.38524  0.09404  1.0000
  F   F150      1.0  0.37347  0.36071  0.61614  1.0000
  F   F151      1.0  0.37443  0.86138  0.11697  1.0000
  F   F152      1.0  0.37389  0.88475  0.60597  1.0000
  F   F153      1.0  0.62337  0.39387  0.08151  1.0000
  F   F154      1.0  0.62452  0.37342  0.60132  1.0000
  F   F155      1.0  0.62366  0.88628  0.09367  1.0000
  F   F156      1.0  0.62322  0.87121  0.62106  1.0000
  F   F157      1.0  0.87412  0.34014  0.12711  1.0000
  F   F158      1.0  0.87742  0.39247  0.58100  1.0000
  F   F159      1.0  0.87329  0.86024  0.12295  1.0000
  F   F160      1.0  0.87594  0.87213  0.60381  1.0000
  F   F161      1.0  0.17968  0.24301  0.37397  1.0000
  F   F162      1.0  0.17116  0.24063  0.87117  1.0000
  F   F163      1.0  0.18608  0.75022  0.35642  1.0000
  F   F164      1.0  0.18719  0.73977  0.86398  1.0000
  F   F165      1.0  0.43474  0.25612  0.35670  1.0000
  F   F166      1.0  0.43400  0.24770  0.85390  1.0000
  F   F167      1.0  0.42622  0.75347  0.37730  1.0000
  F   F168      1.0  0.44597  0.74741  0.83649  1.0000
  F   F169      1.0  0.69966  0.27044  0.32020  1.0000
  F   F170      1.0  0.68241  0.23808  0.86945  1.0000
  F   F171      1.0  0.68397  0.75412  0.35896  1.0000
  F   F172      1.0  0.69051  0.75690  0.84715  1.0000
  F   F173      1.0  0.92887  0.24693  0.36418  1.0000
  F   F174      1.0  0.94015  0.25203  0.86077  1.0000
  F   F175      1.0  0.94544  0.76072  0.34505  1.0000
  F   F176      1.0  0.93377  0.75424  0.85573  1.0000
  F   F177      1.0  0.13066  0.12911  0.38165  1.0000
  F   F178      1.0  0.12043  0.11353  0.90565  1.0000
  F   F179      1.0  0.12547  0.62493  0.39207  1.0000
  F   F180      1.0  0.12867  0.64980  0.87081  1.0000
  F   F181      1.0  0.37853  0.13726  0.38542  1.0000
  F   F182      1.0  0.37113  0.13029  0.90670  1.0000
  F   F183      1.0  0.37810  0.66443  0.36593  1.0000
  F   F184      1.0  0.37602  0.64250  0.89404  1.0000
  F   F185      1.0  0.63095  0.15022  0.37471  1.0000
  F   F186      1.0  0.62981  0.12552  0.88886  1.0000
  F   F187      1.0  0.62038  0.59579  0.42062  1.0000
  F   F188      1.0  0.62908  0.64354  0.87559  1.0000
  F   F189      1.0  0.87660  0.12032  0.39320  1.0000
  F   F190      1.0  0.87818  0.14730  0.87554  1.0000
  F   F191      1.0  0.88243  0.63720  0.38774  1.0000
  F   F192      1.0  0.87797  0.63611  0.87237  1.0000
  F   F193      1.0  0.00719  0.34328  0.08626  1.0000
  F   F194      1.0  0.00516  0.36290  0.57609  1.0000
  F   F195      1.0  0.01148  0.85808  0.07074  1.0000
  F   F196      1.0  0.00752  0.86460  0.57752  1.0000
  F   F197      1.0  0.26026  0.36264  0.06180  1.0000
  F   F198      1.0  0.25629  0.37139  0.57375  1.0000
  F   F199      1.0  0.25613  0.85681  0.06860  1.0000
  F   F200      1.0  0.25532  0.86227  0.58134  1.0000
  F   F201      1.0  0.50411  0.36932  0.08865  1.0000
  F   F202      1.0  0.50459  0.36136  0.58267  1.0000
  F   F203      1.0  0.50580  0.86743  0.06415  1.0000
  F   F204      1.0  0.51055  0.86313  0.57578  1.0000
  F   F205      1.0  0.75809  0.38069  0.05152  1.0000
  F   F206      1.0  0.75644  0.37675  0.57098  1.0000
  F   F207      1.0  0.75289  0.84857  0.08842  1.0000
  F   F208      1.0  0.76325  0.87231  0.55770  1.0000
  F   F209      1.0  0.06976  0.49495  0.16755  1.0000
  F   F210      1.0  0.07586  0.50184  0.64739  1.0000
  F   F211      1.0  0.06451  0.98244  0.17827  1.0000
  F   F212      1.0  0.06532  0.98841  0.68355  1.0000
  F   F213      1.0  0.31842  0.47933  0.19600  1.0000
  F   F214      1.0  0.32175  0.48725  0.67068  1.0000
  F   F215      1.0  0.32120  0.98153  0.16345  1.0000
  F   F216      1.0  0.31661  0.99583  0.67524  1.0000
  F   F217      1.0  0.57570  0.48947  0.17473  1.0000
  F   F218      1.0  0.56621  0.49304  0.67485  1.0000
  F   F219      1.0  0.56707  0.97736  0.18274  1.0000
  F   F220      1.0  0.57082  0.99362  0.66357  1.0000
  F   F221      1.0  0.82606  0.47473  0.17997  1.0000
  F   F222      1.0  0.81806  0.47471  0.68819  1.0000
  F   F223      1.0  0.82242  0.98366  0.17121  1.0000
  F   F224      1.0  0.82084  0.98655  0.66931  1.0000
  F   F225      1.0  0.24668  0.13512  0.41403  1.0000
  F   F226      1.0  0.23921  0.15714  0.91221  1.0000
  F   F227      1.0  0.23993  0.63744  0.44516  1.0000
  F   F228      1.0  0.24697  0.63338  0.91850  1.0000
  F   F229      1.0  0.49559  0.14123  0.41975  1.0000
  F   F230      1.0  0.49284  0.13330  0.94753  1.0000
  F   F231      1.0  0.49450  0.64906  0.41727  1.0000
  F   F232      1.0  0.49650  0.63723  0.93568  1.0000
  F   F233      1.0  0.74607  0.15481  0.40630  1.0000
  F   F234      1.0  0.74470  0.14031  0.92192  1.0000
  F   F235      1.0  0.73750  0.64564  0.42989  1.0000
  F   F236      1.0  0.74225  0.63760  0.91831  1.0000
  F   F237      1.0  0.99087  0.15163  0.42102  1.0000
  F   F238      1.0  0.99771  0.13557  0.91296  1.0000
  F   F239      1.0  0.99253  0.62930  0.43622  1.0000
  F   F240      1.0  0.98767  0.62743  0.94095  1.0000
  F   F241      1.0  0.18182  0.01133  0.32566  1.0000
  F   F242      1.0  0.18714  0.01677  0.81162  1.0000
  F   F243      1.0  0.18471  0.51163  0.32550  1.0000
  F   F244      1.0  0.17102  0.50927  0.85008  1.0000
  F   F245      1.0  0.43996  0.01432  0.32203  1.0000
  F   F246      1.0  0.43278  0.01990  0.81907  1.0000
  F   F247      1.0  0.42976  0.51546  0.33811  1.0000
  F   F248      1.0  0.42696  0.51290  0.83799  1.0000
  F   F249      1.0  0.67978  0.01412  0.32835  1.0000
  F   F250      1.0  0.68758  0.00815  0.82468  1.0000
  F   F251      1.0  0.68148  0.51710  0.32304  1.0000
  F   F252      1.0  0.68111  0.51413  0.82614  1.0000
  F   F253      1.0  0.93362  0.02056  0.32318  1.0000
  F   F254      1.0  0.92472  0.01613  0.83675  1.0000
  F   F255      1.0  0.93042  0.51795  0.32717  1.0000
  F   F256      1.0  0.93138  0.51870  0.82110  1.0000
  F   F257      1.0  0.00091  0.25563  0.98178  1.0000
  F   F258      1.0  0.99168  0.23432  0.51167  1.0000
  F   F259      1.0  0.99459  0.74036  0.00714  1.0000
  F   F260      1.0  0.00110  0.75333  0.49742  1.0000
  F   F261      1.0  0.24284  0.22717  0.01719  1.0000
  F   F262      1.0  0.25215  0.25987  0.47901  1.0000
  F   F263      1.0  0.24663  0.74566  0.99619  1.0000
  F   F264      1.0  0.25044  0.75557  0.49798  1.0000
  F   F265      1.0  0.50409  0.26798  0.99146  1.0000
  F   F266      1.0  0.50370  0.25264  0.50008  1.0000
  F   F267      1.0  0.49897  0.74685  0.00791  1.0000
  F   F268      1.0  0.50068  0.74190  0.50880  1.0000
  F   F269      1.0  0.75329  0.24849  0.00944  1.0000
  F   F270      1.0  0.75184  0.25264  0.50964  1.0000
  F   F271      1.0  0.74223  0.73461  0.01896  1.0000
  F   F272      1.0  0.75189  0.74915  0.49970  1.0000
  F   F273      1.0  0.11707  0.98790  0.25444  1.0000
  F   F274      1.0  0.11719  0.99336  0.77049  1.0000
  F   F275      1.0  0.12003  0.50032  0.25914  1.0000
  F   F276      1.0  0.13009  0.50061  0.74871  1.0000
  F   F277      1.0  0.36990  0.99115  0.25500  1.0000
  F   F278      1.0  0.37201  0.99875  0.75044  1.0000
  F   F279      1.0  0.37982  0.51844  0.24527  1.0000
  F   F280      1.0  0.37838  0.49158  0.74235  1.0000
  F   F281      1.0  0.62187  0.99543  0.25464  1.0000
  F   F282      1.0  0.62508  0.00551  0.73959  1.0000
  F   F283      1.0  0.62726  0.50609  0.24759  1.0000
  F   F284      1.0  0.62540  0.50057  0.75234  1.0000
  F   F285      1.0  0.86946  0.99339  0.26345  1.0000
  F   F286      1.0  0.88451  0.00310  0.74408  1.0000
  F   F287      1.0  0.88643  0.50397  0.22356  1.0000
  F   F288      1.0  0.87447  0.49861  0.74926  1.0000
  F   F289      1.0  0.04136  0.02862  0.02726  1.0000
  F   F290      1.0  0.04965  0.01707  0.50858  1.0000
  F   F291      1.0  0.05111  0.52684  0.01749  1.0000
  F   F292      1.0  0.04209  0.54356  0.52314  1.0000
  F   F293      1.0  0.28751  0.03723  0.01757  1.0000
  F   F294      1.0  0.29610  0.03038  0.52082  1.0000
  F   F295      1.0  0.29856  0.52241  0.02537  1.0000
  F   F296      1.0  0.30758  0.52308  0.50946  1.0000
  F   F297      1.0  0.55490  0.02297  0.01430  1.0000
  F   F298      1.0  0.54848  0.03946  0.50470  1.0000
  F   F299      1.0  0.55633  0.52645  0.02345  1.0000
  F   F300      1.0  0.53923  0.52809  0.52244  1.0000
  F   F301      1.0  0.80053  0.02450  0.01423  1.0000
  F   F302      1.0  0.79901  0.03825  0.50822  1.0000
  F   F303      1.0  0.79521  0.53399  0.01664  1.0000
  F   F304      1.0  0.79562  0.52846  0.53376  1.0000
  F   F305      1.0  0.23308  0.41589  0.21895  1.0000
  F   F306      1.0  0.23407  0.43421  0.72264  1.0000
  F   F307      1.0  0.23365  0.92100  0.21696  1.0000
  F   F308      1.0  0.24362  0.88782  0.74650  1.0000
  F   F309      1.0  0.48149  0.42893  0.22842  1.0000
  F   F310      1.0  0.48506  0.42042  0.73084  1.0000
  F   F311      1.0  0.47898  0.93189  0.22015  1.0000
  F   F312      1.0  0.48809  0.93317  0.71407  1.0000
  F   F313      1.0  0.73733  0.43762  0.20566  1.0000
  F   F314      1.0  0.73271  0.40752  0.73737  1.0000
  F   F315      1.0  0.73930  0.92340  0.21227  1.0000
  F   F316      1.0  0.74042  0.91890  0.71531  1.0000
  F   F317      1.0  0.98356  0.41193  0.23480  1.0000
  F   F318      1.0  0.97989  0.43056  0.71561  1.0000
  F   F319      1.0  0.98666  0.92092  0.21826  1.0000
  F   F320      1.0  0.98214  0.90864  0.72876  1.0000
  F   F321      1.0  0.19835  0.47246  0.48975  1.0000
  F   F322      1.0  0.20681  0.46871  0.97791  1.0000
  F   F323      1.0  0.20734  0.96526  0.47447  1.0000
  F   F324      1.0  0.20014  0.96627  0.98967  1.0000
  F   F325      1.0  0.46100  0.46898  0.47984  1.0000
  F   F326      1.0  0.46532  0.46077  0.97432  1.0000
  F   F327      1.0  0.45654  0.98290  0.49592  1.0000
  F   F328      1.0  0.45206  0.96374  0.98282  1.0000
  F   F329      1.0  0.70768  0.46460  0.47156  1.0000
  F   F330      1.0  0.70477  0.48088  0.97445  1.0000
  F   F331      1.0  0.70431  0.98226  0.47854  1.0000
  F   F332      1.0  0.70804  0.96681  0.98225  1.0000
  F   F333      1.0  0.95644  0.45734  0.48608  1.0000
  F   F334      1.0  0.95825  0.45419  0.98733  1.0000
  F   F335      1.0  0.95053  0.97005  0.48546  1.0000
  F   F336      1.0  0.95781  0.97341  0.98052  1.0000
  F   F337      1.0  0.01596  0.07457  0.28724  1.0000
  F   F338      1.0  0.01507  0.08343  0.77603  1.0000
  F   F339      1.0  0.01497  0.59590  0.27287  1.0000
  F   F340      1.0  0.01771  0.56560  0.77535  1.0000
  F   F341      1.0  0.26465  0.09120  0.25952  1.0000
  F   F342      1.0  0.26897  0.07894  0.78905  1.0000
  F   F343      1.0  0.26574  0.58016  0.28570  1.0000
  F   F344      1.0  0.26187  0.57034  0.77729  1.0000
  F   F345      1.0  0.52339  0.07781  0.27309  1.0000
  F   F346      1.0  0.51633  0.10209  0.78102  1.0000
  F   F347      1.0  0.51608  0.60073  0.26708  1.0000
  F   F348      1.0  0.51031  0.59806  0.76884  1.0000
  F   F349      1.0  0.76305  0.08031  0.27804  1.0000
  F   F350      1.0  0.76593  0.07955  0.77532  1.0000
  F   F351      1.0  0.76372  0.58765  0.25899  1.0000
  F   F352      1.0  0.76548  0.58383  0.76721  1.0000
  F   F353      1.0  0.09807  0.40544  0.47410  1.0000
  F   F354      1.0  0.10127  0.38721  0.95567  1.0000
  F   F355      1.0  0.10168  0.88675  0.45754  1.0000
  F   F356      1.0  0.11154  0.90829  0.96255  1.0000
  F   F357      1.0  0.35347  0.38554  0.46524  1.0000
  F   F358      1.0  0.35331  0.41085  0.95581  1.0000
  F   F359      1.0  0.35096  0.91819  0.45210  1.0000
  F   F360      1.0  0.35164  0.92951  0.96872  1.0000
  F   F361      1.0  0.59726  0.40070  0.46497  1.0000
  F   F362      1.0  0.59937  0.40057  0.94760  1.0000
  F   F363      1.0  0.60359  0.90185  0.46067  1.0000
  F   F364      1.0  0.60568  0.89852  0.94439  1.0000
  F   F365      1.0  0.84836  0.41642  0.45602  1.0000
  F   F366      1.0  0.85471  0.41041  0.96773  1.0000
  F   F367      1.0  0.84686  0.89939  0.45834  1.0000
  F   F368      1.0  0.85592  0.88648  0.98047  1.0000
  F   F369      1.0  0.04844  0.30184  0.29492  1.0000
  F   F370      1.0  0.04029  0.30136  0.77108  1.0000
  F   F371      1.0  0.03865  0.79803  0.29671  1.0000
  F   F372      1.0  0.05024  0.81846  0.79120  1.0000
  F   F373      1.0  0.29300  0.29581  0.28334  1.0000
  F   F374      1.0  0.29029  0.31847  0.79048  1.0000
  F   F375      1.0  0.29997  0.80011  0.28312  1.0000
  F   F376      1.0  0.31098  0.79999  0.80440  1.0000
  F   F377      1.0  0.54461  0.31101  0.29149  1.0000
  F   F378      1.0  0.54165  0.29850  0.78424  1.0000
  F   F379      1.0  0.53020  0.80783  0.29537  1.0000
  F   F380      1.0  0.54124  0.80432  0.78119  1.0000
  F   F381      1.0  0.79032  0.30393  0.29223  1.0000
  F   F382      1.0  0.80719  0.29697  0.78081  1.0000
  F   F383      1.0  0.79308  0.79604  0.29272  1.0000
  F   F384      1.0  0.80514  0.79760  0.78045  1.0000
