data_image0
_chemical_formula_structural       Hf96F384
_chemical_formula_sum              "Hf96 F384"
_cell_length_a       31.0061
_cell_length_b       15.505
_cell_length_c       15.4995
_cell_angle_alpha    63.342
_cell_angle_beta     63.342
_cell_angle_gamma    80.1625

_space_group_name_H-M_alt    "P 1"
_space_group_IT_number       1

loop_
  _space_group_symop_operation_xyz
  'x, y, z'

loop_
  _atom_site_type_symbol
  _atom_site_label
  _atom_site_symmetry_multiplicity
  _atom_site_fract_x
  _atom_site_fract_y
  _atom_site_fract_z
  _atom_site_occupancy
  Hf  Hf1       1.0  0.19469  0.11174  0.37197  1.0000
  Hf  Hf2       1.0  0.19389  0.10020  0.89074  1.0000
  Hf  Hf3       1.0  0.19559  0.60488  0.37820  1.0000
  Hf  Hf4       1.0  0.19572  0.60990  0.87820  1.0000
  Hf  Hf5       1.0  0.44826  0.10687  0.37321  1.0000
  Hf  Hf6       1.0  0.44728  0.11342  0.86612  1.0000
  Hf  Hf7       1.0  0.44774  0.61188  0.37190  1.0000
  Hf  Hf8       1.0  0.44772  0.60101  0.87878  1.0000
  Hf  Hf9       1.0  0.69871  0.11587  0.36959  1.0000
  Hf  Hf10      1.0  0.69761  0.11526  0.86469  1.0000
  Hf  Hf11      1.0  0.69706  0.60954  0.37559  1.0000
  Hf  Hf12      1.0  0.69932  0.61376  0.86879  1.0000
  Hf  Hf13      1.0  0.94997  0.10840  0.37248  1.0000
  Hf  Hf14      1.0  0.94653  0.10051  0.88147  1.0000
  Hf  Hf15      1.0  0.94683  0.60378  0.37626  1.0000
  Hf  Hf16      1.0  0.94544  0.60718  0.87989  1.0000
  Hf  Hf17      1.0  0.05239  0.39346  0.11757  1.0000
  Hf  Hf18      1.0  0.05648  0.39198  0.62496  1.0000
  Hf  Hf19      1.0  0.05130  0.88842  0.13223  1.0000
  Hf  Hf20      1.0  0.05193  0.89441  0.62366  1.0000
  Hf  Hf21      1.0  0.30172  0.39026  0.13120  1.0000
  Hf  Hf22      1.0  0.30391  0.39061  0.62569  1.0000
  Hf  Hf23      1.0  0.30600  0.89491  0.11899  1.0000
  Hf  Hf24      1.0  0.30293  0.89593  0.63394  1.0000
  Hf  Hf25      1.0  0.55541  0.39174  0.12360  1.0000
  Hf  Hf26      1.0  0.55320  0.39080  0.62181  1.0000
  Hf  Hf27      1.0  0.55175  0.89846  0.12339  1.0000
  Hf  Hf28      1.0  0.55243  0.89321  0.62496  1.0000
  Hf  Hf29      1.0  0.80152  0.38853  0.12713  1.0000
  Hf  Hf30      1.0  0.80568  0.39658  0.62228  1.0000
  Hf  Hf31      1.0  0.80169  0.88262  0.12745  1.0000
  Hf  Hf32      1.0  0.80350  0.89637  0.62824  1.0000
  Hf  Hf33      1.0  0.05930  0.18908  0.41039  1.0000
  Hf  Hf34      1.0  0.05631  0.17867  0.91985  1.0000
  Hf  Hf35      1.0  0.05761  0.67919  0.41507  1.0000
  Hf  Hf36      1.0  0.05380  0.68397  0.91435  1.0000
  Hf  Hf37      1.0  0.30746  0.17955  0.42002  1.0000
  Hf  Hf38      1.0  0.30680  0.18597  0.91733  1.0000
  Hf  Hf39      1.0  0.30560  0.68608  0.41619  1.0000
  Hf  Hf40      1.0  0.30576  0.68024  0.91860  1.0000
  Hf  Hf41      1.0  0.55870  0.18372  0.40871  1.0000
  Hf  Hf42      1.0  0.55478  0.18507  0.91138  1.0000
  Hf  Hf43      1.0  0.55664  0.68198  0.41665  1.0000
  Hf  Hf44      1.0  0.55877  0.68367  0.91408  1.0000
  Hf  Hf45      1.0  0.80627  0.18090  0.42122  1.0000
  Hf  Hf46      1.0  0.80654  0.18424  0.91955  1.0000
  Hf  Hf47      1.0  0.80526  0.68487  0.41946  1.0000
  Hf  Hf48      1.0  0.80542  0.67651  0.91560  1.0000
  Hf  Hf49      1.0  0.16152  0.38990  0.33023  1.0000
  Hf  Hf50      1.0  0.15820  0.39092  0.83374  1.0000
  Hf  Hf51      1.0  0.16110  0.88506  0.32748  1.0000
  Hf  Hf52      1.0  0.15744  0.88642  0.84251  1.0000
  Hf  Hf53      1.0  0.41005  0.39666  0.33019  1.0000
  Hf  Hf54      1.0  0.40673  0.39033  0.83896  1.0000
  Hf  Hf55      1.0  0.40459  0.89062  0.33765  1.0000
  Hf  Hf56      1.0  0.41005  0.88326  0.83373  1.0000
  Hf  Hf57      1.0  0.65760  0.39274  0.32902  1.0000
  Hf  Hf58      1.0  0.66148  0.39097  0.82870  1.0000
  Hf  Hf59      1.0  0.65906  0.89341  0.33119  1.0000
  Hf  Hf60      1.0  0.65685  0.88737  0.83000  1.0000
  Hf  Hf61      1.0  0.91124  0.39064  0.33044  1.0000
  Hf  Hf62      1.0  0.90943  0.37861  0.83785  1.0000
  Hf  Hf63      1.0  0.90726  0.88682  0.33567  1.0000
  Hf  Hf64      1.0  0.90662  0.88686  0.83536  1.0000
  Hf  Hf65      1.0  0.19564  0.31812  0.08044  1.0000
  Hf  Hf66      1.0  0.19315  0.31261  0.58768  1.0000
  Hf  Hf67      1.0  0.19453  0.81770  0.08299  1.0000
  Hf  Hf68      1.0  0.19263  0.81946  0.58494  1.0000
  Hf  Hf69      1.0  0.44307  0.31553  0.08533  1.0000
  Hf  Hf70      1.0  0.44373  0.32015  0.57923  1.0000
  Hf  Hf71      1.0  0.44691  0.82513  0.07376  1.0000
  Hf  Hf72      1.0  0.44206  0.81404  0.58820  1.0000
  Hf  Hf73      1.0  0.69197  0.31283  0.08570  1.0000
  Hf  Hf74      1.0  0.69414  0.32357  0.58187  1.0000
  Hf  Hf75      1.0  0.69612  0.81736  0.08065  1.0000
  Hf  Hf76      1.0  0.69721  0.82819  0.58098  1.0000
  Hf  Hf77      1.0  0.94427  0.31507  0.08204  1.0000
  Hf  Hf78      1.0  0.94316  0.31562  0.59010  1.0000
  Hf  Hf79      1.0  0.94191  0.81316  0.08626  1.0000
  Hf  Hf80      1.0  0.94350  0.81191  0.58766  1.0000
  Hf  Hf81      1.0  0.09265  0.11309  0.16133  1.0000
  Hf  Hf82      1.0  0.09141  0.10411  0.66978  1.0000
  Hf  Hf83      1.0  0.09030  0.61923  0.16314  1.0000
  Hf  Hf84      1.0  0.09170  0.61338  0.66583  1.0000
  Hf  Hf85      1.0  0.33845  0.10555  0.16915  1.0000
  Hf  Hf86      1.0  0.34261  0.11078  0.66716  1.0000
  Hf  Hf87      1.0  0.34031  0.61167  0.16745  1.0000
  Hf  Hf88      1.0  0.34310  0.61442  0.66467  1.0000
  Hf  Hf89      1.0  0.59054  0.10695  0.16388  1.0000
  Hf  Hf90      1.0  0.59847  0.11369  0.65407  1.0000
  Hf  Hf91      1.0  0.59240  0.61737  0.16430  1.0000
  Hf  Hf92      1.0  0.59097  0.61721  0.65763  1.0000
  Hf  Hf93      1.0  0.84085  0.11155  0.16475  1.0000
  Hf  Hf94      1.0  0.84069  0.11322  0.66453  1.0000
  Hf  Hf95      1.0  0.83960  0.60445  0.16743  1.0000
  Hf  Hf96      1.0  0.83801  0.60637  0.66835  1.0000
  F   F1        1.0  0.07793  0.14170  0.29837  1.0000
  F   F2        1.0  0.08143  0.12605  0.80399  1.0000
  F   F3        1.0  0.08020  0.62009  0.30653  1.0000
  F   F4        1.0  0.07769  0.63209  0.80213  1.0000
  F   F5        1.0  0.32745  0.13990  0.30574  1.0000
  F   F6        1.0  0.33171  0.13686  0.80048  1.0000
  F   F7        1.0  0.32866  0.62866  0.29827  1.0000
  F   F8        1.0  0.33207  0.62564  0.80480  1.0000
  F   F9        1.0  0.57990  0.11260  0.30394  1.0000
  F   F10       1.0  0.57879  0.12749  0.81017  1.0000
  F   F11       1.0  0.57650  0.61519  0.30667  1.0000
  F   F12       1.0  0.58413  0.63465  0.79907  1.0000
  F   F13       1.0  0.83514  0.13158  0.30536  1.0000
  F   F14       1.0  0.82614  0.12315  0.80855  1.0000
  F   F15       1.0  0.82163  0.62732  0.31488  1.0000
  F   F16       1.0  0.82858  0.61486  0.81082  1.0000
  F   F17       1.0  0.17845  0.34737  0.45419  1.0000
  F   F18       1.0  0.18417  0.34082  0.94725  1.0000
  F   F19       1.0  0.18543  0.82788  0.45598  1.0000
  F   F20       1.0  0.18527  0.83664  0.95223  1.0000
  F   F21       1.0  0.44106  0.34830  0.43864  1.0000
  F   F22       1.0  0.43332  0.33927  0.95167  1.0000
  F   F23       1.0  0.42863  0.82780  0.45808  1.0000
  F   F24       1.0  0.43310  0.83837  0.95077  1.0000
  F   F25       1.0  0.68041  0.34483  0.44184  1.0000
  F   F26       1.0  0.68363  0.33626  0.95045  1.0000
  F   F27       1.0  0.68649  0.85293  0.44487  1.0000
  F   F28       1.0  0.68592  0.82790  0.94643  1.0000
  F   F29       1.0  0.92938  0.33536  0.45269  1.0000
  F   F30       1.0  0.94489  0.33987  0.94195  1.0000
  F   F31       1.0  0.93494  0.83691  0.45216  1.0000
  F   F32       1.0  0.92832  0.83166  0.95544  1.0000
  F   F33       1.0  0.17292  0.37332  0.18949  1.0000
  F   F34       1.0  0.17476  0.38366  0.69085  1.0000
  F   F35       1.0  0.16923  0.88572  0.19054  1.0000
  F   F36       1.0  0.16874  0.87364  0.69708  1.0000
  F   F37       1.0  0.42462  0.37462  0.20090  1.0000
  F   F38       1.0  0.41734  0.35708  0.70395  1.0000
  F   F39       1.0  0.41676  0.87167  0.19537  1.0000
  F   F40       1.0  0.42401  0.86273  0.70516  1.0000
  F   F41       1.0  0.66512  0.34872  0.20552  1.0000
  F   F42       1.0  0.67491  0.37162  0.69519  1.0000
  F   F43       1.0  0.66615  0.87344  0.18909  1.0000
  F   F44       1.0  0.67940  0.89685  0.67585  1.0000
  F   F45       1.0  0.91850  0.37243  0.18988  1.0000
  F   F46       1.0  0.92150  0.35727  0.70877  1.0000
  F   F47       1.0  0.91916  0.87366  0.19236  1.0000
  F   F48       1.0  0.91525  0.85616  0.70815  1.0000
  F   F49       1.0  0.06556  0.14865  0.05306  1.0000
  F   F50       1.0  0.07022  0.15285  0.54856  1.0000
  F   F51       1.0  0.06241  0.66376  0.05049  1.0000
  F   F52       1.0  0.06718  0.66192  0.54501  1.0000
  F   F53       1.0  0.31485  0.14810  0.05459  1.0000
  F   F54       1.0  0.32048  0.16772  0.54266  1.0000
  F   F55       1.0  0.31860  0.66794  0.04638  1.0000
  F   F56       1.0  0.31288  0.64989  0.55773  1.0000
  F   F57       1.0  0.55681  0.15118  0.05774  1.0000
  F   F58       1.0  0.56486  0.16003  0.55359  1.0000
  F   F59       1.0  0.56517  0.66347  0.05154  1.0000
  F   F60       1.0  0.56306  0.65765  0.55273  1.0000
  F   F61       1.0  0.81818  0.15755  0.05421  1.0000
  F   F62       1.0  0.80826  0.15588  0.56347  1.0000
  F   F63       1.0  0.81327  0.65499  0.05916  1.0000
  F   F64       1.0  0.81813  0.66060  0.55556  1.0000
  F   F65       1.0  0.20541  0.20716  0.21064  1.0000
  F   F66       1.0  0.19837  0.19923  0.71135  1.0000
  F   F67       1.0  0.19899  0.71354  0.21535  1.0000
  F   F68       1.0  0.20433  0.70104  0.71429  1.0000
  F   F69       1.0  0.44021  0.20733  0.22135  1.0000
  F   F70       1.0  0.45651  0.20867  0.70957  1.0000
  F   F71       1.0  0.45417  0.70735  0.19123  1.0000
  F   F72       1.0  0.45133  0.69593  0.72224  1.0000
  F   F73       1.0  0.70478  0.19968  0.20960  1.0000
  F   F74       1.0  0.70858  0.20692  0.70414  1.0000
  F   F75       1.0  0.71030  0.71333  0.20329  1.0000
  F   F76       1.0  0.69694  0.70252  0.70509  1.0000
  F   F77       1.0  0.95313  0.19424  0.21037  1.0000
  F   F78       1.0  0.95664  0.19603  0.70970  1.0000
  F   F79       1.0  0.95511  0.69539  0.22005  1.0000
  F   F80       1.0  0.96249  0.69373  0.71417  1.0000
  F   F81       1.0  0.15194  0.08355  0.05367  1.0000
  F   F82       1.0  0.15013  0.06709  0.53291  1.0000
  F   F83       1.0  0.14898  0.58743  0.03580  1.0000
  F   F84       1.0  0.15288  0.58446  0.54803  1.0000
  F   F85       1.0  0.40167  0.07940  0.04034  1.0000
  F   F86       1.0  0.40231  0.10065  0.54335  1.0000
  F   F87       1.0  0.40169  0.58565  0.03732  1.0000
  F   F88       1.0  0.39501  0.60390  0.53098  1.0000
  F   F89       1.0  0.64930  0.09128  0.02957  1.0000
  F   F90       1.0  0.65579  0.09265  0.52986  1.0000
  F   F91       1.0  0.65235  0.60989  0.03415  1.0000
  F   F92       1.0  0.64269  0.57624  0.54635  1.0000
  F   F93       1.0  0.89967  0.06914  0.04815  1.0000
  F   F94       1.0  0.90046  0.09893  0.53830  1.0000
  F   F95       1.0  0.89725  0.58690  0.04468  1.0000
  F   F96       1.0  0.89629  0.57889  0.55018  1.0000
  F   F97       1.0  0.15008  0.20114  0.11915  1.0000
  F   F98       1.0  0.15057  0.17909  0.61879  1.0000
  F   F99       1.0  0.15013  0.69246  0.12911  1.0000
  F   F100      1.0  0.14889  0.69823  0.62898  1.0000
  F   F101      1.0  0.39866  0.19517  0.12571  1.0000
  F   F102      1.0  0.40364  0.20797  0.62429  1.0000
  F   F103      1.0  0.39725  0.70091  0.11514  1.0000
  F   F104      1.0  0.40914  0.69121  0.63045  1.0000
  F   F105      1.0  0.65646  0.18652  0.12195  1.0000
  F   F106      1.0  0.64906  0.19925  0.62725  1.0000
  F   F107      1.0  0.64833  0.70344  0.14010  1.0000
  F   F108      1.0  0.64953  0.69778  0.59781  1.0000
  F   F109      1.0  0.90496  0.19975  0.11010  1.0000
  F   F110      1.0  0.89632  0.19951  0.64382  1.0000
  F   F111      1.0  0.89611  0.69225  0.14176  1.0000
  F   F112      1.0  0.89967  0.69218  0.63387  1.0000
  F   F113      1.0  0.10278  0.31938  0.36946  1.0000
  F   F114      1.0  0.09171  0.30638  0.88024  1.0000
  F   F115      1.0  0.10468  0.79815  0.36729  1.0000
  F   F116      1.0  0.09734  0.80003  0.87121  1.0000
  F   F117      1.0  0.34981  0.29181  0.35611  1.0000
  F   F118      1.0  0.34549  0.32259  0.87525  1.0000
  F   F119      1.0  0.34519  0.81036  0.38915  1.0000
  F   F120      1.0  0.34528  0.80068  0.87211  1.0000
  F   F121      1.0  0.59569  0.30343  0.37069  1.0000
  F   F122      1.0  0.59811  0.30559  0.84588  1.0000
  F   F123      1.0  0.59892  0.80323  0.37728  1.0000
  F   F124      1.0  0.60822  0.79115  0.85747  1.0000
  F   F125      1.0  0.84920  0.29688  0.39058  1.0000
  F   F126      1.0  0.84705  0.31283  0.88397  1.0000
  F   F127      1.0  0.84407  0.80551  0.37568  1.0000
  F   F128      1.0  0.84517  0.80325  0.88419  1.0000
  F   F129      1.0  0.06663  0.24840  0.13541  1.0000
  F   F130      1.0  0.06428  0.25260  0.63853  1.0000
  F   F131      1.0  0.05917  0.74505  0.15589  1.0000
  F   F132      1.0  0.05774  0.74811  0.65132  1.0000
  F   F133      1.0  0.31068  0.24899  0.13720  1.0000
  F   F134      1.0  0.31280  0.25770  0.64054  1.0000
  F   F135      1.0  0.31260  0.75442  0.15013  1.0000
  F   F136      1.0  0.32789  0.75299  0.63044  1.0000
  F   F137      1.0  0.56994  0.24675  0.13707  1.0000
  F   F138      1.0  0.57293  0.25607  0.63215  1.0000
  F   F139      1.0  0.56647  0.75476  0.13372  1.0000
  F   F140      1.0  0.55728  0.74667  0.65242  1.0000
  F   F141      1.0  0.80795  0.24156  0.15657  1.0000
  F   F142      1.0  0.81105  0.25179  0.64976  1.0000
  F   F143      1.0  0.81240  0.75116  0.14022  1.0000
  F   F144      1.0  0.81209  0.74403  0.66109  1.0000
  F   F145      1.0  0.11776  0.37285  0.11596  1.0000
  F   F146      1.0  0.12437  0.34746  0.62984  1.0000
  F   F147      1.0  0.12385  0.86239  0.11240  1.0000
  F   F148      1.0  0.12603  0.87506  0.60082  1.0000
  F   F149      1.0  0.37303  0.35823  0.11998  1.0000
  F   F150      1.0  0.37520  0.39671  0.58861  1.0000
  F   F151      1.0  0.37381  0.87434  0.10156  1.0000
  F   F152      1.0  0.37301  0.88422  0.62424  1.0000
  F   F153      1.0  0.62436  0.36643  0.11602  1.0000
  F   F154      1.0  0.62499  0.36568  0.60922  1.0000
  F   F155      1.0  0.62156  0.89341  0.09079  1.0000
  F   F156      1.0  0.62338  0.86098  0.62268  1.0000
  F   F157      1.0  0.87362  0.36233  0.11079  1.0000
  F   F158      1.0  0.87544  0.37729  0.60026  1.0000
  F   F159      1.0  0.87355  0.86896  0.10588  1.0000
  F   F160      1.0  0.87302  0.86277  0.61892  1.0000
  F   F161      1.0  0.18848  0.25802  0.35611  1.0000
  F   F162      1.0  0.18346  0.23970  0.87004  1.0000
  F   F163      1.0  0.18843  0.74626  0.35947  1.0000
  F   F164      1.0  0.18211  0.74297  0.86913  1.0000
  F   F165      1.0  0.42935  0.24878  0.37250  1.0000
  F   F166      1.0  0.42633  0.24484  0.87177  1.0000
  F   F167      1.0  0.43000  0.74775  0.35429  1.0000
  F   F168      1.0  0.43831  0.74688  0.86254  1.0000
  F   F169      1.0  0.69073  0.25625  0.34568  1.0000
  F   F170      1.0  0.67630  0.25271  0.85715  1.0000
  F   F171      1.0  0.68376  0.75452  0.35963  1.0000
  F   F172      1.0  0.69123  0.75489  0.83510  1.0000
  F   F173      1.0  0.94470  0.25491  0.33725  1.0000
  F   F174      1.0  0.93183  0.24450  0.87985  1.0000
  F   F175      1.0  0.92997  0.74550  0.36811  1.0000
  F   F176      1.0  0.93713  0.75132  0.84978  1.0000
  F   F177      1.0  0.13111  0.15655  0.35826  1.0000
  F   F178      1.0  0.12579  0.11831  0.91371  1.0000
  F   F179      1.0  0.12764  0.62692  0.39501  1.0000
  F   F180      1.0  0.12548  0.62302  0.89194  1.0000
  F   F181      1.0  0.37856  0.10576  0.40425  1.0000
  F   F182      1.0  0.37309  0.12698  0.89378  1.0000
  F   F183      1.0  0.37739  0.63675  0.37758  1.0000
  F   F184      1.0  0.37271  0.61658  0.90295  1.0000
  F   F185      1.0  0.62879  0.14545  0.37757  1.0000
  F   F186      1.0  0.62617  0.13206  0.88736  1.0000
  F   F187      1.0  0.62890  0.63869  0.37882  1.0000
  F   F188      1.0  0.63005  0.62441  0.90002  1.0000
  F   F189      1.0  0.87765  0.13155  0.40112  1.0000
  F   F190      1.0  0.87866  0.14105  0.88513  1.0000
  F   F191      1.0  0.87221  0.62651  0.39595  1.0000
  F   F192      1.0  0.87516  0.64061  0.88534  1.0000
  F   F193      1.0  0.00643  0.36217  0.05925  1.0000
  F   F194      1.0  0.00652  0.35927  0.57891  1.0000
  F   F195      1.0  0.00152  0.84962  0.09383  1.0000
  F   F196      1.0  0.00535  0.86065  0.57711  1.0000
  F   F197      1.0  0.25760  0.36907  0.06661  1.0000
  F   F198      1.0  0.25753  0.36169  0.57908  1.0000
  F   F199      1.0  0.25851  0.85279  0.08376  1.0000
  F   F200      1.0  0.26531  0.85911  0.58582  1.0000
  F   F201      1.0  0.51049  0.34982  0.08923  1.0000
  F   F202      1.0  0.50794  0.34784  0.58427  1.0000
  F   F203      1.0  0.50503  0.86757  0.07617  1.0000
  F   F204      1.0  0.50698  0.87663  0.56946  1.0000
  F   F205      1.0  0.75906  0.36679  0.06732  1.0000
  F   F206      1.0  0.76059  0.38153  0.55610  1.0000
  F   F207      1.0  0.75944  0.85626  0.07838  1.0000
  F   F208      1.0  0.76351  0.85122  0.57577  1.0000
  F   F209      1.0  0.06496  0.49261  0.16611  1.0000
  F   F210      1.0  0.07069  0.47904  0.66857  1.0000
  F   F211      1.0  0.07153  0.97957  0.17008  1.0000
  F   F212      1.0  0.06463  0.98504  0.67803  1.0000
  F   F213      1.0  0.31828  0.48843  0.17814  1.0000
  F   F214      1.0  0.31765  0.48760  0.68036  1.0000
  F   F215      1.0  0.32054  0.98403  0.17090  1.0000
  F   F216      1.0  0.31218  0.99022  0.69257  1.0000
  F   F217      1.0  0.57693  0.48702  0.15674  1.0000
  F   F218      1.0  0.57031  0.48332  0.66572  1.0000
  F   F219      1.0  0.56304  0.97758  0.19068  1.0000
  F   F220      1.0  0.56689  0.98348  0.67293  1.0000
  F   F221      1.0  0.82263  0.46945  0.17633  1.0000
  F   F222      1.0  0.81580  0.48735  0.67485  1.0000
  F   F223      1.0  0.81005  0.98508  0.19075  1.0000
  F   F224      1.0  0.81808  0.98119  0.68614  1.0000
  F   F225      1.0  0.23684  0.13044  0.43400  1.0000
  F   F226      1.0  0.24166  0.14398  0.94048  1.0000
  F   F227      1.0  0.23879  0.63825  0.43789  1.0000
  F   F228      1.0  0.23804  0.62943  0.93824  1.0000
  F   F229      1.0  0.49625  0.13913  0.42016  1.0000
  F   F230      1.0  0.48984  0.13823  0.93142  1.0000
  F   F231      1.0  0.49496  0.63819  0.42419  1.0000
  F   F232      1.0  0.49510  0.63783  0.92654  1.0000
  F   F233      1.0  0.74670  0.13329  0.42128  1.0000
  F   F234      1.0  0.74306  0.14489  0.91241  1.0000
  F   F235      1.0  0.73755  0.63575  0.43458  1.0000
  F   F236      1.0  0.74577  0.63515  0.91483  1.0000
  F   F237      1.0  0.99511  0.13373  0.42591  1.0000
  F   F238      1.0  0.98807  0.13070  0.94138  1.0000
  F   F239      1.0  0.99204  0.62809  0.42827  1.0000
  F   F240      1.0  0.98934  0.63961  0.92844  1.0000
  F   F241      1.0  0.17482  0.01548  0.34379  1.0000
  F   F242      1.0  0.17753  0.01345  0.83580  1.0000
  F   F243      1.0  0.18201  0.52502  0.32039  1.0000
  F   F244      1.0  0.18094  0.51594  0.81470  1.0000
  F   F245      1.0  0.43552  0.00694  0.32213  1.0000
  F   F246      1.0  0.42955  0.01496  0.82166  1.0000
  F   F247      1.0  0.42970  0.51788  0.33157  1.0000
  F   F248      1.0  0.43344  0.51651  0.82303  1.0000
  F   F249      1.0  0.67705  0.01410  0.32738  1.0000
  F   F250      1.0  0.67532  0.00682  0.83439  1.0000
  F   F251      1.0  0.68171  0.51929  0.32750  1.0000
  F   F252      1.0  0.68148  0.51477  0.82335  1.0000
  F   F253      1.0  0.92612  0.01100  0.33272  1.0000
  F   F254      1.0  0.92687  0.01428  0.83436  1.0000
  F   F255      1.0  0.93310  0.51797  0.31743  1.0000
  F   F256      1.0  0.92763  0.50756  0.83271  1.0000
  F   F257      1.0  0.99842  0.23068  0.01924  1.0000
  F   F258      1.0  0.00451  0.24874  0.49701  1.0000
  F   F259      1.0  0.99943  0.76833  0.98413  1.0000
  F   F260      1.0  0.99976  0.73147  0.51427  1.0000
  F   F261      1.0  0.25286  0.24613  0.00501  1.0000
  F   F262      1.0  0.24480  0.24156  0.50302  1.0000
  F   F263      1.0  0.24854  0.74219  0.01767  1.0000
  F   F264      1.0  0.25140  0.76308  0.50159  1.0000
  F   F265      1.0  0.49478  0.24829  0.00854  1.0000
  F   F266      1.0  0.50134  0.25161  0.50215  1.0000
  F   F267      1.0  0.50899  0.77693  0.97654  1.0000
  F   F268      1.0  0.49940  0.75895  0.50152  1.0000
  F   F269      1.0  0.75416  0.24891  0.00976  1.0000
  F   F270      1.0  0.74840  0.25797  0.49311  1.0000
  F   F271      1.0  0.74752  0.72237  0.01419  1.0000
  F   F272      1.0  0.75161  0.75660  0.49551  1.0000
  F   F273      1.0  0.11846  0.00338  0.26537  1.0000
  F   F274      1.0  0.12007  0.99209  0.76008  1.0000
  F   F275      1.0  0.13202  0.50633  0.23595  1.0000
  F   F276      1.0  0.11623  0.49543  0.75900  1.0000
  F   F277      1.0  0.36677  0.99428  0.27520  1.0000
  F   F278      1.0  0.37031  0.99946  0.75572  1.0000
  F   F279      1.0  0.37132  0.49442  0.25960  1.0000
  F   F280      1.0  0.38163  0.50899  0.74294  1.0000
  F   F281      1.0  0.62746  0.00049  0.23924  1.0000
  F   F282      1.0  0.62688  0.00728  0.74023  1.0000
  F   F283      1.0  0.63419  0.50317  0.23569  1.0000
  F   F284      1.0  0.62168  0.48901  0.74989  1.0000
  F   F285      1.0  0.87241  0.99101  0.25364  1.0000
  F   F286      1.0  0.88340  0.00906  0.73437  1.0000
  F   F287      1.0  0.87379  0.49702  0.25736  1.0000
  F   F288      1.0  0.87188  0.48564  0.75128  1.0000
  F   F289      1.0  0.03729  0.02152  0.03328  1.0000
  F   F290      1.0  0.04186  0.02543  0.52246  1.0000
  F   F291      1.0  0.03343  0.53211  0.03086  1.0000
  F   F292      1.0  0.04231  0.53432  0.52490  1.0000
  F   F293      1.0  0.28936  0.02909  0.02788  1.0000
  F   F294      1.0  0.28797  0.03209  0.53324  1.0000
  F   F295      1.0  0.28831  0.54243  0.03346  1.0000
  F   F296      1.0  0.29274  0.52731  0.51173  1.0000
  F   F297      1.0  0.55405  0.03029  0.01163  1.0000
  F   F298      1.0  0.54708  0.03628  0.51712  1.0000
  F   F299      1.0  0.55200  0.53459  0.01618  1.0000
  F   F300      1.0  0.54444  0.53821  0.51092  1.0000
  F   F301      1.0  0.79159  0.04368  0.02050  1.0000
  F   F302      1.0  0.79541  0.02281  0.52302  1.0000
  F   F303      1.0  0.79475  0.53025  0.02223  1.0000
  F   F304      1.0  0.78394  0.54493  0.53966  1.0000
  F   F305      1.0  0.23528  0.42427  0.21411  1.0000
  F   F306      1.0  0.23513  0.42006  0.72918  1.0000
  F   F307      1.0  0.23422  0.92317  0.23013  1.0000
  F   F308      1.0  0.23040  0.91855  0.73051  1.0000
  F   F309      1.0  0.48737  0.43031  0.22297  1.0000
  F   F310      1.0  0.48264  0.41337  0.71721  1.0000
  F   F311      1.0  0.48567  0.91646  0.23455  1.0000
  F   F312      1.0  0.48555  0.90766  0.72987  1.0000
  F   F313      1.0  0.72916  0.42117  0.22107  1.0000
  F   F314      1.0  0.73743  0.40267  0.72906  1.0000
  F   F315      1.0  0.73130  0.91221  0.22414  1.0000
  F   F316      1.0  0.73656  0.91415  0.73198  1.0000
  F   F317      1.0  0.98021  0.42447  0.22096  1.0000
  F   F318      1.0  0.98751  0.41094  0.72362  1.0000
  F   F319      1.0  0.98060  0.90581  0.23770  1.0000
  F   F320      1.0  0.98075  0.91731  0.72468  1.0000
  F   F321      1.0  0.20879  0.46675  0.47089  1.0000
  F   F322      1.0  0.21260  0.46622  0.96044  1.0000
  F   F323      1.0  0.21589  0.95822  0.48334  1.0000
  F   F324      1.0  0.20678  0.96814  0.99020  1.0000
  F   F325      1.0  0.45966  0.47549  0.47554  1.0000
  F   F326      1.0  0.46113  0.46061  0.97349  1.0000
  F   F327      1.0  0.45099  0.96774  0.48080  1.0000
  F   F328      1.0  0.46679  0.96523  0.95489  1.0000
  F   F329      1.0  0.70083  0.47322  0.48204  1.0000
  F   F330      1.0  0.71149  0.46283  0.97168  1.0000
  F   F331      1.0  0.70712  0.97277  0.48114  1.0000
  F   F332      1.0  0.70794  0.96680  0.98237  1.0000
  F   F333      1.0  0.95233  0.46592  0.47800  1.0000
  F   F334      1.0  0.95617  0.47522  0.97659  1.0000
  F   F335      1.0  0.95522  0.97531  0.47672  1.0000
  F   F336      1.0  0.96143  0.96090  0.98036  1.0000
  F   F337      1.0  0.01727  0.08556  0.26762  1.0000
  F   F338      1.0  0.01781  0.10246  0.76609  1.0000
  F   F339      1.0  0.01847  0.57392  0.27521  1.0000
  F   F340      1.0  0.01733  0.56446  0.78268  1.0000
  F   F341      1.0  0.26526  0.09301  0.27484  1.0000
  F   F342      1.0  0.25963  0.10043  0.77302  1.0000
  F   F343      1.0  0.26348  0.59957  0.26354  1.0000
  F   F344      1.0  0.26766  0.59818  0.76836  1.0000
  F   F345      1.0  0.51358  0.10317  0.26213  1.0000
  F   F346      1.0  0.51596  0.09775  0.77010  1.0000
  F   F347      1.0  0.51385  0.59685  0.26555  1.0000
  F   F348      1.0  0.51379  0.58300  0.78206  1.0000
  F   F349      1.0  0.76575  0.08627  0.27782  1.0000
  F   F350      1.0  0.76271  0.07452  0.77338  1.0000
  F   F351      1.0  0.76328  0.57752  0.27746  1.0000
  F   F352      1.0  0.76211  0.59673  0.75888  1.0000
  F   F353      1.0  0.10344  0.41844  0.46339  1.0000
  F   F354      1.0  0.10151  0.40303  0.96862  1.0000
  F   F355      1.0  0.09613  0.89560  0.47169  1.0000
  F   F356      1.0  0.09847  0.89133  0.97307  1.0000
  F   F357      1.0  0.35188  0.39311  0.45657  1.0000
  F   F358      1.0  0.35055  0.41842  0.96474  1.0000
  F   F359      1.0  0.35355  0.91406  0.47739  1.0000
  F   F360      1.0  0.35238  0.91191  0.95206  1.0000
  F   F361      1.0  0.59785  0.41122  0.46361  1.0000
  F   F362      1.0  0.60202  0.39842  0.95918  1.0000
  F   F363      1.0  0.59873  0.89733  0.47059  1.0000
  F   F364      1.0  0.60038  0.89390  0.95537  1.0000
  F   F365      1.0  0.85190  0.41028  0.45958  1.0000
  F   F366      1.0  0.85055  0.40156  0.97244  1.0000
  F   F367      1.0  0.85247  0.91352  0.46026  1.0000
  F   F368      1.0  0.84746  0.90624  0.96377  1.0000
  F   F369      1.0  0.04436  0.30424  0.28405  1.0000
  F   F370      1.0  0.04520  0.28504  0.79847  1.0000
  F   F371      1.0  0.04284  0.79904  0.29631  1.0000
  F   F372      1.0  0.04695  0.79771  0.78342  1.0000
  F   F373      1.0  0.28893  0.29841  0.28320  1.0000
  F   F374      1.0  0.29929  0.30836  0.77901  1.0000
  F   F375      1.0  0.30153  0.80170  0.28840  1.0000
  F   F376      1.0  0.28634  0.80522  0.79153  1.0000
  F   F377      1.0  0.54467  0.29387  0.28245  1.0000
  F   F378      1.0  0.54036  0.29296  0.78697  1.0000
  F   F379      1.0  0.54940  0.78927  0.28431  1.0000
  F   F380      1.0  0.54517  0.79757  0.78053  1.0000
  F   F381      1.0  0.79834  0.30211  0.28972  1.0000
  F   F382      1.0  0.79882  0.30420  0.78290  1.0000
  F   F383      1.0  0.79207  0.79590  0.28616  1.0000
  F   F384      1.0  0.79547  0.79770  0.79883  1.0000
