data_image0
_chemical_formula_structural       Hf96F384
_chemical_formula_sum              "Hf96 F384"
_cell_length_a       31.0307
_cell_length_b       15.5143
_cell_length_c       15.5077
_cell_angle_alpha    63.342
_cell_angle_beta     63.342
_cell_angle_gamma    80.1625

_space_group_name_H-M_alt    "P 1"
_space_group_IT_number       1

loop_
  _space_group_symop_operation_xyz
  'x, y, z'

loop_
  _atom_site_type_symbol
  _atom_site_label
  _atom_site_symmetry_multiplicity
  _atom_site_fract_x
  _atom_site_fract_y
  _atom_site_fract_z
  _atom_site_occupancy
  Hf  Hf1       1.0  0.19486  0.11341  0.37567  1.0000
  Hf  Hf2       1.0  0.19689  0.10923  0.87476  1.0000
  Hf  Hf3       1.0  0.19718  0.61376  0.37888  1.0000
  Hf  Hf4       1.0  0.19660  0.61479  0.86745  1.0000
  Hf  Hf5       1.0  0.44399  0.10848  0.37732  1.0000
  Hf  Hf6       1.0  0.44809  0.11324  0.86675  1.0000
  Hf  Hf7       1.0  0.44615  0.60093  0.37822  1.0000
  Hf  Hf8       1.0  0.44380  0.60540  0.88437  1.0000
  Hf  Hf9       1.0  0.69604  0.09716  0.37841  1.0000
  Hf  Hf10      1.0  0.69889  0.10101  0.87606  1.0000
  Hf  Hf11      1.0  0.69518  0.59880  0.38388  1.0000
  Hf  Hf12      1.0  0.69529  0.59375  0.88561  1.0000
  Hf  Hf13      1.0  0.94339  0.10459  0.38345  1.0000
  Hf  Hf14      1.0  0.94888  0.11014  0.86637  1.0000
  Hf  Hf15      1.0  0.94372  0.61217  0.37417  1.0000
  Hf  Hf16      1.0  0.95213  0.61676  0.86479  1.0000
  Hf  Hf17      1.0  0.05074  0.39669  0.12109  1.0000
  Hf  Hf18      1.0  0.05374  0.40243  0.61683  1.0000
  Hf  Hf19      1.0  0.05571  0.88921  0.12381  1.0000
  Hf  Hf20      1.0  0.05199  0.89393  0.62030  1.0000
  Hf  Hf21      1.0  0.30188  0.38281  0.12990  1.0000
  Hf  Hf22      1.0  0.30363  0.38741  0.61484  1.0000
  Hf  Hf23      1.0  0.30408  0.89205  0.12718  1.0000
  Hf  Hf24      1.0  0.30285  0.88451  0.63026  1.0000
  Hf  Hf25      1.0  0.55488  0.38829  0.12955  1.0000
  Hf  Hf26      1.0  0.55222  0.38682  0.63277  1.0000
  Hf  Hf27      1.0  0.55478  0.89419  0.12606  1.0000
  Hf  Hf28      1.0  0.55493  0.89031  0.62653  1.0000
  Hf  Hf29      1.0  0.79533  0.39605  0.13208  1.0000
  Hf  Hf30      1.0  0.80612  0.39525  0.62312  1.0000
  Hf  Hf31      1.0  0.80277  0.89098  0.12403  1.0000
  Hf  Hf32      1.0  0.80519  0.89418  0.62769  1.0000
  Hf  Hf33      1.0  0.05675  0.19210  0.41017  1.0000
  Hf  Hf34      1.0  0.05547  0.18502  0.91542  1.0000
  Hf  Hf35      1.0  0.05919  0.68449  0.40342  1.0000
  Hf  Hf36      1.0  0.05920  0.69815  0.90599  1.0000
  Hf  Hf37      1.0  0.30503  0.17572  0.41354  1.0000
  Hf  Hf38      1.0  0.30686  0.18845  0.90984  1.0000
  Hf  Hf39      1.0  0.30613  0.68281  0.42058  1.0000
  Hf  Hf40      1.0  0.30184  0.67785  0.92696  1.0000
  Hf  Hf41      1.0  0.55529  0.17629  0.41968  1.0000
  Hf  Hf42      1.0  0.55578  0.17312  0.92351  1.0000
  Hf  Hf43      1.0  0.55397  0.68282  0.42120  1.0000
  Hf  Hf44      1.0  0.55837  0.68347  0.91833  1.0000
  Hf  Hf45      1.0  0.80512  0.18721  0.41151  1.0000
  Hf  Hf46      1.0  0.80837  0.18574  0.91534  1.0000
  Hf  Hf47      1.0  0.80489  0.68088  0.41574  1.0000
  Hf  Hf48      1.0  0.80953  0.67999  0.91748  1.0000
  Hf  Hf49      1.0  0.16311  0.39820  0.32623  1.0000
  Hf  Hf50      1.0  0.15743  0.39286  0.83219  1.0000
  Hf  Hf51      1.0  0.15775  0.89864  0.32818  1.0000
  Hf  Hf52      1.0  0.15725  0.89099  0.83519  1.0000
  Hf  Hf53      1.0  0.41020  0.38776  0.32793  1.0000
  Hf  Hf54      1.0  0.40926  0.38586  0.84415  1.0000
  Hf  Hf55      1.0  0.40881  0.88738  0.33944  1.0000
  Hf  Hf56      1.0  0.40575  0.88831  0.84403  1.0000
  Hf  Hf57      1.0  0.65541  0.38409  0.34370  1.0000
  Hf  Hf58      1.0  0.65966  0.37888  0.83720  1.0000
  Hf  Hf59      1.0  0.65930  0.88301  0.33132  1.0000
  Hf  Hf60      1.0  0.66379  0.88712  0.82922  1.0000
  Hf  Hf61      1.0  0.90678  0.38542  0.33089  1.0000
  Hf  Hf62      1.0  0.90721  0.38963  0.83078  1.0000
  Hf  Hf63      1.0  0.90848  0.88911  0.33052  1.0000
  Hf  Hf64      1.0  0.90815  0.89262  0.82743  1.0000
  Hf  Hf65      1.0  0.19331  0.32190  0.07720  1.0000
  Hf  Hf66      1.0  0.19316  0.31873  0.58143  1.0000
  Hf  Hf67      1.0  0.19377  0.81992  0.08810  1.0000
  Hf  Hf68      1.0  0.19184  0.82385  0.57887  1.0000
  Hf  Hf69      1.0  0.44423  0.31234  0.08234  1.0000
  Hf  Hf70      1.0  0.44453  0.31915  0.58264  1.0000
  Hf  Hf71      1.0  0.44450  0.81856  0.08515  1.0000
  Hf  Hf72      1.0  0.44614  0.81611  0.58991  1.0000
  Hf  Hf73      1.0  0.69771  0.31481  0.08160  1.0000
  Hf  Hf74      1.0  0.69702  0.31121  0.58689  1.0000
  Hf  Hf75      1.0  0.69196  0.80845  0.09003  1.0000
  Hf  Hf76      1.0  0.69625  0.81141  0.58486  1.0000
  Hf  Hf77      1.0  0.94148  0.32222  0.08331  1.0000
  Hf  Hf78      1.0  0.94264  0.31598  0.58468  1.0000
  Hf  Hf79      1.0  0.94676  0.81417  0.08008  1.0000
  Hf  Hf80      1.0  0.94552  0.81833  0.57281  1.0000
  Hf  Hf81      1.0  0.08742  0.11165  0.17075  1.0000
  Hf  Hf82      1.0  0.09039  0.11769  0.65596  1.0000
  Hf  Hf83      1.0  0.08555  0.60577  0.16936  1.0000
  Hf  Hf84      1.0  0.09224  0.61749  0.65838  1.0000
  Hf  Hf85      1.0  0.34245  0.10932  0.16381  1.0000
  Hf  Hf86      1.0  0.33930  0.10580  0.67163  1.0000
  Hf  Hf87      1.0  0.34055  0.61233  0.16552  1.0000
  Hf  Hf88      1.0  0.34396  0.60623  0.67093  1.0000
  Hf  Hf89      1.0  0.59822  0.11147  0.15754  1.0000
  Hf  Hf90      1.0  0.59563  0.11648  0.65998  1.0000
  Hf  Hf91      1.0  0.59022  0.61504  0.16734  1.0000
  Hf  Hf92      1.0  0.58726  0.61300  0.67804  1.0000
  Hf  Hf93      1.0  0.84490  0.10834  0.16426  1.0000
  Hf  Hf94      1.0  0.84108  0.12030  0.66745  1.0000
  Hf  Hf95      1.0  0.83987  0.60848  0.17021  1.0000
  Hf  Hf96      1.0  0.83893  0.61565  0.66686  1.0000
  F   F1        1.0  0.07894  0.12583  0.30783  1.0000
  F   F2        1.0  0.07429  0.11228  0.81655  1.0000
  F   F3        1.0  0.07505  0.61831  0.30197  1.0000
  F   F4        1.0  0.08552  0.64476  0.79110  1.0000
  F   F5        1.0  0.33192  0.12407  0.30237  1.0000
  F   F6        1.0  0.32611  0.11878  0.81284  1.0000
  F   F7        1.0  0.33020  0.63298  0.29298  1.0000
  F   F8        1.0  0.32847  0.62791  0.81214  1.0000
  F   F9        1.0  0.57438  0.11024  0.31566  1.0000
  F   F10       1.0  0.58132  0.13032  0.79984  1.0000
  F   F11       1.0  0.58644  0.65095  0.29729  1.0000
  F   F12       1.0  0.57697  0.62715  0.81037  1.0000
  F   F13       1.0  0.83345  0.13233  0.30434  1.0000
  F   F14       1.0  0.83032  0.12445  0.81434  1.0000
  F   F15       1.0  0.82559  0.62290  0.30693  1.0000
  F   F16       1.0  0.82663  0.62482  0.80556  1.0000
  F   F17       1.0  0.18168  0.33781  0.44859  1.0000
  F   F18       1.0  0.19004  0.35996  0.93947  1.0000
  F   F19       1.0  0.19384  0.86241  0.42691  1.0000
  F   F20       1.0  0.18924  0.84224  0.94102  1.0000
  F   F21       1.0  0.44039  0.34844  0.44037  1.0000
  F   F22       1.0  0.44407  0.33539  0.93866  1.0000
  F   F23       1.0  0.43682  0.84538  0.44530  1.0000
  F   F24       1.0  0.43090  0.83209  0.95288  1.0000
  F   F25       1.0  0.68189  0.33730  0.45133  1.0000
  F   F26       1.0  0.69123  0.33925  0.94179  1.0000
  F   F27       1.0  0.68364  0.83712  0.45228  1.0000
  F   F28       1.0  0.68615  0.83545  0.94778  1.0000
  F   F29       1.0  0.93061  0.34111  0.44404  1.0000
  F   F30       1.0  0.93686  0.35083  0.94735  1.0000
  F   F31       1.0  0.93735  0.83475  0.43964  1.0000
  F   F32       1.0  0.93619  0.84519  0.93565  1.0000
  F   F33       1.0  0.17515  0.38335  0.18035  1.0000
  F   F34       1.0  0.17661  0.36129  0.69498  1.0000
  F   F35       1.0  0.17275  0.88090  0.19568  1.0000
  F   F36       1.0  0.15919  0.86508  0.70782  1.0000
  F   F37       1.0  0.42381  0.37044  0.19275  1.0000
  F   F38       1.0  0.41546  0.35877  0.70546  1.0000
  F   F39       1.0  0.42217  0.86412  0.20321  1.0000
  F   F40       1.0  0.42509  0.88684  0.69680  1.0000
  F   F41       1.0  0.67392  0.37192  0.19543  1.0000
  F   F42       1.0  0.66848  0.36683  0.69266  1.0000
  F   F43       1.0  0.66791  0.86510  0.19719  1.0000
  F   F44       1.0  0.67366  0.87911  0.69274  1.0000
  F   F45       1.0  0.93055  0.38212  0.18321  1.0000
  F   F46       1.0  0.91738  0.36762  0.69448  1.0000
  F   F47       1.0  0.92114  0.87636  0.19018  1.0000
  F   F48       1.0  0.91699  0.86681  0.69621  1.0000
  F   F49       1.0  0.06102  0.16269  0.05386  1.0000
  F   F50       1.0  0.06170  0.16289  0.54636  1.0000
  F   F51       1.0  0.06224  0.65871  0.05363  1.0000
  F   F52       1.0  0.06874  0.66708  0.54323  1.0000
  F   F53       1.0  0.32039  0.16150  0.04163  1.0000
  F   F54       1.0  0.31341  0.14884  0.55337  1.0000
  F   F55       1.0  0.30941  0.65185  0.06149  1.0000
  F   F56       1.0  0.31861  0.65658  0.54680  1.0000
  F   F57       1.0  0.56630  0.15743  0.05793  1.0000
  F   F58       1.0  0.57244  0.16366  0.54202  1.0000
  F   F59       1.0  0.56513  0.65293  0.06156  1.0000
  F   F60       1.0  0.55471  0.65070  0.56631  1.0000
  F   F61       1.0  0.82416  0.17202  0.03859  1.0000
  F   F62       1.0  0.81882  0.16276  0.54837  1.0000
  F   F63       1.0  0.81521  0.65937  0.05963  1.0000
  F   F64       1.0  0.80717  0.65725  0.56282  1.0000
  F   F65       1.0  0.20248  0.20885  0.21046  1.0000
  F   F66       1.0  0.20513  0.19949  0.72125  1.0000
  F   F67       1.0  0.21523  0.71811  0.21556  1.0000
  F   F68       1.0  0.20180  0.70036  0.70261  1.0000
  F   F69       1.0  0.44049  0.19704  0.20503  1.0000
  F   F70       1.0  0.45785  0.20618  0.71044  1.0000
  F   F71       1.0  0.46422  0.68452  0.22885  1.0000
  F   F72       1.0  0.45374  0.70717  0.72711  1.0000
  F   F73       1.0  0.70806  0.20194  0.21574  1.0000
  F   F74       1.0  0.70468  0.19754  0.71856  1.0000
  F   F75       1.0  0.69616  0.68698  0.22744  1.0000
  F   F76       1.0  0.71087  0.70363  0.69685  1.0000
  F   F77       1.0  0.95100  0.19669  0.20823  1.0000
  F   F78       1.0  0.95878  0.21214  0.70526  1.0000
  F   F79       1.0  0.94899  0.70864  0.21140  1.0000
  F   F80       1.0  0.95837  0.69934  0.70270  1.0000
  F   F81       1.0  0.14905  0.09083  0.02776  1.0000
  F   F82       1.0  0.14875  0.12163  0.52932  1.0000
  F   F83       1.0  0.14400  0.60661  0.04327  1.0000
  F   F84       1.0  0.14719  0.58253  0.53624  1.0000
  F   F85       1.0  0.39884  0.08501  0.02225  1.0000
  F   F86       1.0  0.40203  0.09398  0.53622  1.0000
  F   F87       1.0  0.40167  0.60868  0.04079  1.0000
  F   F88       1.0  0.40053  0.58896  0.54476  1.0000
  F   F89       1.0  0.65062  0.08588  0.04291  1.0000
  F   F90       1.0  0.65211  0.08663  0.53830  1.0000
  F   F91       1.0  0.64741  0.57489  0.03824  1.0000
  F   F92       1.0  0.64888  0.60863  0.54936  1.0000
  F   F93       1.0  0.89898  0.08933  0.04254  1.0000
  F   F94       1.0  0.90277  0.09488  0.55189  1.0000
  F   F95       1.0  0.89758  0.59247  0.03792  1.0000
  F   F96       1.0  0.89476  0.59867  0.53867  1.0000
  F   F97       1.0  0.14840  0.20498  0.11833  1.0000
  F   F98       1.0  0.15300  0.19862  0.63639  1.0000
  F   F99       1.0  0.15227  0.70800  0.13746  1.0000
  F   F100      1.0  0.15580  0.70598  0.60367  1.0000
  F   F101      1.0  0.39961  0.19345  0.10207  1.0000
  F   F102      1.0  0.39925  0.20457  0.61947  1.0000
  F   F103      1.0  0.40498  0.70101  0.14506  1.0000
  F   F104      1.0  0.40992  0.69529  0.62929  1.0000
  F   F105      1.0  0.64601  0.20865  0.13895  1.0000
  F   F106      1.0  0.66039  0.18510  0.62566  1.0000
  F   F107      1.0  0.65513  0.68604  0.12299  1.0000
  F   F108      1.0  0.64801  0.69749  0.63993  1.0000
  F   F109      1.0  0.89993  0.20243  0.11202  1.0000
  F   F110      1.0  0.90402  0.19144  0.64574  1.0000
  F   F111      1.0  0.89921  0.69288  0.12090  1.0000
  F   F112      1.0  0.90431  0.70438  0.61956  1.0000
  F   F113      1.0  0.10520  0.30903  0.38198  1.0000
  F   F114      1.0  0.10072  0.30710  0.87364  1.0000
  F   F115      1.0  0.09186  0.81557  0.36724  1.0000
  F   F116      1.0  0.08874  0.81540  0.87913  1.0000
  F   F117      1.0  0.34330  0.29082  0.36413  1.0000
  F   F118      1.0  0.35001  0.32154  0.88062  1.0000
  F   F119      1.0  0.34464  0.81053  0.37091  1.0000
  F   F120      1.0  0.34901  0.79508  0.87535  1.0000
  F   F121      1.0  0.60122  0.29945  0.37452  1.0000
  F   F122      1.0  0.59190  0.29312  0.88369  1.0000
  F   F123      1.0  0.59925  0.79604  0.38004  1.0000
  F   F124      1.0  0.60534  0.80528  0.87542  1.0000
  F   F125      1.0  0.84790  0.30373  0.35979  1.0000
  F   F126      1.0  0.84437  0.31208  0.87274  1.0000
  F   F127      1.0  0.85009  0.79777  0.38418  1.0000
  F   F128      1.0  0.85348  0.79695  0.88945  1.0000
  F   F129      1.0  0.05574  0.25341  0.14500  1.0000
  F   F130      1.0  0.06740  0.24969  0.63956  1.0000
  F   F131      1.0  0.06683  0.75558  0.13564  1.0000
  F   F132      1.0  0.05860  0.75760  0.64236  1.0000
  F   F133      1.0  0.30743  0.24554  0.14533  1.0000
  F   F134      1.0  0.31184  0.24700  0.63764  1.0000
  F   F135      1.0  0.32562  0.75730  0.12361  1.0000
  F   F136      1.0  0.31384  0.74121  0.64737  1.0000
  F   F137      1.0  0.56133  0.25088  0.14757  1.0000
  F   F138      1.0  0.57442  0.25140  0.62968  1.0000
  F   F139      1.0  0.56464  0.75252  0.14848  1.0000
  F   F140      1.0  0.55786  0.75103  0.65684  1.0000
  F   F141      1.0  0.81360  0.26500  0.14084  1.0000
  F   F142      1.0  0.83106  0.26437  0.62129  1.0000
  F   F143      1.0  0.81173  0.74665  0.14908  1.0000
  F   F144      1.0  0.81322  0.75184  0.64399  1.0000
  F   F145      1.0  0.12017  0.38365  0.09962  1.0000
  F   F146      1.0  0.12338  0.36943  0.61040  1.0000
  F   F147      1.0  0.12632  0.88500  0.09865  1.0000
  F   F148      1.0  0.12209  0.86270  0.60482  1.0000
  F   F149      1.0  0.37154  0.33939  0.12583  1.0000
  F   F150      1.0  0.38137  0.39099  0.57429  1.0000
  F   F151      1.0  0.37791  0.87603  0.09800  1.0000
  F   F152      1.0  0.37218  0.84803  0.63464  1.0000
  F   F153      1.0  0.62599  0.37870  0.10440  1.0000
  F   F154      1.0  0.62349  0.38038  0.60172  1.0000
  F   F155      1.0  0.62294  0.86903  0.11446  1.0000
  F   F156      1.0  0.62672  0.87251  0.59851  1.0000
  F   F157      1.0  0.87181  0.37178  0.11744  1.0000
  F   F158      1.0  0.87551  0.38848  0.59874  1.0000
  F   F159      1.0  0.87143  0.86037  0.11721  1.0000
  F   F160      1.0  0.86843  0.86761  0.62026  1.0000
  F   F161      1.0  0.20046  0.25431  0.34060  1.0000
  F   F162      1.0  0.18043  0.24741  0.87982  1.0000
  F   F163      1.0  0.17450  0.75623  0.38052  1.0000
  F   F164      1.0  0.17424  0.75191  0.85901  1.0000
  F   F165      1.0  0.42928  0.24802  0.36503  1.0000
  F   F166      1.0  0.43750  0.24525  0.85895  1.0000
  F   F167      1.0  0.42672  0.73398  0.37408  1.0000
  F   F168      1.0  0.42556  0.74900  0.87659  1.0000
  F   F169      1.0  0.67993  0.23598  0.37530  1.0000
  F   F170      1.0  0.68291  0.24333  0.87168  1.0000
  F   F171      1.0  0.68415  0.74814  0.34506  1.0000
  F   F172      1.0  0.68590  0.73724  0.85495  1.0000
  F   F173      1.0  0.94348  0.25495  0.33781  1.0000
  F   F174      1.0  0.93410  0.25046  0.86012  1.0000
  F   F175      1.0  0.93526  0.75174  0.35361  1.0000
  F   F176      1.0  0.93651  0.75123  0.85814  1.0000
  F   F177      1.0  0.12146  0.14209  0.39323  1.0000
  F   F178      1.0  0.12339  0.14272  0.88114  1.0000
  F   F179      1.0  0.12892  0.64527  0.37927  1.0000
  F   F180      1.0  0.12179  0.62406  0.90473  1.0000
  F   F181      1.0  0.37366  0.11720  0.39737  1.0000
  F   F182      1.0  0.37615  0.14348  0.87601  1.0000
  F   F183      1.0  0.37125  0.61258  0.39520  1.0000
  F   F184      1.0  0.37499  0.61689  0.90037  1.0000
  F   F185      1.0  0.62559  0.11625  0.39193  1.0000
  F   F186      1.0  0.62513  0.13804  0.89127  1.0000
  F   F187      1.0  0.62203  0.61934  0.42049  1.0000
  F   F188      1.0  0.62596  0.62884  0.89603  1.0000
  F   F189      1.0  0.87473  0.12331  0.40514  1.0000
  F   F190      1.0  0.88102  0.12476  0.88797  1.0000
  F   F191      1.0  0.87087  0.62417  0.40238  1.0000
  F   F192      1.0  0.87825  0.63653  0.87687  1.0000
  F   F193      1.0  0.01347  0.37906  0.05002  1.0000
  F   F194      1.0  0.01283  0.35982  0.56854  1.0000
  F   F195      1.0  0.00977  0.85928  0.06816  1.0000
  F   F196      1.0  0.00989  0.86665  0.55259  1.0000
  F   F197      1.0  0.25968  0.37096  0.06517  1.0000
  F   F198      1.0  0.25630  0.36871  0.55848  1.0000
  F   F199      1.0  0.26122  0.86274  0.06879  1.0000
  F   F200      1.0  0.25351  0.85489  0.58884  1.0000
  F   F201      1.0  0.50747  0.35591  0.07374  1.0000
  F   F202      1.0  0.51017  0.36086  0.57188  1.0000
  F   F203      1.0  0.51176  0.85540  0.07902  1.0000
  F   F204      1.0  0.50514  0.87434  0.57229  1.0000
  F   F205      1.0  0.76384  0.36570  0.05977  1.0000
  F   F206      1.0  0.76055  0.33702  0.59096  1.0000
  F   F207      1.0  0.75347  0.86356  0.07256  1.0000
  F   F208      1.0  0.75918  0.87273  0.56199  1.0000
  F   F209      1.0  0.06941  0.48392  0.17557  1.0000
  F   F210      1.0  0.07314  0.49341  0.66002  1.0000
  F   F211      1.0  0.06675  0.98751  0.18815  1.0000
  F   F212      1.0  0.06656  0.98491  0.66916  1.0000
  F   F213      1.0  0.32516  0.47218  0.16973  1.0000
  F   F214      1.0  0.32105  0.48397  0.68275  1.0000
  F   F215      1.0  0.31963  0.98459  0.17153  1.0000
  F   F216      1.0  0.32065  0.97215  0.67686  1.0000
  F   F217      1.0  0.56475  0.48937  0.17220  1.0000
  F   F218      1.0  0.56322  0.47578  0.69164  1.0000
  F   F219      1.0  0.56953  0.99031  0.17243  1.0000
  F   F220      1.0  0.57593  0.98991  0.65799  1.0000
  F   F221      1.0  0.81107  0.48328  0.19433  1.0000
  F   F222      1.0  0.81759  0.49550  0.67293  1.0000
  F   F223      1.0  0.81789  0.99187  0.17032  1.0000
  F   F224      1.0  0.81882  0.98532  0.68327  1.0000
  F   F225      1.0  0.24293  0.12234  0.42901  1.0000
  F   F226      1.0  0.24424  0.15183  0.91338  1.0000
  F   F227      1.0  0.23917  0.63665  0.43648  1.0000
  F   F228      1.0  0.24094  0.64147  0.92070  1.0000
  F   F229      1.0  0.49046  0.14550  0.42012  1.0000
  F   F230      1.0  0.49061  0.13591  0.92169  1.0000
  F   F231      1.0  0.49209  0.63251  0.43789  1.0000
  F   F232      1.0  0.49361  0.65600  0.90962  1.0000
  F   F233      1.0  0.74251  0.14105  0.43296  1.0000
  F   F234      1.0  0.74292  0.13081  0.92802  1.0000
  F   F235      1.0  0.73999  0.62967  0.43992  1.0000
  F   F236      1.0  0.73866  0.63624  0.93414  1.0000
  F   F237      1.0  0.98985  0.13905  0.43420  1.0000
  F   F238      1.0  0.99137  0.13117  0.92557  1.0000
  F   F239      1.0  0.98800  0.63139  0.42269  1.0000
  F   F240      1.0  0.99879  0.64072  0.91392  1.0000
  F   F241      1.0  0.17914  0.03291  0.31170  1.0000
  F   F242      1.0  0.17678  0.01489  0.82502  1.0000
  F   F243      1.0  0.18168  0.52710  0.32193  1.0000
  F   F244      1.0  0.17861  0.52688  0.81145  1.0000
  F   F245      1.0  0.42804  0.02094  0.31373  1.0000
  F   F246      1.0  0.43092  0.01423  0.82694  1.0000
  F   F247      1.0  0.43296  0.51608  0.32185  1.0000
  F   F248      1.0  0.43048  0.52280  0.81330  1.0000
  F   F249      1.0  0.68742  0.01528  0.31449  1.0000
  F   F250      1.0  0.68448  0.01613  0.82308  1.0000
  F   F251      1.0  0.67423  0.50873  0.33149  1.0000
  F   F252      1.0  0.68063  0.51211  0.82602  1.0000
  F   F253      1.0  0.92934  0.01520  0.32810  1.0000
  F   F254      1.0  0.93559  0.01861  0.81407  1.0000
  F   F255      1.0  0.93157  0.51351  0.31958  1.0000
  F   F256      1.0  0.93826  0.52398  0.81472  1.0000
  F   F257      1.0  0.99816  0.25568  0.99603  1.0000
  F   F258      1.0  0.00393  0.26066  0.49208  1.0000
  F   F259      1.0  0.99443  0.73754  0.00913  1.0000
  F   F260      1.0  0.00202  0.73786  0.50104  1.0000
  F   F261      1.0  0.25611  0.26934  0.98528  1.0000
  F   F262      1.0  0.24668  0.23632  0.50186  1.0000
  F   F263      1.0  0.24110  0.72360  0.02142  1.0000
  F   F264      1.0  0.25165  0.74344  0.49950  1.0000
  F   F265      1.0  0.50134  0.24275  0.00278  1.0000
  F   F266      1.0  0.50087  0.24011  0.51752  1.0000
  F   F267      1.0  0.49849  0.73702  0.00718  1.0000
  F   F268      1.0  0.50156  0.75793  0.49859  1.0000
  F   F269      1.0  0.74900  0.22505  0.01805  1.0000
  F   F270      1.0  0.75447  0.25297  0.49613  1.0000
  F   F271      1.0  0.75280  0.74437  0.00691  1.0000
  F   F272      1.0  0.75112  0.75796  0.48515  1.0000
  F   F273      1.0  0.13199  0.01130  0.22609  1.0000
  F   F274      1.0  0.12666  0.00644  0.73814  1.0000
  F   F275      1.0  0.12548  0.50114  0.24880  1.0000
  F   F276      1.0  0.12633  0.50503  0.74209  1.0000
  F   F277      1.0  0.37233  0.99674  0.25442  1.0000
  F   F278      1.0  0.37211  0.00654  0.75213  1.0000
  F   F279      1.0  0.38480  0.50677  0.23154  1.0000
  F   F280      1.0  0.37729  0.49360  0.74812  1.0000
  F   F281      1.0  0.62984  0.00352  0.24466  1.0000
  F   F282      1.0  0.63066  0.00511  0.74981  1.0000
  F   F283      1.0  0.61650  0.49680  0.26095  1.0000
  F   F284      1.0  0.61806  0.49257  0.75902  1.0000
  F   F285      1.0  0.86367  0.98855  0.26133  1.0000
  F   F286      1.0  0.87520  0.01156  0.74933  1.0000
  F   F287      1.0  0.87664  0.49372  0.24456  1.0000
  F   F288      1.0  0.88257  0.50147  0.73609  1.0000
  F   F289      1.0  0.03780  0.02757  0.03722  1.0000
  F   F290      1.0  0.04227  0.02922  0.51823  1.0000
  F   F291      1.0  0.04038  0.53325  0.02775  1.0000
  F   F292      1.0  0.04799  0.53970  0.52194  1.0000
  F   F293      1.0  0.29321  0.03647  0.01951  1.0000
  F   F294      1.0  0.29512  0.02329  0.52718  1.0000
  F   F295      1.0  0.29183  0.52680  0.02896  1.0000
  F   F296      1.0  0.29450  0.52444  0.51888  1.0000
  F   F297      1.0  0.54659  0.02385  0.00279  1.0000
  F   F298      1.0  0.53711  0.04256  0.53095  1.0000
  F   F299      1.0  0.54363  0.52971  0.01452  1.0000
  F   F300      1.0  0.54501  0.52568  0.52807  1.0000
  F   F301      1.0  0.78857  0.03914  0.03964  1.0000
  F   F302      1.0  0.79219  0.02920  0.53984  1.0000
  F   F303      1.0  0.79216  0.53445  0.01824  1.0000
  F   F304      1.0  0.79029  0.52644  0.52980  1.0000
  F   F305      1.0  0.23277  0.43134  0.22680  1.0000
  F   F306      1.0  0.23717  0.42663  0.70415  1.0000
  F   F307      1.0  0.23488  0.91266  0.21802  1.0000
  F   F308      1.0  0.23055  0.93073  0.71927  1.0000
  F   F309      1.0  0.48406  0.41527  0.23074  1.0000
  F   F310      1.0  0.47777  0.41644  0.72258  1.0000
  F   F311      1.0  0.48782  0.92707  0.22021  1.0000
  F   F312      1.0  0.48986  0.90596  0.72642  1.0000
  F   F313      1.0  0.73126  0.42542  0.22830  1.0000
  F   F314      1.0  0.73216  0.40257  0.73320  1.0000
  F   F315      1.0  0.73452  0.90561  0.22927  1.0000
  F   F316      1.0  0.73867  0.89976  0.74206  1.0000
  F   F317      1.0  0.98663  0.40267  0.23468  1.0000
  F   F318      1.0  0.98349  0.40644  0.72971  1.0000
  F   F319      1.0  0.98571  0.91372  0.22058  1.0000
  F   F320      1.0  0.97917  0.91401  0.71874  1.0000
  F   F321      1.0  0.20307  0.46821  0.48018  1.0000
  F   F322      1.0  0.19765  0.48050  0.99102  1.0000
  F   F323      1.0  0.19620  0.97466  0.49778  1.0000
  F   F324      1.0  0.21075  0.96977  0.97895  1.0000
  F   F325      1.0  0.46351  0.46631  0.48487  1.0000
  F   F326      1.0  0.44696  0.46437  0.98833  1.0000
  F   F327      1.0  0.45637  0.96654  0.47241  1.0000
  F   F328      1.0  0.46070  0.95411  0.96511  1.0000
  F   F329      1.0  0.70984  0.46118  0.48634  1.0000
  F   F330      1.0  0.70954  0.46131  0.97623  1.0000
  F   F331      1.0  0.70867  0.96366  0.47939  1.0000
  F   F332      1.0  0.70366  0.96912  0.98043  1.0000
  F   F333      1.0  0.95753  0.47727  0.47342  1.0000
  F   F334      1.0  0.95977  0.47762  0.98014  1.0000
  F   F335      1.0  0.94959  0.96790  0.49129  1.0000
  F   F336      1.0  0.95390  0.96173  0.98849  1.0000
  F   F337      1.0  0.01154  0.07806  0.29085  1.0000
  F   F338      1.0  0.01156  0.08950  0.76786  1.0000
  F   F339      1.0  0.01260  0.58893  0.26757  1.0000
  F   F340      1.0  0.02181  0.57791  0.77804  1.0000
  F   F341      1.0  0.26154  0.08351  0.28162  1.0000
  F   F342      1.0  0.26216  0.07608  0.77183  1.0000
  F   F343      1.0  0.27093  0.57034  0.28089  1.0000
  F   F344      1.0  0.26270  0.58963  0.77122  1.0000
  F   F345      1.0  0.51124  0.09900  0.27113  1.0000
  F   F346      1.0  0.52062  0.08644  0.76144  1.0000
  F   F347      1.0  0.52491  0.57765  0.29265  1.0000
  F   F348      1.0  0.51191  0.56947  0.78924  1.0000
  F   F349      1.0  0.76922  0.08874  0.27373  1.0000
  F   F350      1.0  0.76854  0.09502  0.77196  1.0000
  F   F351      1.0  0.76132  0.58544  0.27839  1.0000
  F   F352      1.0  0.76169  0.58206  0.77391  1.0000
  F   F353      1.0  0.10488  0.41272  0.46296  1.0000
  F   F354      1.0  0.10103  0.40270  0.95575  1.0000
  F   F355      1.0  0.10288  0.90551  0.45440  1.0000
  F   F356      1.0  0.10176  0.91602  0.95835  1.0000
  F   F357      1.0  0.35074  0.38836  0.45389  1.0000
  F   F358      1.0  0.35282  0.40834  0.97672  1.0000
  F   F359      1.0  0.34954  0.89363  0.46615  1.0000
  F   F360      1.0  0.34328  0.90738  0.95235  1.0000
  F   F361      1.0  0.59952  0.40502  0.45703  1.0000
  F   F362      1.0  0.60654  0.40270  0.96103  1.0000
  F   F363      1.0  0.60380  0.91107  0.45587  1.0000
  F   F364      1.0  0.60546  0.90991  0.96272  1.0000
  F   F365      1.0  0.84684  0.40267  0.44950  1.0000
  F   F366      1.0  0.85758  0.42789  0.94393  1.0000
  F   F367      1.0  0.85696  0.89742  0.46207  1.0000
  F   F368      1.0  0.84956  0.92063  0.96691  1.0000
  F   F369      1.0  0.05248  0.30001  0.28321  1.0000
  F   F370      1.0  0.04680  0.30175  0.78751  1.0000
  F   F371      1.0  0.04347  0.79711  0.28606  1.0000
  F   F372      1.0  0.04056  0.80375  0.78915  1.0000
  F   F373      1.0  0.28922  0.30113  0.28379  1.0000
  F   F374      1.0  0.30978  0.29944  0.77312  1.0000
  F   F375      1.0  0.29773  0.79637  0.28669  1.0000
  F   F376      1.0  0.28757  0.80019  0.80603  1.0000
  F   F377      1.0  0.53890  0.29193  0.30254  1.0000
  F   F378      1.0  0.53773  0.28804  0.79229  1.0000
  F   F379      1.0  0.54265  0.81237  0.29172  1.0000
  F   F380      1.0  0.55373  0.79458  0.79622  1.0000
  F   F381      1.0  0.78508  0.30846  0.29164  1.0000
  F   F382      1.0  0.80160  0.30000  0.78086  1.0000
  F   F383      1.0  0.79536  0.79036  0.29280  1.0000
  F   F384      1.0  0.80015  0.79001  0.79823  1.0000
