data_image0
_chemical_formula_structural       Hf96F384
_chemical_formula_sum              "Hf96 F384"
_cell_length_a       31.0228
_cell_length_b       15.5091
_cell_length_c       15.5027
_cell_angle_alpha    63.342
_cell_angle_beta     63.342
_cell_angle_gamma    80.1625

_space_group_name_H-M_alt    "P 1"
_space_group_IT_number       1

loop_
  _space_group_symop_operation_xyz
  'x, y, z'

loop_
  _atom_site_type_symbol
  _atom_site_label
  _atom_site_symmetry_multiplicity
  _atom_site_fract_x
  _atom_site_fract_y
  _atom_site_fract_z
  _atom_site_occupancy
  Hf  Hf1       1.0  0.19820  0.10095  0.37396  1.0000
  Hf  Hf2       1.0  0.20171  0.11174  0.86285  1.0000
  Hf  Hf3       1.0  0.19857  0.60210  0.37662  1.0000
  Hf  Hf4       1.0  0.19687  0.60502  0.87762  1.0000
  Hf  Hf5       1.0  0.44916  0.10925  0.37737  1.0000
  Hf  Hf6       1.0  0.44746  0.11070  0.87141  1.0000
  Hf  Hf7       1.0  0.44398  0.61300  0.38489  1.0000
  Hf  Hf8       1.0  0.44550  0.60790  0.87312  1.0000
  Hf  Hf9       1.0  0.69688  0.11584  0.37524  1.0000
  Hf  Hf10      1.0  0.70121  0.11434  0.86609  1.0000
  Hf  Hf11      1.0  0.69309  0.60543  0.38702  1.0000
  Hf  Hf12      1.0  0.69409  0.60779  0.87196  1.0000
  Hf  Hf13      1.0  0.94743  0.10468  0.36617  1.0000
  Hf  Hf14      1.0  0.94850  0.10707  0.87528  1.0000
  Hf  Hf15      1.0  0.94479  0.60423  0.37598  1.0000
  Hf  Hf16      1.0  0.94802  0.60948  0.87096  1.0000
  Hf  Hf17      1.0  0.05039  0.39246  0.12595  1.0000
  Hf  Hf18      1.0  0.04990  0.39198  0.62745  1.0000
  Hf  Hf19      1.0  0.05384  0.89037  0.13086  1.0000
  Hf  Hf20      1.0  0.05394  0.88730  0.62543  1.0000
  Hf  Hf21      1.0  0.30845  0.39553  0.12253  1.0000
  Hf  Hf22      1.0  0.30171  0.38973  0.62826  1.0000
  Hf  Hf23      1.0  0.30563  0.88571  0.12535  1.0000
  Hf  Hf24      1.0  0.30386  0.89668  0.61149  1.0000
  Hf  Hf25      1.0  0.55333  0.40040  0.11676  1.0000
  Hf  Hf26      1.0  0.55425  0.40121  0.61634  1.0000
  Hf  Hf27      1.0  0.55296  0.88880  0.13020  1.0000
  Hf  Hf28      1.0  0.55417  0.89372  0.62531  1.0000
  Hf  Hf29      1.0  0.80272  0.39325  0.12907  1.0000
  Hf  Hf30      1.0  0.80138  0.38659  0.63478  1.0000
  Hf  Hf31      1.0  0.80504  0.89590  0.12141  1.0000
  Hf  Hf32      1.0  0.80281  0.89254  0.62393  1.0000
  Hf  Hf33      1.0  0.05930  0.17085  0.41562  1.0000
  Hf  Hf34      1.0  0.05656  0.18476  0.91724  1.0000
  Hf  Hf35      1.0  0.05491  0.68186  0.41888  1.0000
  Hf  Hf36      1.0  0.05451  0.68598  0.91745  1.0000
  Hf  Hf37      1.0  0.30685  0.19148  0.40927  1.0000
  Hf  Hf38      1.0  0.30748  0.18030  0.91599  1.0000
  Hf  Hf39      1.0  0.30582  0.67608  0.42370  1.0000
  Hf  Hf40      1.0  0.30609  0.68689  0.91259  1.0000
  Hf  Hf41      1.0  0.55808  0.18112  0.41272  1.0000
  Hf  Hf42      1.0  0.55532  0.17949  0.92251  1.0000
  Hf  Hf43      1.0  0.55550  0.68237  0.42292  1.0000
  Hf  Hf44      1.0  0.55436  0.68210  0.91907  1.0000
  Hf  Hf45      1.0  0.80716  0.18724  0.41941  1.0000
  Hf  Hf46      1.0  0.80813  0.18008  0.91454  1.0000
  Hf  Hf47      1.0  0.80414  0.67463  0.42382  1.0000
  Hf  Hf48      1.0  0.80696  0.68958  0.90734  1.0000
  Hf  Hf49      1.0  0.15812  0.38529  0.33222  1.0000
  Hf  Hf50      1.0  0.15912  0.39033  0.83265  1.0000
  Hf  Hf51      1.0  0.15927  0.88329  0.33925  1.0000
  Hf  Hf52      1.0  0.15588  0.88816  0.83472  1.0000
  Hf  Hf53      1.0  0.41080  0.38592  0.34157  1.0000
  Hf  Hf54      1.0  0.40736  0.38836  0.82819  1.0000
  Hf  Hf55      1.0  0.40713  0.88608  0.33636  1.0000
  Hf  Hf56      1.0  0.41184  0.89259  0.82732  1.0000
  Hf  Hf57      1.0  0.65890  0.38871  0.33917  1.0000
  Hf  Hf58      1.0  0.65840  0.39420  0.83257  1.0000
  Hf  Hf59      1.0  0.65998  0.89278  0.32407  1.0000
  Hf  Hf60      1.0  0.65808  0.89404  0.82954  1.0000
  Hf  Hf61      1.0  0.90684  0.38437  0.33895  1.0000
  Hf  Hf62      1.0  0.91160  0.38976  0.82838  1.0000
  Hf  Hf63      1.0  0.90946  0.88716  0.33334  1.0000
  Hf  Hf64      1.0  0.91035  0.88537  0.82985  1.0000
  Hf  Hf65      1.0  0.19740  0.31969  0.07628  1.0000
  Hf  Hf66      1.0  0.19021  0.31396  0.59195  1.0000
  Hf  Hf67      1.0  0.19400  0.81513  0.08272  1.0000
  Hf  Hf68      1.0  0.19350  0.81440  0.58523  1.0000
  Hf  Hf69      1.0  0.44465  0.32431  0.08080  1.0000
  Hf  Hf70      1.0  0.44438  0.31447  0.58593  1.0000
  Hf  Hf71      1.0  0.44524  0.82289  0.08094  1.0000
  Hf  Hf72      1.0  0.44237  0.82071  0.58568  1.0000
  Hf  Hf73      1.0  0.69577  0.31702  0.08064  1.0000
  Hf  Hf74      1.0  0.69463  0.31670  0.58868  1.0000
  Hf  Hf75      1.0  0.69579  0.83143  0.07432  1.0000
  Hf  Hf76      1.0  0.69368  0.82300  0.57590  1.0000
  Hf  Hf77      1.0  0.94049  0.31838  0.08627  1.0000
  Hf  Hf78      1.0  0.94593  0.31274  0.58124  1.0000
  Hf  Hf79      1.0  0.94252  0.81377  0.09119  1.0000
  Hf  Hf80      1.0  0.94381  0.81763  0.57975  1.0000
  Hf  Hf81      1.0  0.09538  0.10776  0.16712  1.0000
  Hf  Hf82      1.0  0.09144  0.11096  0.66894  1.0000
  Hf  Hf83      1.0  0.08904  0.60728  0.17325  1.0000
  Hf  Hf84      1.0  0.09039  0.60954  0.66844  1.0000
  Hf  Hf85      1.0  0.34451  0.11250  0.16528  1.0000
  Hf  Hf86      1.0  0.34368  0.11267  0.66256  1.0000
  Hf  Hf87      1.0  0.34204  0.60663  0.16794  1.0000
  Hf  Hf88      1.0  0.34046  0.61132  0.67278  1.0000
  Hf  Hf89      1.0  0.59129  0.11552  0.16459  1.0000
  Hf  Hf90      1.0  0.59023  0.10781  0.67061  1.0000
  Hf  Hf91      1.0  0.58423  0.60699  0.17516  1.0000
  Hf  Hf92      1.0  0.59100  0.61562  0.66983  1.0000
  Hf  Hf93      1.0  0.84161  0.11555  0.16276  1.0000
  Hf  Hf94      1.0  0.84195  0.10461  0.66517  1.0000
  Hf  Hf95      1.0  0.83369  0.61493  0.17118  1.0000
  Hf  Hf96      1.0  0.84032  0.61011  0.66857  1.0000
  F   F1        1.0  0.08208  0.11480  0.31051  1.0000
  F   F2        1.0  0.07629  0.13444  0.80215  1.0000
  F   F3        1.0  0.07986  0.64398  0.29418  1.0000
  F   F4        1.0  0.08666  0.63069  0.79143  1.0000
  F   F5        1.0  0.33496  0.13058  0.30635  1.0000
  F   F6        1.0  0.32767  0.12724  0.79986  1.0000
  F   F7        1.0  0.33110  0.63643  0.30222  1.0000
  F   F8        1.0  0.32542  0.62277  0.80729  1.0000
  F   F9        1.0  0.57163  0.11417  0.32442  1.0000
  F   F10       1.0  0.58330  0.12282  0.81251  1.0000
  F   F11       1.0  0.57362  0.62408  0.31663  1.0000
  F   F12       1.0  0.57825  0.62664  0.80343  1.0000
  F   F13       1.0  0.83209  0.14243  0.29701  1.0000
  F   F14       1.0  0.83276  0.13397  0.79692  1.0000
  F   F15       1.0  0.82605  0.62726  0.30717  1.0000
  F   F16       1.0  0.82826  0.63535  0.80296  1.0000
  F   F17       1.0  0.17819  0.31849  0.46388  1.0000
  F   F18       1.0  0.19162  0.34495  0.93869  1.0000
  F   F19       1.0  0.19286  0.85852  0.42972  1.0000
  F   F20       1.0  0.18579  0.84698  0.94136  1.0000
  F   F21       1.0  0.44904  0.35041  0.43738  1.0000
  F   F22       1.0  0.43540  0.35622  0.94187  1.0000
  F   F23       1.0  0.43578  0.84416  0.44789  1.0000
  F   F24       1.0  0.43906  0.84206  0.93544  1.0000
  F   F25       1.0  0.68185  0.35311  0.45904  1.0000
  F   F26       1.0  0.67301  0.33087  0.96560  1.0000
  F   F27       1.0  0.68317  0.83775  0.44526  1.0000
  F   F28       1.0  0.67991  0.84434  0.94606  1.0000
  F   F29       1.0  0.93732  0.33415  0.45339  1.0000
  F   F30       1.0  0.94093  0.35995  0.93250  1.0000
  F   F31       1.0  0.94514  0.83620  0.43120  1.0000
  F   F32       1.0  0.93301  0.82486  0.94897  1.0000
  F   F33       1.0  0.17463  0.38562  0.18619  1.0000
  F   F34       1.0  0.16857  0.36807  0.69512  1.0000
  F   F35       1.0  0.17006  0.85291  0.20721  1.0000
  F   F36       1.0  0.16563  0.87561  0.70360  1.0000
  F   F37       1.0  0.42052  0.38398  0.19312  1.0000
  F   F38       1.0  0.42706  0.38273  0.68530  1.0000
  F   F39       1.0  0.41931  0.88626  0.19037  1.0000
  F   F40       1.0  0.41927  0.87246  0.69401  1.0000
  F   F41       1.0  0.67238  0.36802  0.19732  1.0000
  F   F42       1.0  0.66899  0.35897  0.70894  1.0000
  F   F43       1.0  0.67033  0.88623  0.18718  1.0000
  F   F44       1.0  0.67626  0.89591  0.68439  1.0000
  F   F45       1.0  0.91181  0.36395  0.20984  1.0000
  F   F46       1.0  0.92574  0.37640  0.69086  1.0000
  F   F47       1.0  0.92044  0.87613  0.19458  1.0000
  F   F48       1.0  0.91902  0.87505  0.68346  1.0000
  F   F49       1.0  0.06480  0.14537  0.05893  1.0000
  F   F50       1.0  0.07653  0.16504  0.53971  1.0000
  F   F51       1.0  0.05947  0.64731  0.06583  1.0000
  F   F52       1.0  0.06330  0.65340  0.55687  1.0000
  F   F53       1.0  0.32129  0.16214  0.04984  1.0000
  F   F54       1.0  0.31358  0.15738  0.55114  1.0000
  F   F55       1.0  0.32029  0.67398  0.02965  1.0000
  F   F56       1.0  0.31229  0.64791  0.56149  1.0000
  F   F57       1.0  0.55980  0.16498  0.05308  1.0000
  F   F58       1.0  0.56925  0.15822  0.54826  1.0000
  F   F59       1.0  0.56886  0.66501  0.05354  1.0000
  F   F60       1.0  0.56204  0.66038  0.55567  1.0000
  F   F61       1.0  0.81200  0.17231  0.04570  1.0000
  F   F62       1.0  0.80838  0.15088  0.55979  1.0000
  F   F63       1.0  0.80455  0.66037  0.05584  1.0000
  F   F64       1.0  0.80936  0.65554  0.55639  1.0000
  F   F65       1.0  0.20331  0.20912  0.21245  1.0000
  F   F66       1.0  0.21020  0.19919  0.70585  1.0000
  F   F67       1.0  0.21303  0.70584  0.22344  1.0000
  F   F68       1.0  0.19572  0.70748  0.71940  1.0000
  F   F69       1.0  0.44869  0.20341  0.20543  1.0000
  F   F70       1.0  0.46116  0.21573  0.71206  1.0000
  F   F71       1.0  0.45012  0.70279  0.21379  1.0000
  F   F72       1.0  0.46319  0.70425  0.70640  1.0000
  F   F73       1.0  0.70965  0.20877  0.21315  1.0000
  F   F74       1.0  0.70887  0.19399  0.71011  1.0000
  F   F75       1.0  0.69909  0.70810  0.19009  1.0000
  F   F76       1.0  0.69842  0.69428  0.71373  1.0000
  F   F77       1.0  0.95279  0.20104  0.20838  1.0000
  F   F78       1.0  0.95552  0.20127  0.71104  1.0000
  F   F79       1.0  0.95670  0.69639  0.22456  1.0000
  F   F80       1.0  0.95314  0.69762  0.71164  1.0000
  F   F81       1.0  0.15462  0.10771  0.02247  1.0000
  F   F82       1.0  0.15373  0.08915  0.55088  1.0000
  F   F83       1.0  0.15111  0.59537  0.04216  1.0000
  F   F84       1.0  0.14603  0.58150  0.53886  1.0000
  F   F85       1.0  0.40121  0.10000  0.03388  1.0000
  F   F86       1.0  0.40297  0.08731  0.53830  1.0000
  F   F87       1.0  0.39275  0.58169  0.04042  1.0000
  F   F88       1.0  0.39992  0.61073  0.53883  1.0000
  F   F89       1.0  0.65105  0.10839  0.03946  1.0000
  F   F90       1.0  0.64887  0.08756  0.54835  1.0000
  F   F91       1.0  0.65025  0.57330  0.02703  1.0000
  F   F92       1.0  0.64414  0.60049  0.53441  1.0000
  F   F93       1.0  0.89848  0.09258  0.04241  1.0000
  F   F94       1.0  0.89400  0.08183  0.54150  1.0000
  F   F95       1.0  0.89681  0.62042  0.04949  1.0000
  F   F96       1.0  0.89768  0.58647  0.55175  1.0000
  F   F97       1.0  0.15259  0.19833  0.12792  1.0000
  F   F98       1.0  0.15036  0.18518  0.65005  1.0000
  F   F99       1.0  0.15266  0.69643  0.14602  1.0000
  F   F100      1.0  0.14863  0.69846  0.61609  1.0000
  F   F101      1.0  0.40354  0.19227  0.12214  1.0000
  F   F102      1.0  0.40473  0.20377  0.60820  1.0000
  F   F103      1.0  0.40790  0.69738  0.10011  1.0000
  F   F104      1.0  0.40043  0.70363  0.63644  1.0000
  F   F105      1.0  0.64210  0.19559  0.15838  1.0000
  F   F106      1.0  0.65077  0.20594  0.62700  1.0000
  F   F107      1.0  0.64227  0.69189  0.11099  1.0000
  F   F108      1.0  0.65058  0.70992  0.61913  1.0000
  F   F109      1.0  0.90303  0.20386  0.11742  1.0000
  F   F110      1.0  0.91188  0.18212  0.61750  1.0000
  F   F111      1.0  0.89947  0.69444  0.14967  1.0000
  F   F112      1.0  0.89847  0.69629  0.62942  1.0000
  F   F113      1.0  0.09668  0.29369  0.36660  1.0000
  F   F114      1.0  0.09824  0.30454  0.86924  1.0000
  F   F115      1.0  0.09675  0.80322  0.37547  1.0000
  F   F116      1.0  0.09610  0.79832  0.88461  1.0000
  F   F117      1.0  0.34918  0.30127  0.37533  1.0000
  F   F118      1.0  0.35547  0.30490  0.85308  1.0000
  F   F119      1.0  0.34975  0.80296  0.37234  1.0000
  F   F120      1.0  0.34193  0.83214  0.86646  1.0000
  F   F121      1.0  0.59907  0.30927  0.37720  1.0000
  F   F122      1.0  0.59978  0.30661  0.89818  1.0000
  F   F123      1.0  0.59784  0.80788  0.38960  1.0000
  F   F124      1.0  0.59887  0.80500  0.86055  1.0000
  F   F125      1.0  0.84352  0.30979  0.39253  1.0000
  F   F126      1.0  0.85013  0.30451  0.86193  1.0000
  F   F127      1.0  0.84689  0.78730  0.35468  1.0000
  F   F128      1.0  0.85064  0.80058  0.87707  1.0000
  F   F129      1.0  0.07088  0.25043  0.12820  1.0000
  F   F130      1.0  0.06677  0.24064  0.64794  1.0000
  F   F131      1.0  0.06942  0.75067  0.13652  1.0000
  F   F132      1.0  0.06043  0.75141  0.63431  1.0000
  F   F133      1.0  0.31231  0.24540  0.14970  1.0000
  F   F134      1.0  0.31215  0.24912  0.65238  1.0000
  F   F135      1.0  0.32023  0.75027  0.13141  1.0000
  F   F136      1.0  0.31576  0.74427  0.64040  1.0000
  F   F137      1.0  0.55928  0.24774  0.14841  1.0000
  F   F138      1.0  0.56584  0.25046  0.65141  1.0000
  F   F139      1.0  0.55100  0.74571  0.16595  1.0000
  F   F140      1.0  0.56170  0.74830  0.64463  1.0000
  F   F141      1.0  0.81228  0.25659  0.14700  1.0000
  F   F142      1.0  0.82389  0.24344  0.62915  1.0000
  F   F143      1.0  0.80640  0.76040  0.13298  1.0000
  F   F144      1.0  0.81538  0.75386  0.63038  1.0000
  F   F145      1.0  0.12726  0.37248  0.10504  1.0000
  F   F146      1.0  0.12003  0.37154  0.61032  1.0000
  F   F147      1.0  0.12567  0.87209  0.11125  1.0000
  F   F148      1.0  0.12284  0.86261  0.61221  1.0000
  F   F149      1.0  0.37536  0.36084  0.12006  1.0000
  F   F150      1.0  0.37155  0.35393  0.62818  1.0000
  F   F151      1.0  0.37607  0.85157  0.11932  1.0000
  F   F152      1.0  0.37344  0.88027  0.59893  1.0000
  F   F153      1.0  0.62273  0.37399  0.11088  1.0000
  F   F154      1.0  0.62114  0.37596  0.60823  1.0000
  F   F155      1.0  0.62050  0.85322  0.12090  1.0000
  F   F156      1.0  0.62312  0.88039  0.61140  1.0000
  F   F157      1.0  0.87754  0.37675  0.10005  1.0000
  F   F158      1.0  0.87325  0.33933  0.64492  1.0000
  F   F159      1.0  0.87501  0.86960  0.09378  1.0000
  F   F160      1.0  0.87410  0.87366  0.58746  1.0000
  F   F161      1.0  0.17978  0.23791  0.36175  1.0000
  F   F162      1.0  0.18766  0.25446  0.85096  1.0000
  F   F163      1.0  0.18332  0.74627  0.37350  1.0000
  F   F164      1.0  0.18033  0.74347  0.86384  1.0000
  F   F165      1.0  0.43885  0.25103  0.36735  1.0000
  F   F166      1.0  0.42691  0.24812  0.87659  1.0000
  F   F167      1.0  0.43699  0.76139  0.34827  1.0000
  F   F168      1.0  0.42257  0.74590  0.86562  1.0000
  F   F169      1.0  0.68882  0.25057  0.36436  1.0000
  F   F170      1.0  0.69077  0.24547  0.86005  1.0000
  F   F171      1.0  0.68782  0.75128  0.33570  1.0000
  F   F172      1.0  0.68008  0.74866  0.85585  1.0000
  F   F173      1.0  0.93484  0.24184  0.36343  1.0000
  F   F174      1.0  0.93592  0.24832  0.86309  1.0000
  F   F175      1.0  0.92313  0.74436  0.37082  1.0000
  F   F176      1.0  0.93825  0.75074  0.84487  1.0000
  F   F177      1.0  0.12668  0.11099  0.40458  1.0000
  F   F178      1.0  0.12945  0.13045  0.88242  1.0000
  F   F179      1.0  0.12690  0.62552  0.38797  1.0000
  F   F180      1.0  0.11957  0.62057  0.90779  1.0000
  F   F181      1.0  0.38064  0.13642  0.39512  1.0000
  F   F182      1.0  0.37656  0.12651  0.88344  1.0000
  F   F183      1.0  0.37676  0.63721  0.39011  1.0000
  F   F184      1.0  0.37572  0.62589  0.87514  1.0000
  F   F185      1.0  0.62921  0.14521  0.38404  1.0000
  F   F186      1.0  0.62814  0.11680  0.90592  1.0000
  F   F187      1.0  0.62192  0.62221  0.39829  1.0000
  F   F188      1.0  0.62088  0.62917  0.88296  1.0000
  F   F189      1.0  0.87425  0.14061  0.39231  1.0000
  F   F190      1.0  0.87644  0.12573  0.89622  1.0000
  F   F191      1.0  0.87522  0.62317  0.39625  1.0000
  F   F192      1.0  0.87560  0.63568  0.89240  1.0000
  F   F193      1.0  0.00437  0.35893  0.07068  1.0000
  F   F194      1.0  0.00956  0.34969  0.57690  1.0000
  F   F195      1.0  0.00710  0.85462  0.07660  1.0000
  F   F196      1.0  0.00511  0.86325  0.57041  1.0000
  F   F197      1.0  0.26557  0.35155  0.05771  1.0000
  F   F198      1.0  0.25276  0.36385  0.57412  1.0000
  F   F199      1.0  0.25974  0.86325  0.06154  1.0000
  F   F200      1.0  0.25355  0.85815  0.56889  1.0000
  F   F201      1.0  0.50632  0.37074  0.06832  1.0000
  F   F202      1.0  0.50978  0.36482  0.56738  1.0000
  F   F203      1.0  0.50423  0.86675  0.07142  1.0000
  F   F204      1.0  0.51149  0.87019  0.56818  1.0000
  F   F205      1.0  0.75884  0.37033  0.06525  1.0000
  F   F206      1.0  0.76209  0.35689  0.57812  1.0000
  F   F207      1.0  0.75344  0.87831  0.06476  1.0000
  F   F208      1.0  0.75740  0.85669  0.56974  1.0000
  F   F209      1.0  0.07042  0.48485  0.15816  1.0000
  F   F210      1.0  0.06201  0.48449  0.68579  1.0000
  F   F211      1.0  0.07556  0.98635  0.16835  1.0000
  F   F212      1.0  0.07346  0.98683  0.66049  1.0000
  F   F213      1.0  0.31347  0.48103  0.19052  1.0000
  F   F214      1.0  0.32335  0.48290  0.68567  1.0000
  F   F215      1.0  0.32909  0.98402  0.15366  1.0000
  F   F216      1.0  0.32012  0.98314  0.66903  1.0000
  F   F217      1.0  0.56649  0.48735  0.17675  1.0000
  F   F218      1.0  0.56699  0.48310  0.67825  1.0000
  F   F219      1.0  0.57635  0.99606  0.15539  1.0000
  F   F220      1.0  0.56549  0.98970  0.67339  1.0000
  F   F221      1.0  0.81863  0.49197  0.16912  1.0000
  F   F222      1.0  0.82111  0.48136  0.67146  1.0000
  F   F223      1.0  0.82035  0.99341  0.16966  1.0000
  F   F224      1.0  0.81697  0.98710  0.67415  1.0000
  F   F225      1.0  0.24190  0.13502  0.42783  1.0000
  F   F226      1.0  0.24409  0.14152  0.91764  1.0000
  F   F227      1.0  0.24273  0.62080  0.43642  1.0000
  F   F228      1.0  0.23851  0.63209  0.93814  1.0000
  F   F229      1.0  0.49422  0.14193  0.42457  1.0000
  F   F230      1.0  0.49529  0.13864  0.92248  1.0000
  F   F231      1.0  0.48978  0.64394  0.42844  1.0000
  F   F232      1.0  0.49013  0.65638  0.91147  1.0000
  F   F233      1.0  0.74377  0.13286  0.43323  1.0000
  F   F234      1.0  0.74335  0.12770  0.93592  1.0000
  F   F235      1.0  0.73858  0.64127  0.43061  1.0000
  F   F236      1.0  0.74092  0.63989  0.92135  1.0000
  F   F237      1.0  0.99124  0.14114  0.41689  1.0000
  F   F238      1.0  0.99138  0.12449  0.93092  1.0000
  F   F239      1.0  0.98998  0.63737  0.42176  1.0000
  F   F240      1.0  0.98820  0.65506  0.91439  1.0000
  F   F241      1.0  0.18361  0.01114  0.31628  1.0000
  F   F242      1.0  0.18378  0.01186  0.82315  1.0000
  F   F243      1.0  0.18244  0.51168  0.30547  1.0000
  F   F244      1.0  0.17922  0.50866  0.82738  1.0000
  F   F245      1.0  0.43435  0.01164  0.33300  1.0000
  F   F246      1.0  0.44321  0.02074  0.80834  1.0000
  F   F247      1.0  0.43126  0.51270  0.32775  1.0000
  F   F248      1.0  0.43442  0.51247  0.82666  1.0000
  F   F249      1.0  0.67980  0.02565  0.32435  1.0000
  F   F250      1.0  0.68180  0.01984  0.81428  1.0000
  F   F251      1.0  0.67965  0.52252  0.31811  1.0000
  F   F252      1.0  0.67377  0.51912  0.82268  1.0000
  F   F253      1.0  0.92646  0.01620  0.33198  1.0000
  F   F254      1.0  0.92840  0.00586  0.82451  1.0000
  F   F255      1.0  0.93412  0.51156  0.32397  1.0000
  F   F256      1.0  0.93552  0.51913  0.80698  1.0000
  F   F257      1.0  0.99592  0.24553  0.98858  1.0000
  F   F258      1.0  0.00621  0.23233  0.50862  1.0000
  F   F259      1.0  0.99832  0.73982  0.01687  1.0000
  F   F260      1.0  0.99699  0.74129  0.51118  1.0000
  F   F261      1.0  0.25232  0.23338  0.01004  1.0000
  F   F262      1.0  0.24826  0.25178  0.49198  1.0000
  F   F263      1.0  0.24613  0.74279  0.00094  1.0000
  F   F264      1.0  0.24860  0.74122  0.50062  1.0000
  F   F265      1.0  0.49640  0.24665  0.00667  1.0000
  F   F266      1.0  0.50034  0.24558  0.51337  1.0000
  F   F267      1.0  0.50418  0.76003  0.99391  1.0000
  F   F268      1.0  0.50018  0.75778  0.50120  1.0000
  F   F269      1.0  0.74365  0.24047  0.00470  1.0000
  F   F270      1.0  0.74745  0.25975  0.49622  1.0000
  F   F271      1.0  0.75224  0.77637  0.97305  1.0000
  F   F272      1.0  0.74938  0.74982  0.49489  1.0000
  F   F273      1.0  0.12953  0.99379  0.25460  1.0000
  F   F274      1.0  0.11694  0.98884  0.77312  1.0000
  F   F275      1.0  0.10644  0.48416  0.27668  1.0000
  F   F276      1.0  0.12800  0.49714  0.74962  1.0000
  F   F277      1.0  0.37689  0.00004  0.25370  1.0000
  F   F278      1.0  0.38116  0.00980  0.74717  1.0000
  F   F279      1.0  0.36705  0.49354  0.26753  1.0000
  F   F280      1.0  0.38195  0.51208  0.74451  1.0000
  F   F281      1.0  0.61622  0.99271  0.26759  1.0000
  F   F282      1.0  0.61509  0.99805  0.75974  1.0000
  F   F283      1.0  0.62306  0.49898  0.24741  1.0000
  F   F284      1.0  0.63068  0.50230  0.73079  1.0000
  F   F285      1.0  0.87615  0.99605  0.24857  1.0000
  F   F286      1.0  0.86690  0.99415  0.76230  1.0000
  F   F287      1.0  0.87019  0.49907  0.25769  1.0000
  F   F288      1.0  0.86531  0.49124  0.76347  1.0000
  F   F289      1.0  0.04533  0.03108  0.02309  1.0000
  F   F290      1.0  0.03883  0.02276  0.52413  1.0000
  F   F291      1.0  0.03956  0.53466  0.01828  1.0000
  F   F292      1.0  0.03828  0.53321  0.51383  1.0000
  F   F293      1.0  0.29160  0.04121  0.02165  1.0000
  F   F294      1.0  0.29939  0.03395  0.50867  1.0000
  F   F295      1.0  0.28881  0.52785  0.03507  1.0000
  F   F296      1.0  0.30022  0.52224  0.51919  1.0000
  F   F297      1.0  0.53610  0.04453  0.03275  1.0000
  F   F298      1.0  0.54384  0.04044  0.51901  1.0000
  F   F299      1.0  0.53811  0.53697  0.02490  1.0000
  F   F300      1.0  0.53571  0.53586  0.52341  1.0000
  F   F301      1.0  0.79673  0.03366  0.02501  1.0000
  F   F302      1.0  0.79584  0.02500  0.52197  1.0000
  F   F303      1.0  0.79795  0.52857  0.01744  1.0000
  F   F304      1.0  0.79198  0.52025  0.52415  1.0000
  F   F305      1.0  0.23708  0.38279  0.23301  1.0000
  F   F306      1.0  0.23130  0.42669  0.71765  1.0000
  F   F307      1.0  0.24047  0.91616  0.20783  1.0000
  F   F308      1.0  0.23650  0.91429  0.71626  1.0000
  F   F309      1.0  0.48600  0.41257  0.22760  1.0000
  F   F310      1.0  0.48547  0.40701  0.72882  1.0000
  F   F311      1.0  0.48962  0.89942  0.24046  1.0000
  F   F312      1.0  0.48641  0.91097  0.72915  1.0000
  F   F313      1.0  0.73732  0.40419  0.22514  1.0000
  F   F314      1.0  0.73479  0.41986  0.72117  1.0000
  F   F315      1.0  0.73370  0.92819  0.21870  1.0000
  F   F316      1.0  0.73929  0.90394  0.73587  1.0000
  F   F317      1.0  0.98061  0.41134  0.23334  1.0000
  F   F318      1.0  0.98553  0.43433  0.71164  1.0000
  F   F319      1.0  0.98695  0.91587  0.22070  1.0000
  F   F320      1.0  0.98646  0.90533  0.73267  1.0000
  F   F321      1.0  0.20350  0.45485  0.46244  1.0000
  F   F322      1.0  0.21496  0.46913  0.96472  1.0000
  F   F323      1.0  0.20013  0.97170  0.49127  1.0000
  F   F324      1.0  0.20763  0.96559  0.97246  1.0000
  F   F325      1.0  0.44501  0.47974  0.48804  1.0000
  F   F326      1.0  0.45852  0.47712  0.96767  1.0000
  F   F327      1.0  0.46168  0.96929  0.47037  1.0000
  F   F328      1.0  0.45438  0.97440  0.98314  1.0000
  F   F329      1.0  0.70845  0.46328  0.48190  1.0000
  F   F330      1.0  0.71258  0.46424  0.96253  1.0000
  F   F331      1.0  0.71035  0.97414  0.46487  1.0000
  F   F332      1.0  0.69916  0.97374  0.97392  1.0000
  F   F333      1.0  0.95368  0.46363  0.47971  1.0000
  F   F334      1.0  0.95092  0.48021  0.99259  1.0000
  F   F335      1.0  0.96065  0.96940  0.46388  1.0000
  F   F336      1.0  0.95531  0.96492  0.97345  1.0000
  F   F337      1.0  0.01693  0.08903  0.26102  1.0000
  F   F338      1.0  0.01530  0.08135  0.76989  1.0000
  F   F339      1.0  0.01516  0.57285  0.28569  1.0000
  F   F340      1.0  0.01375  0.58172  0.77751  1.0000
  F   F341      1.0  0.26757  0.07442  0.27506  1.0000
  F   F342      1.0  0.26669  0.06919  0.76496  1.0000
  F   F343      1.0  0.26779  0.58136  0.27276  1.0000
  F   F344      1.0  0.26367  0.58205  0.76816  1.0000
  F   F345      1.0  0.51669  0.08874  0.26244  1.0000
  F   F346      1.0  0.51738  0.09780  0.77359  1.0000
  F   F347      1.0  0.50852  0.57482  0.29358  1.0000
  F   F348      1.0  0.52036  0.56748  0.77849  1.0000
  F   F349      1.0  0.76561  0.08595  0.27321  1.0000
  F   F350      1.0  0.76794  0.07622  0.78419  1.0000
  F   F351      1.0  0.75878  0.59267  0.28102  1.0000
  F   F352      1.0  0.76512  0.58359  0.76689  1.0000
  F   F353      1.0  0.09953  0.40249  0.46257  1.0000
  F   F354      1.0  0.09938  0.40432  0.96561  1.0000
  F   F355      1.0  0.10264  0.90075  0.46358  1.0000
  F   F356      1.0  0.09666  0.89923  0.96915  1.0000
  F   F357      1.0  0.35413  0.40007  0.47576  1.0000
  F   F358      1.0  0.35209  0.40992  0.95653  1.0000
  F   F359      1.0  0.34850  0.90486  0.46683  1.0000
  F   F360      1.0  0.35548  0.90787  0.95978  1.0000
  F   F361      1.0  0.60025  0.41914  0.45631  1.0000
  F   F362      1.0  0.59795  0.41872  0.96404  1.0000
  F   F363      1.0  0.60154  0.90929  0.47246  1.0000
  F   F364      1.0  0.59252  0.91378  0.95932  1.0000
  F   F365      1.0  0.85208  0.40900  0.47878  1.0000
  F   F366      1.0  0.85462  0.40344  0.95699  1.0000
  F   F367      1.0  0.84792  0.88538  0.45227  1.0000
  F   F368      1.0  0.85045  0.90664  0.96467  1.0000
  F   F369      1.0  0.04774  0.29838  0.27670  1.0000
  F   F370      1.0  0.04240  0.29821  0.78483  1.0000
  F   F371      1.0  0.04393  0.79531  0.29673  1.0000
  F   F372      1.0  0.04995  0.80202  0.78543  1.0000
  F   F373      1.0  0.29954  0.30389  0.28346  1.0000
  F   F374      1.0  0.29212  0.30731  0.78969  1.0000
  F   F375      1.0  0.29435  0.79690  0.29394  1.0000
  F   F376      1.0  0.29135  0.79149  0.79135  1.0000
  F   F377      1.0  0.54658  0.30353  0.28727  1.0000
  F   F378      1.0  0.55054  0.30024  0.78770  1.0000
  F   F379      1.0  0.55003  0.80377  0.29849  1.0000
  F   F380      1.0  0.54535  0.78632  0.79258  1.0000
  F   F381      1.0  0.79385  0.30264  0.29806  1.0000
  F   F382      1.0  0.78488  0.28758  0.80091  1.0000
  F   F383      1.0  0.79286  0.80589  0.27343  1.0000
  F   F384      1.0  0.80721  0.80924  0.76958  1.0000
