data_image0
_chemical_formula_structural       Hf96F384
_chemical_formula_sum              "Hf96 F384"
_cell_length_a       31.0255
_cell_length_b       15.513
_cell_length_c       15.5094
_cell_angle_alpha    63.342
_cell_angle_beta     63.342
_cell_angle_gamma    80.1625

_space_group_name_H-M_alt    "P 1"
_space_group_IT_number       1

loop_
  _space_group_symop_operation_xyz
  'x, y, z'

loop_
  _atom_site_type_symbol
  _atom_site_label
  _atom_site_symmetry_multiplicity
  _atom_site_fract_x
  _atom_site_fract_y
  _atom_site_fract_z
  _atom_site_occupancy
  Hf  Hf1       1.0  0.19397  0.11185  0.37044  1.0000
  Hf  Hf2       1.0  0.19672  0.11502  0.86482  1.0000
  Hf  Hf3       1.0  0.19729  0.61014  0.36908  1.0000
  Hf  Hf4       1.0  0.19735  0.61415  0.86646  1.0000
  Hf  Hf5       1.0  0.44401  0.10291  0.37787  1.0000
  Hf  Hf6       1.0  0.44556  0.10001  0.87970  1.0000
  Hf  Hf7       1.0  0.44813  0.60344  0.37477  1.0000
  Hf  Hf8       1.0  0.44243  0.60237  0.87784  1.0000
  Hf  Hf9       1.0  0.69642  0.10661  0.37904  1.0000
  Hf  Hf10      1.0  0.69792  0.10214  0.87547  1.0000
  Hf  Hf11      1.0  0.69750  0.59916  0.38899  1.0000
  Hf  Hf12      1.0  0.69704  0.60906  0.87569  1.0000
  Hf  Hf13      1.0  0.94367  0.10755  0.37903  1.0000
  Hf  Hf14      1.0  0.94880  0.10798  0.87383  1.0000
  Hf  Hf15      1.0  0.94835  0.61256  0.37403  1.0000
  Hf  Hf16      1.0  0.94647  0.60468  0.87678  1.0000
  Hf  Hf17      1.0  0.05403  0.40182  0.12006  1.0000
  Hf  Hf18      1.0  0.05538  0.39275  0.62177  1.0000
  Hf  Hf19      1.0  0.05211  0.90187  0.12821  1.0000
  Hf  Hf20      1.0  0.05235  0.89103  0.63025  1.0000
  Hf  Hf21      1.0  0.30030  0.38959  0.12983  1.0000
  Hf  Hf22      1.0  0.30378  0.39803  0.62116  1.0000
  Hf  Hf23      1.0  0.30309  0.89071  0.11953  1.0000
  Hf  Hf24      1.0  0.30343  0.89012  0.62496  1.0000
  Hf  Hf25      1.0  0.55588  0.39031  0.12679  1.0000
  Hf  Hf26      1.0  0.55022  0.39119  0.63124  1.0000
  Hf  Hf27      1.0  0.55048  0.89336  0.12864  1.0000
  Hf  Hf28      1.0  0.55639  0.88312  0.63322  1.0000
  Hf  Hf29      1.0  0.80244  0.39118  0.13117  1.0000
  Hf  Hf30      1.0  0.80302  0.39712  0.63329  1.0000
  Hf  Hf31      1.0  0.80219  0.88703  0.13071  1.0000
  Hf  Hf32      1.0  0.79796  0.88698  0.64198  1.0000
  Hf  Hf33      1.0  0.05528  0.19119  0.41369  1.0000
  Hf  Hf34      1.0  0.06014  0.19231  0.90691  1.0000
  Hf  Hf35      1.0  0.05930  0.68779  0.41004  1.0000
  Hf  Hf36      1.0  0.05903  0.69296  0.91151  1.0000
  Hf  Hf37      1.0  0.30403  0.18471  0.41346  1.0000
  Hf  Hf38      1.0  0.30415  0.17881  0.91325  1.0000
  Hf  Hf39      1.0  0.30725  0.68497  0.41635  1.0000
  Hf  Hf40      1.0  0.30631  0.68472  0.91405  1.0000
  Hf  Hf41      1.0  0.55612  0.18118  0.42044  1.0000
  Hf  Hf42      1.0  0.55403  0.18401  0.91571  1.0000
  Hf  Hf43      1.0  0.55956  0.67810  0.41227  1.0000
  Hf  Hf44      1.0  0.55012  0.67474  0.93011  1.0000
  Hf  Hf45      1.0  0.80422  0.18130  0.42316  1.0000
  Hf  Hf46      1.0  0.80814  0.17688  0.91811  1.0000
  Hf  Hf47      1.0  0.80593  0.67692  0.42291  1.0000
  Hf  Hf48      1.0  0.80500  0.68152  0.92338  1.0000
  Hf  Hf49      1.0  0.16334  0.39457  0.31927  1.0000
  Hf  Hf50      1.0  0.15818  0.39180  0.83273  1.0000
  Hf  Hf51      1.0  0.15991  0.89332  0.32200  1.0000
  Hf  Hf52      1.0  0.16134  0.89417  0.82147  1.0000
  Hf  Hf53      1.0  0.41107  0.38507  0.33025  1.0000
  Hf  Hf54      1.0  0.40551  0.37483  0.84524  1.0000
  Hf  Hf55      1.0  0.40580  0.89039  0.32944  1.0000
  Hf  Hf56      1.0  0.41379  0.88385  0.82928  1.0000
  Hf  Hf57      1.0  0.65751  0.39333  0.33741  1.0000
  Hf  Hf58      1.0  0.65760  0.38322  0.84034  1.0000
  Hf  Hf59      1.0  0.66085  0.88395  0.32798  1.0000
  Hf  Hf60      1.0  0.65085  0.87878  0.85084  1.0000
  Hf  Hf61      1.0  0.91022  0.39222  0.33186  1.0000
  Hf  Hf62      1.0  0.90760  0.38814  0.83442  1.0000
  Hf  Hf63      1.0  0.90509  0.88766  0.33500  1.0000
  Hf  Hf64      1.0  0.90731  0.88723  0.83916  1.0000
  Hf  Hf65      1.0  0.19413  0.31938  0.07599  1.0000
  Hf  Hf66      1.0  0.19541  0.32347  0.57668  1.0000
  Hf  Hf67      1.0  0.19200  0.82746  0.07334  1.0000
  Hf  Hf68      1.0  0.19515  0.81587  0.57669  1.0000
  Hf  Hf69      1.0  0.44574  0.30796  0.08810  1.0000
  Hf  Hf70      1.0  0.44351  0.30952  0.58687  1.0000
  Hf  Hf71      1.0  0.43902  0.80900  0.09294  1.0000
  Hf  Hf72      1.0  0.44470  0.80859  0.58459  1.0000
  Hf  Hf73      1.0  0.69623  0.31455  0.08518  1.0000
  Hf  Hf74      1.0  0.68977  0.31399  0.59507  1.0000
  Hf  Hf75      1.0  0.69327  0.81704  0.08249  1.0000
  Hf  Hf76      1.0  0.69203  0.81895  0.58795  1.0000
  Hf  Hf77      1.0  0.94558  0.31773  0.08098  1.0000
  Hf  Hf78      1.0  0.94347  0.31903  0.57862  1.0000
  Hf  Hf79      1.0  0.94280  0.81888  0.08896  1.0000
  Hf  Hf80      1.0  0.94558  0.82315  0.57075  1.0000
  Hf  Hf81      1.0  0.08945  0.12565  0.16085  1.0000
  Hf  Hf82      1.0  0.09052  0.11707  0.66273  1.0000
  Hf  Hf83      1.0  0.09248  0.61508  0.16242  1.0000
  Hf  Hf84      1.0  0.09455  0.62083  0.65698  1.0000
  Hf  Hf85      1.0  0.33907  0.10903  0.16368  1.0000
  Hf  Hf86      1.0  0.34132  0.10352  0.66749  1.0000
  Hf  Hf87      1.0  0.34177  0.61007  0.16501  1.0000
  Hf  Hf88      1.0  0.34356  0.60802  0.66315  1.0000
  Hf  Hf89      1.0  0.58945  0.11533  0.16795  1.0000
  Hf  Hf90      1.0  0.58849  0.10920  0.67561  1.0000
  Hf  Hf91      1.0  0.59102  0.60989  0.16974  1.0000
  Hf  Hf92      1.0  0.59232  0.61160  0.66856  1.0000
  Hf  Hf93      1.0  0.84491  0.11677  0.15833  1.0000
  Hf  Hf94      1.0  0.84162  0.11473  0.66402  1.0000
  Hf  Hf95      1.0  0.84230  0.61210  0.16876  1.0000
  Hf  Hf96      1.0  0.84096  0.61571  0.67242  1.0000
  F   F1        1.0  0.07483  0.14441  0.30137  1.0000
  F   F2        1.0  0.08579  0.12903  0.79918  1.0000
  F   F3        1.0  0.08182  0.63720  0.29664  1.0000
  F   F4        1.0  0.08136  0.63315  0.80360  1.0000
  F   F5        1.0  0.32608  0.11526  0.30536  1.0000
  F   F6        1.0  0.33699  0.12278  0.79745  1.0000
  F   F7        1.0  0.32850  0.62601  0.29595  1.0000
  F   F8        1.0  0.33356  0.63212  0.79581  1.0000
  F   F9        1.0  0.57484  0.14262  0.30120  1.0000
  F   F10       1.0  0.58147  0.13247  0.80429  1.0000
  F   F11       1.0  0.58487  0.62988  0.29959  1.0000
  F   F12       1.0  0.57507  0.63015  0.80674  1.0000
  F   F13       1.0  0.82920  0.14650  0.28822  1.0000
  F   F14       1.0  0.83356  0.13164  0.80016  1.0000
  F   F15       1.0  0.83010  0.62148  0.31736  1.0000
  F   F16       1.0  0.82821  0.62549  0.81613  1.0000
  F   F17       1.0  0.19705  0.36015  0.42901  1.0000
  F   F18       1.0  0.18719  0.34938  0.93262  1.0000
  F   F19       1.0  0.19513  0.83893  0.43759  1.0000
  F   F20       1.0  0.18571  0.83460  0.93907  1.0000
  F   F21       1.0  0.43287  0.33173  0.45497  1.0000
  F   F22       1.0  0.43440  0.33476  0.95308  1.0000
  F   F23       1.0  0.43842  0.84266  0.44685  1.0000
  F   F24       1.0  0.43766  0.83891  0.94423  1.0000
  F   F25       1.0  0.68175  0.33416  0.45344  1.0000
  F   F26       1.0  0.68819  0.33504  0.95029  1.0000
  F   F27       1.0  0.69043  0.84204  0.44574  1.0000
  F   F28       1.0  0.68555  0.83460  0.94268  1.0000
  F   F29       1.0  0.93527  0.33863  0.44596  1.0000
  F   F30       1.0  0.92947  0.33882  0.95188  1.0000
  F   F31       1.0  0.94086  0.83219  0.43826  1.0000
  F   F32       1.0  0.93845  0.84094  0.94400  1.0000
  F   F33       1.0  0.17479  0.37985  0.19009  1.0000
  F   F34       1.0  0.16919  0.36698  0.69570  1.0000
  F   F35       1.0  0.16703  0.87589  0.19402  1.0000
  F   F36       1.0  0.17451  0.88201  0.68374  1.0000
  F   F37       1.0  0.42358  0.35299  0.20830  1.0000
  F   F38       1.0  0.42127  0.36121  0.70677  1.0000
  F   F39       1.0  0.41531  0.86566  0.20450  1.0000
  F   F40       1.0  0.42605  0.86791  0.69090  1.0000
  F   F41       1.0  0.66612  0.36286  0.21291  1.0000
  F   F42       1.0  0.67696  0.37852  0.69900  1.0000
  F   F43       1.0  0.67436  0.87610  0.19309  1.0000
  F   F44       1.0  0.66336  0.86613  0.71458  1.0000
  F   F45       1.0  0.92183  0.36724  0.20014  1.0000
  F   F46       1.0  0.92404  0.37940  0.68592  1.0000
  F   F47       1.0  0.92201  0.88328  0.18865  1.0000
  F   F48       1.0  0.91211  0.84881  0.70228  1.0000
  F   F49       1.0  0.06136  0.16497  0.04944  1.0000
  F   F50       1.0  0.06301  0.16036  0.54812  1.0000
  F   F51       1.0  0.06079  0.65659  0.05813  1.0000
  F   F52       1.0  0.06514  0.66675  0.54375  1.0000
  F   F53       1.0  0.31203  0.15914  0.05445  1.0000
  F   F54       1.0  0.31912  0.17846  0.53523  1.0000
  F   F55       1.0  0.31298  0.64973  0.05176  1.0000
  F   F56       1.0  0.31671  0.65124  0.55296  1.0000
  F   F57       1.0  0.56838  0.17228  0.04904  1.0000
  F   F58       1.0  0.55928  0.15182  0.56603  1.0000
  F   F59       1.0  0.55948  0.64897  0.06816  1.0000
  F   F60       1.0  0.57340  0.66813  0.55098  1.0000
  F   F61       1.0  0.81826  0.15066  0.05547  1.0000
  F   F62       1.0  0.81193  0.14832  0.56504  1.0000
  F   F63       1.0  0.81307  0.64959  0.06283  1.0000
  F   F64       1.0  0.81417  0.66175  0.56359  1.0000
  F   F65       1.0  0.19767  0.20434  0.21062  1.0000
  F   F66       1.0  0.20993  0.21277  0.70759  1.0000
  F   F67       1.0  0.20474  0.71722  0.19910  1.0000
  F   F68       1.0  0.21191  0.70939  0.70470  1.0000
  F   F69       1.0  0.45722  0.19788  0.20580  1.0000
  F   F70       1.0  0.46148  0.19595  0.70752  1.0000
  F   F71       1.0  0.45087  0.68995  0.21420  1.0000
  F   F72       1.0  0.44933  0.69143  0.71839  1.0000
  F   F73       1.0  0.70495  0.19776  0.19985  1.0000
  F   F74       1.0  0.70017  0.18658  0.71581  1.0000
  F   F75       1.0  0.69505  0.69893  0.20677  1.0000
  F   F76       1.0  0.69939  0.70457  0.71242  1.0000
  F   F77       1.0  0.94694  0.19708  0.20622  1.0000
  F   F78       1.0  0.95167  0.21250  0.70388  1.0000
  F   F79       1.0  0.95962  0.69569  0.20889  1.0000
  F   F80       1.0  0.95668  0.69890  0.70999  1.0000
  F   F81       1.0  0.14633  0.10681  0.03346  1.0000
  F   F82       1.0  0.15125  0.10432  0.53599  1.0000
  F   F83       1.0  0.15076  0.60678  0.02804  1.0000
  F   F84       1.0  0.14993  0.60673  0.52271  1.0000
  F   F85       1.0  0.39887  0.10285  0.02896  1.0000
  F   F86       1.0  0.39945  0.09562  0.53101  1.0000
  F   F87       1.0  0.39702  0.60554  0.02418  1.0000
  F   F88       1.0  0.40094  0.58753  0.53907  1.0000
  F   F89       1.0  0.64855  0.08532  0.03431  1.0000
  F   F90       1.0  0.64748  0.08667  0.53611  1.0000
  F   F91       1.0  0.65202  0.58266  0.03435  1.0000
  F   F92       1.0  0.65317  0.59224  0.54729  1.0000
  F   F93       1.0  0.90301  0.08679  0.04003  1.0000
  F   F94       1.0  0.89583  0.08498  0.53634  1.0000
  F   F95       1.0  0.90152  0.58675  0.05155  1.0000
  F   F96       1.0  0.90211  0.59691  0.55244  1.0000
  F   F97       1.0  0.14918  0.20008  0.11641  1.0000
  F   F98       1.0  0.14732  0.21709  0.61318  1.0000
  F   F99       1.0  0.15008  0.70378  0.12153  1.0000
  F   F100      1.0  0.15293  0.69814  0.63303  1.0000
  F   F101      1.0  0.40517  0.18143  0.13263  1.0000
  F   F102      1.0  0.39873  0.19016  0.62290  1.0000
  F   F103      1.0  0.40472  0.67674  0.12445  1.0000
  F   F104      1.0  0.39902  0.69599  0.63091  1.0000
  F   F105      1.0  0.65425  0.17588  0.12379  1.0000
  F   F106      1.0  0.64684  0.19630  0.62366  1.0000
  F   F107      1.0  0.65238  0.68643  0.12329  1.0000
  F   F108      1.0  0.64683  0.70870  0.62434  1.0000
  F   F109      1.0  0.90180  0.20385  0.10500  1.0000
  F   F110      1.0  0.90438  0.19309  0.61214  1.0000
  F   F111      1.0  0.90189  0.69450  0.13147  1.0000
  F   F112      1.0  0.90479  0.70426  0.62206  1.0000
  F   F113      1.0  0.10470  0.30894  0.36271  1.0000
  F   F114      1.0  0.10177  0.30493  0.87802  1.0000
  F   F115      1.0  0.09911  0.80139  0.36234  1.0000
  F   F116      1.0  0.10169  0.80605  0.88369  1.0000
  F   F117      1.0  0.34448  0.30759  0.36989  1.0000
  F   F118      1.0  0.35068  0.29719  0.87055  1.0000
  F   F119      1.0  0.34355  0.79916  0.38447  1.0000
  F   F120      1.0  0.35421  0.80497  0.86829  1.0000
  F   F121      1.0  0.59432  0.31226  0.39863  1.0000
  F   F122      1.0  0.59709  0.30418  0.86754  1.0000
  F   F123      1.0  0.60323  0.79084  0.35979  1.0000
  F   F124      1.0  0.59033  0.81007  0.89012  1.0000
  F   F125      1.0  0.84593  0.29754  0.37611  1.0000
  F   F126      1.0  0.85254  0.29360  0.87851  1.0000
  F   F127      1.0  0.85209  0.80346  0.34302  1.0000
  F   F128      1.0  0.84490  0.80180  0.90224  1.0000
  F   F129      1.0  0.07025  0.26288  0.13050  1.0000
  F   F130      1.0  0.05778  0.24936  0.65895  1.0000
  F   F131      1.0  0.06161  0.76221  0.14098  1.0000
  F   F132      1.0  0.06817  0.76014  0.62402  1.0000
  F   F133      1.0  0.31806  0.25641  0.13449  1.0000
  F   F134      1.0  0.30924  0.25689  0.65241  1.0000
  F   F135      1.0  0.30837  0.74701  0.14311  1.0000
  F   F136      1.0  0.31361  0.74363  0.64784  1.0000
  F   F137      1.0  0.55414  0.25377  0.16727  1.0000
  F   F138      1.0  0.56180  0.25141  0.65126  1.0000
  F   F139      1.0  0.56959  0.75150  0.13987  1.0000
  F   F140      1.0  0.56103  0.75132  0.64858  1.0000
  F   F141      1.0  0.81193  0.25109  0.13788  1.0000
  F   F142      1.0  0.82417  0.26071  0.62114  1.0000
  F   F143      1.0  0.82485  0.75208  0.12825  1.0000
  F   F144      1.0  0.80514  0.74544  0.66461  1.0000
  F   F145      1.0  0.12996  0.37262  0.10489  1.0000
  F   F146      1.0  0.12614  0.39220  0.59359  1.0000
  F   F147      1.0  0.12734  0.88177  0.09038  1.0000
  F   F148      1.0  0.12446  0.86902  0.60128  1.0000
  F   F149      1.0  0.37066  0.35376  0.12632  1.0000
  F   F150      1.0  0.37659  0.36811  0.60085  1.0000
  F   F151      1.0  0.37377  0.85954  0.10381  1.0000
  F   F152      1.0  0.37182  0.85739  0.61686  1.0000
  F   F153      1.0  0.62536  0.35425  0.12595  1.0000
  F   F154      1.0  0.62700  0.36919  0.61679  1.0000
  F   F155      1.0  0.62428  0.87097  0.10196  1.0000
  F   F156      1.0  0.62658  0.87626  0.60218  1.0000
  F   F157      1.0  0.87720  0.37650  0.10090  1.0000
  F   F158      1.0  0.87487  0.36418  0.60768  1.0000
  F   F159      1.0  0.87216  0.86179  0.12183  1.0000
  F   F160      1.0  0.87369  0.88262  0.59327  1.0000
  F   F161      1.0  0.18662  0.25028  0.34997  1.0000
  F   F162      1.0  0.19294  0.25512  0.85219  1.0000
  F   F163      1.0  0.18881  0.75456  0.35599  1.0000
  F   F164      1.0  0.18833  0.74929  0.84699  1.0000
  F   F165      1.0  0.44422  0.23985  0.35255  1.0000
  F   F166      1.0  0.44194  0.23987  0.85532  1.0000
  F   F167      1.0  0.42656  0.74344  0.36078  1.0000
  F   F168      1.0  0.43491  0.74367  0.84968  1.0000
  F   F169      1.0  0.68645  0.25428  0.35070  1.0000
  F   F170      1.0  0.69179  0.24807  0.84914  1.0000
  F   F171      1.0  0.69015  0.74845  0.35677  1.0000
  F   F172      1.0  0.68038  0.74459  0.87476  1.0000
  F   F173      1.0  0.93673  0.25895  0.34965  1.0000
  F   F174      1.0  0.93251  0.24533  0.86451  1.0000
  F   F175      1.0  0.93586  0.74997  0.34296  1.0000
  F   F176      1.0  0.93074  0.74757  0.85868  1.0000
  F   F177      1.0  0.12194  0.11892  0.40117  1.0000
  F   F178      1.0  0.12580  0.14606  0.88122  1.0000
  F   F179      1.0  0.12538  0.62109  0.39481  1.0000
  F   F180      1.0  0.12514  0.63826  0.88393  1.0000
  F   F181      1.0  0.37760  0.13732  0.36543  1.0000
  F   F182      1.0  0.37399  0.12691  0.90033  1.0000
  F   F183      1.0  0.37232  0.61729  0.39437  1.0000
  F   F184      1.0  0.37443  0.62665  0.87557  1.0000
  F   F185      1.0  0.62588  0.15199  0.38642  1.0000
  F   F186      1.0  0.62347  0.13144  0.90142  1.0000
  F   F187      1.0  0.62665  0.61239  0.40506  1.0000
  F   F188      1.0  0.62158  0.64228  0.88908  1.0000
  F   F189      1.0  0.86779  0.12399  0.40040  1.0000
  F   F190      1.0  0.87848  0.12732  0.89516  1.0000
  F   F191      1.0  0.88057  0.62040  0.40322  1.0000
  F   F192      1.0  0.87580  0.62413  0.89980  1.0000
  F   F193      1.0  0.00500  0.36291  0.07610  1.0000
  F   F194      1.0  0.00706  0.36650  0.56923  1.0000
  F   F195      1.0  0.00342  0.87259  0.08601  1.0000
  F   F196      1.0  0.00460  0.86106  0.57408  1.0000
  F   F197      1.0  0.25812  0.35649  0.07003  1.0000
  F   F198      1.0  0.25714  0.37039  0.56467  1.0000
  F   F199      1.0  0.25757  0.87829  0.04830  1.0000
  F   F200      1.0  0.25594  0.87219  0.57269  1.0000
  F   F201      1.0  0.50804  0.36539  0.07471  1.0000
  F   F202      1.0  0.51740  0.36399  0.55339  1.0000
  F   F203      1.0  0.50524  0.87089  0.07594  1.0000
  F   F204      1.0  0.50959  0.85814  0.57802  1.0000
  F   F205      1.0  0.76065  0.36120  0.07014  1.0000
  F   F206      1.0  0.76047  0.35372  0.58013  1.0000
  F   F207      1.0  0.75680  0.85874  0.08194  1.0000
  F   F208      1.0  0.75264  0.86229  0.58983  1.0000
  F   F209      1.0  0.07201  0.48636  0.17486  1.0000
  F   F210      1.0  0.06426  0.50592  0.67995  1.0000
  F   F211      1.0  0.06887  0.99491  0.16492  1.0000
  F   F212      1.0  0.07087  0.99113  0.67106  1.0000
  F   F213      1.0  0.32462  0.48080  0.17170  1.0000
  F   F214      1.0  0.31682  0.47596  0.68588  1.0000
  F   F215      1.0  0.32751  0.98162  0.16338  1.0000
  F   F216      1.0  0.32418  0.99242  0.64944  1.0000
  F   F217      1.0  0.57664  0.48024  0.17606  1.0000
  F   F218      1.0  0.56818  0.48707  0.67122  1.0000
  F   F219      1.0  0.56523  0.99346  0.16813  1.0000
  F   F220      1.0  0.56639  0.97650  0.68278  1.0000
  F   F221      1.0  0.81951  0.48461  0.19215  1.0000
  F   F222      1.0  0.81705  0.48675  0.67821  1.0000
  F   F223      1.0  0.82002  0.98167  0.18045  1.0000
  F   F224      1.0  0.81835  0.97929  0.68035  1.0000
  F   F225      1.0  0.24014  0.14290  0.41769  1.0000
  F   F226      1.0  0.24659  0.13602  0.91217  1.0000
  F   F227      1.0  0.24182  0.65121  0.41223  1.0000
  F   F228      1.0  0.24264  0.62990  0.93937  1.0000
  F   F229      1.0  0.49276  0.14402  0.42274  1.0000
  F   F230      1.0  0.49116  0.12019  0.93929  1.0000
  F   F231      1.0  0.49792  0.64698  0.39325  1.0000
  F   F232      1.0  0.48428  0.62075  0.96255  1.0000
  F   F233      1.0  0.74251  0.12661  0.44079  1.0000
  F   F234      1.0  0.74702  0.12873  0.92461  1.0000
  F   F235      1.0  0.74339  0.62482  0.43948  1.0000
  F   F236      1.0  0.74291  0.62758  0.92492  1.0000
  F   F237      1.0  0.98807  0.13328  0.43863  1.0000
  F   F238      1.0  0.99758  0.15314  0.89834  1.0000
  F   F239      1.0  0.99377  0.64989  0.41479  1.0000
  F   F240      1.0  0.99572  0.64915  0.92634  1.0000
  F   F241      1.0  0.18175  0.01075  0.32118  1.0000
  F   F242      1.0  0.18176  0.02155  0.81376  1.0000
  F   F243      1.0  0.18284  0.51638  0.32090  1.0000
  F   F244      1.0  0.17933  0.51623  0.82261  1.0000
  F   F245      1.0  0.43071  0.00289  0.32938  1.0000
  F   F246      1.0  0.43144  0.00736  0.81778  1.0000
  F   F247      1.0  0.42811  0.51117  0.32503  1.0000
  F   F248      1.0  0.43373  0.50830  0.82712  1.0000
  F   F249      1.0  0.67202  0.01899  0.33833  1.0000
  F   F250      1.0  0.68174  0.01330  0.82404  1.0000
  F   F251      1.0  0.68433  0.51528  0.31906  1.0000
  F   F252      1.0  0.67959  0.51904  0.83564  1.0000
  F   F253      1.0  0.93229  0.00728  0.33723  1.0000
  F   F254      1.0  0.93159  0.01767  0.82954  1.0000
  F   F255      1.0  0.93227  0.51077  0.32916  1.0000
  F   F256      1.0  0.93193  0.51219  0.81840  1.0000
  F   F257      1.0  0.00833  0.26126  0.98827  1.0000
  F   F258      1.0  0.00069  0.24822  0.50495  1.0000
  F   F259      1.0  0.00028  0.76449  0.99802  1.0000
  F   F260      1.0  0.00080  0.75117  0.48848  1.0000
  F   F261      1.0  0.24893  0.23762  0.00181  1.0000
  F   F262      1.0  0.24557  0.23312  0.50766  1.0000
  F   F263      1.0  0.25653  0.76732  0.97662  1.0000
  F   F264      1.0  0.25260  0.74429  0.50616  1.0000
  F   F265      1.0  0.50442  0.25645  0.99660  1.0000
  F   F266      1.0  0.49874  0.24237  0.51141  1.0000
  F   F267      1.0  0.49751  0.75341  0.00577  1.0000
  F   F268      1.0  0.50192  0.74310  0.49705  1.0000
  F   F269      1.0  0.75940  0.24557  0.99691  1.0000
  F   F270      1.0  0.74971  0.25398  0.50348  1.0000
  F   F271      1.0  0.74518  0.74169  0.99927  1.0000
  F   F272      1.0  0.75397  0.75218  0.50057  1.0000
  F   F273      1.0  0.12207  0.00753  0.24432  1.0000
  F   F274      1.0  0.12555  0.99882  0.73468  1.0000
  F   F275      1.0  0.12533  0.50662  0.24711  1.0000
  F   F276      1.0  0.13429  0.50924  0.73005  1.0000
  F   F277      1.0  0.37250  0.99640  0.25017  1.0000
  F   F278      1.0  0.37368  0.99551  0.74997  1.0000
  F   F279      1.0  0.38698  0.50397  0.23420  1.0000
  F   F280      1.0  0.37862  0.49263  0.74850  1.0000
  F   F281      1.0  0.61487  0.98354  0.26126  1.0000
  F   F282      1.0  0.62543  0.00737  0.75198  1.0000
  F   F283      1.0  0.62629  0.50498  0.25336  1.0000
  F   F284      1.0  0.63207  0.50395  0.75411  1.0000
  F   F285      1.0  0.87798  0.01106  0.25383  1.0000
  F   F286      1.0  0.87864  0.98729  0.74441  1.0000
  F   F287      1.0  0.87387  0.49112  0.25686  1.0000
  F   F288      1.0  0.86917  0.49784  0.75712  1.0000
  F   F289      1.0  0.03746  0.04302  0.01832  1.0000
  F   F290      1.0  0.04926  0.02313  0.52383  1.0000
  F   F291      1.0  0.04728  0.53445  0.01372  1.0000
  F   F292      1.0  0.05083  0.52241  0.50639  1.0000
  F   F293      1.0  0.29411  0.02982  0.02601  1.0000
  F   F294      1.0  0.29162  0.03874  0.51844  1.0000
  F   F295      1.0  0.29110  0.52725  0.01761  1.0000
  F   F296      1.0  0.28667  0.53014  0.52512  1.0000
  F   F297      1.0  0.54339  0.03105  0.03331  1.0000
  F   F298      1.0  0.55194  0.02182  0.52255  1.0000
  F   F299      1.0  0.54702  0.52180  0.01597  1.0000
  F   F300      1.0  0.53281  0.54195  0.52417  1.0000
  F   F301      1.0  0.79803  0.02781  0.03285  1.0000
  F   F302      1.0  0.79712  0.03168  0.52176  1.0000
  F   F303      1.0  0.79573  0.52956  0.02602  1.0000
  F   F304      1.0  0.79416  0.53519  0.52793  1.0000
  F   F305      1.0  0.23413  0.41946  0.22441  1.0000
  F   F306      1.0  0.23453  0.40573  0.72856  1.0000
  F   F307      1.0  0.23772  0.92677  0.20852  1.0000
  F   F308      1.0  0.23667  0.90702  0.73331  1.0000
  F   F309      1.0  0.48924  0.39827  0.24343  1.0000
  F   F310      1.0  0.48296  0.41449  0.71918  1.0000
  F   F311      1.0  0.48248  0.89623  0.23162  1.0000
  F   F312      1.0  0.48639  0.90896  0.72733  1.0000
  F   F313      1.0  0.73568  0.40945  0.22899  1.0000
  F   F314      1.0  0.73682  0.41985  0.73218  1.0000
  F   F315      1.0  0.73559  0.92539  0.22200  1.0000
  F   F316      1.0  0.73019  0.92261  0.73100  1.0000
  F   F317      1.0  0.98672  0.42807  0.22133  1.0000
  F   F318      1.0  0.99015  0.40018  0.72872  1.0000
  F   F319      1.0  0.98916  0.91805  0.23225  1.0000
  F   F320      1.0  0.98279  0.89884  0.72874  1.0000
  F   F321      1.0  0.20362  0.48160  0.47306  1.0000
  F   F322      1.0  0.20523  0.47616  0.98015  1.0000
  F   F323      1.0  0.20568  0.96768  0.48164  1.0000
  F   F324      1.0  0.20180  0.97414  0.97204  1.0000
  F   F325      1.0  0.45792  0.45552  0.48331  1.0000
  F   F326      1.0  0.44505  0.46026  0.99828  1.0000
  F   F327      1.0  0.46146  0.96802  0.46393  1.0000
  F   F328      1.0  0.45348  0.96349  0.98749  1.0000
  F   F329      1.0  0.70433  0.46203  0.48450  1.0000
  F   F330      1.0  0.71116  0.46463  0.98410  1.0000
  F   F331      1.0  0.71275  0.96736  0.47450  1.0000
  F   F332      1.0  0.71529  0.96006  0.96351  1.0000
  F   F333      1.0  0.95501  0.47292  0.47403  1.0000
  F   F334      1.0  0.95750  0.47118  0.97198  1.0000
  F   F335      1.0  0.96178  0.97212  0.46801  1.0000
  F   F336      1.0  0.95365  0.97203  0.98703  1.0000
  F   F337      1.0  0.00744  0.10730  0.27079  1.0000
  F   F338      1.0  0.01307  0.09340  0.75799  1.0000
  F   F339      1.0  0.01776  0.57320  0.28296  1.0000
  F   F340      1.0  0.01668  0.58782  0.78694  1.0000
  F   F341      1.0  0.26357  0.09851  0.26012  1.0000
  F   F342      1.0  0.26680  0.08211  0.77255  1.0000
  F   F343      1.0  0.26260  0.57459  0.27317  1.0000
  F   F344      1.0  0.26327  0.57980  0.77467  1.0000
  F   F345      1.0  0.51098  0.08321  0.27806  1.0000
  F   F346      1.0  0.51717  0.08023  0.78447  1.0000
  F   F347      1.0  0.51701  0.55802  0.28812  1.0000
  F   F348      1.0  0.51374  0.58241  0.78495  1.0000
  F   F349      1.0  0.76430  0.08393  0.28135  1.0000
  F   F350      1.0  0.76628  0.09334  0.76877  1.0000
  F   F351      1.0  0.76726  0.59695  0.27866  1.0000
  F   F352      1.0  0.76713  0.58223  0.77250  1.0000
  F   F353      1.0  0.10390  0.39182  0.46870  1.0000
  F   F354      1.0  0.09754  0.40811  0.97241  1.0000
  F   F355      1.0  0.10714  0.89464  0.45255  1.0000
  F   F356      1.0  0.10742  0.93705  0.94864  1.0000
  F   F357      1.0  0.35246  0.42143  0.45767  1.0000
  F   F358      1.0  0.35125  0.40216  0.96495  1.0000
  F   F359      1.0  0.35125  0.90993  0.46391  1.0000
  F   F360      1.0  0.35171  0.90532  0.96279  1.0000
  F   F361      1.0  0.60391  0.43361  0.46866  1.0000
  F   F362      1.0  0.60696  0.40710  0.96571  1.0000
  F   F363      1.0  0.60456  0.89573  0.45747  1.0000
  F   F364      1.0  0.59580  0.91210  0.96277  1.0000
  F   F365      1.0  0.84948  0.41345  0.45000  1.0000
  F   F366      1.0  0.85222  0.41168  0.95851  1.0000
  F   F367      1.0  0.84945  0.88069  0.46566  1.0000
  F   F368      1.0  0.85544  0.92022  0.96036  1.0000
  F   F369      1.0  0.04210  0.29933  0.29226  1.0000
  F   F370      1.0  0.05635  0.31094  0.78320  1.0000
  F   F371      1.0  0.04890  0.81165  0.27629  1.0000
  F   F372      1.0  0.04894  0.80897  0.78763  1.0000
  F   F373      1.0  0.29229  0.30151  0.28005  1.0000
  F   F374      1.0  0.29949  0.29647  0.78935  1.0000
  F   F375      1.0  0.29321  0.80353  0.28341  1.0000
  F   F376      1.0  0.29750  0.80415  0.78299  1.0000
  F   F377      1.0  0.55227  0.30076  0.30234  1.0000
  F   F378      1.0  0.54003  0.30100  0.80141  1.0000
  F   F379      1.0  0.54676  0.80244  0.29060  1.0000
  F   F380      1.0  0.53573  0.79449  0.80628  1.0000
  F   F381      1.0  0.79685  0.30886  0.28650  1.0000
  F   F382      1.0  0.79549  0.30245  0.78641  1.0000
  F   F383      1.0  0.79445  0.78796  0.28272  1.0000
  F   F384      1.0  0.79676  0.79937  0.80187  1.0000
