data_image0
_chemical_formula_structural       Hf96F384
_chemical_formula_sum              "Hf96 F384"
_cell_length_a       31.0115
_cell_length_b       15.5058
_cell_length_c       15.4972
_cell_angle_alpha    63.342
_cell_angle_beta     63.342
_cell_angle_gamma    80.1625

_space_group_name_H-M_alt    "P 1"
_space_group_IT_number       1

loop_
  _space_group_symop_operation_xyz
  'x, y, z'

loop_
  _atom_site_type_symbol
  _atom_site_label
  _atom_site_symmetry_multiplicity
  _atom_site_fract_x
  _atom_site_fract_y
  _atom_site_fract_z
  _atom_site_occupancy
  Hf  Hf1       1.0  0.19489  0.10725  0.37493  1.0000
  Hf  Hf2       1.0  0.19739  0.11228  0.86866  1.0000
  Hf  Hf3       1.0  0.19821  0.60660  0.37909  1.0000
  Hf  Hf4       1.0  0.19895  0.60630  0.87483  1.0000
  Hf  Hf5       1.0  0.44858  0.11039  0.37090  1.0000
  Hf  Hf6       1.0  0.44875  0.11131  0.86605  1.0000
  Hf  Hf7       1.0  0.44556  0.61071  0.37998  1.0000
  Hf  Hf8       1.0  0.44523  0.60213  0.88429  1.0000
  Hf  Hf9       1.0  0.69444  0.10135  0.37435  1.0000
  Hf  Hf10      1.0  0.69525  0.10318  0.88011  1.0000
  Hf  Hf11      1.0  0.69676  0.60368  0.37298  1.0000
  Hf  Hf12      1.0  0.69165  0.60423  0.88756  1.0000
  Hf  Hf13      1.0  0.94518  0.08831  0.37510  1.0000
  Hf  Hf14      1.0  0.94792  0.11339  0.87038  1.0000
  Hf  Hf15      1.0  0.94700  0.60255  0.37327  1.0000
  Hf  Hf16      1.0  0.94594  0.61208  0.87355  1.0000
  Hf  Hf17      1.0  0.05204  0.39485  0.12484  1.0000
  Hf  Hf18      1.0  0.05429  0.39866  0.61672  1.0000
  Hf  Hf19      1.0  0.05265  0.90019  0.12239  1.0000
  Hf  Hf20      1.0  0.05390  0.89671  0.62241  1.0000
  Hf  Hf21      1.0  0.30263  0.39211  0.12566  1.0000
  Hf  Hf22      1.0  0.30326  0.38873  0.62924  1.0000
  Hf  Hf23      1.0  0.30146  0.89216  0.12479  1.0000
  Hf  Hf24      1.0  0.30192  0.90486  0.61936  1.0000
  Hf  Hf25      1.0  0.55204  0.39467  0.12954  1.0000
  Hf  Hf26      1.0  0.55513  0.39804  0.61871  1.0000
  Hf  Hf27      1.0  0.54985  0.88846  0.13447  1.0000
  Hf  Hf28      1.0  0.55784  0.89250  0.62467  1.0000
  Hf  Hf29      1.0  0.80550  0.38736  0.12484  1.0000
  Hf  Hf30      1.0  0.80029  0.38748  0.63554  1.0000
  Hf  Hf31      1.0  0.80700  0.89001  0.12506  1.0000
  Hf  Hf32      1.0  0.80377  0.89484  0.62263  1.0000
  Hf  Hf33      1.0  0.05537  0.18528  0.41215  1.0000
  Hf  Hf34      1.0  0.05645  0.19125  0.91138  1.0000
  Hf  Hf35      1.0  0.05634  0.68719  0.40837  1.0000
  Hf  Hf36      1.0  0.05907  0.68173  0.90966  1.0000
  Hf  Hf37      1.0  0.30568  0.19421  0.40565  1.0000
  Hf  Hf38      1.0  0.30570  0.18004  0.92083  1.0000
  Hf  Hf39      1.0  0.30663  0.68482  0.41332  1.0000
  Hf  Hf40      1.0  0.30785  0.68727  0.91559  1.0000
  Hf  Hf41      1.0  0.55518  0.18060  0.42028  1.0000
  Hf  Hf42      1.0  0.55599  0.18227  0.91234  1.0000
  Hf  Hf43      1.0  0.55484  0.68162  0.41897  1.0000
  Hf  Hf44      1.0  0.55624  0.67963  0.91909  1.0000
  Hf  Hf45      1.0  0.80094  0.17739  0.42269  1.0000
  Hf  Hf46      1.0  0.80392  0.18271  0.92032  1.0000
  Hf  Hf47      1.0  0.80443  0.67677  0.42480  1.0000
  Hf  Hf48      1.0  0.80587  0.68310  0.91103  1.0000
  Hf  Hf49      1.0  0.15812  0.38788  0.32934  1.0000
  Hf  Hf50      1.0  0.15805  0.38670  0.83299  1.0000
  Hf  Hf51      1.0  0.15493  0.89019  0.33675  1.0000
  Hf  Hf52      1.0  0.15819  0.89139  0.83713  1.0000
  Hf  Hf53      1.0  0.40941  0.38566  0.33618  1.0000
  Hf  Hf54      1.0  0.40804  0.39107  0.83475  1.0000
  Hf  Hf55      1.0  0.40507  0.88585  0.34181  1.0000
  Hf  Hf56      1.0  0.41215  0.88806  0.82770  1.0000
  Hf  Hf57      1.0  0.66145  0.38688  0.33035  1.0000
  Hf  Hf58      1.0  0.66083  0.38542  0.83339  1.0000
  Hf  Hf59      1.0  0.66083  0.88234  0.33331  1.0000
  Hf  Hf60      1.0  0.65815  0.89036  0.84427  1.0000
  Hf  Hf61      1.0  0.90832  0.38072  0.33564  1.0000
  Hf  Hf62      1.0  0.90693  0.38950  0.83354  1.0000
  Hf  Hf63      1.0  0.90861  0.87812  0.33963  1.0000
  Hf  Hf64      1.0  0.91133  0.89009  0.83222  1.0000
  Hf  Hf65      1.0  0.19514  0.32256  0.07761  1.0000
  Hf  Hf66      1.0  0.19738  0.31731  0.57870  1.0000
  Hf  Hf67      1.0  0.19313  0.82446  0.08167  1.0000
  Hf  Hf68      1.0  0.19206  0.81821  0.58815  1.0000
  Hf  Hf69      1.0  0.44466  0.32228  0.08097  1.0000
  Hf  Hf70      1.0  0.44369  0.32067  0.58390  1.0000
  Hf  Hf71      1.0  0.44259  0.81983  0.07797  1.0000
  Hf  Hf72      1.0  0.44280  0.81997  0.58612  1.0000
  Hf  Hf73      1.0  0.69580  0.31506  0.08080  1.0000
  Hf  Hf74      1.0  0.69319  0.31336  0.58504  1.0000
  Hf  Hf75      1.0  0.69662  0.81147  0.08885  1.0000
  Hf  Hf76      1.0  0.69634  0.81083  0.58743  1.0000
  Hf  Hf77      1.0  0.94365  0.32377  0.07735  1.0000
  Hf  Hf78      1.0  0.94126  0.31958  0.58142  1.0000
  Hf  Hf79      1.0  0.94562  0.81781  0.08125  1.0000
  Hf  Hf80      1.0  0.94365  0.81150  0.58783  1.0000
  Hf  Hf81      1.0  0.09472  0.11798  0.16079  1.0000
  Hf  Hf82      1.0  0.09357  0.11530  0.66233  1.0000
  Hf  Hf83      1.0  0.09145  0.61408  0.16041  1.0000
  Hf  Hf84      1.0  0.09101  0.61008  0.66512  1.0000
  Hf  Hf85      1.0  0.34416  0.11276  0.15816  1.0000
  Hf  Hf86      1.0  0.33656  0.11098  0.67406  1.0000
  Hf  Hf87      1.0  0.33992  0.61192  0.16630  1.0000
  Hf  Hf88      1.0  0.34048  0.61558  0.66202  1.0000
  Hf  Hf89      1.0  0.59012  0.11597  0.16854  1.0000
  Hf  Hf90      1.0  0.58944  0.11234  0.66588  1.0000
  Hf  Hf91      1.0  0.58752  0.61003  0.17498  1.0000
  Hf  Hf92      1.0  0.59164  0.61226  0.66803  1.0000
  Hf  Hf93      1.0  0.84307  0.11060  0.16856  1.0000
  Hf  Hf94      1.0  0.84405  0.10952  0.66679  1.0000
  Hf  Hf95      1.0  0.84496  0.60660  0.16630  1.0000
  Hf  Hf96      1.0  0.84079  0.60868  0.67430  1.0000
  F   F1        1.0  0.08289  0.13581  0.29670  1.0000
  F   F2        1.0  0.08059  0.12293  0.80310  1.0000
  F   F3        1.0  0.08033  0.64064  0.29441  1.0000
  F   F4        1.0  0.07263  0.60435  0.81571  1.0000
  F   F5        1.0  0.33148  0.14048  0.29594  1.0000
  F   F6        1.0  0.32682  0.13580  0.80457  1.0000
  F   F7        1.0  0.32683  0.63626  0.29471  1.0000
  F   F8        1.0  0.32842  0.64182  0.79659  1.0000
  F   F9        1.0  0.57845  0.14249  0.29501  1.0000
  F   F10       1.0  0.57622  0.14368  0.79580  1.0000
  F   F11       1.0  0.57631  0.61893  0.31646  1.0000
  F   F12       1.0  0.57506  0.61903  0.81360  1.0000
  F   F13       1.0  0.82315  0.11800  0.31079  1.0000
  F   F14       1.0  0.83143  0.13398  0.79990  1.0000
  F   F15       1.0  0.82901  0.61257  0.31427  1.0000
  F   F16       1.0  0.82950  0.62613  0.81121  1.0000
  F   F17       1.0  0.18434  0.34342  0.44487  1.0000
  F   F18       1.0  0.18813  0.34023  0.93808  1.0000
  F   F19       1.0  0.18244  0.84348  0.45533  1.0000
  F   F20       1.0  0.18463  0.83862  0.94638  1.0000
  F   F21       1.0  0.43312  0.33539  0.45034  1.0000
  F   F22       1.0  0.42863  0.33715  0.95819  1.0000
  F   F23       1.0  0.43536  0.84761  0.44684  1.0000
  F   F24       1.0  0.43394  0.83623  0.94790  1.0000
  F   F25       1.0  0.68974  0.33150  0.44745  1.0000
  F   F26       1.0  0.69501  0.34765  0.93929  1.0000
  F   F27       1.0  0.68334  0.83884  0.44829  1.0000
  F   F28       1.0  0.68571  0.82713  0.96099  1.0000
  F   F29       1.0  0.93501  0.33627  0.44873  1.0000
  F   F30       1.0  0.93022  0.33537  0.94752  1.0000
  F   F31       1.0  0.93413  0.82647  0.45262  1.0000
  F   F32       1.0  0.93751  0.83881  0.94989  1.0000
  F   F33       1.0  0.16990  0.36604  0.19753  1.0000
  F   F34       1.0  0.17654  0.37948  0.68953  1.0000
  F   F35       1.0  0.16572  0.88275  0.19380  1.0000
  F   F36       1.0  0.16567  0.86771  0.70524  1.0000
  F   F37       1.0  0.42692  0.39207  0.17653  1.0000
  F   F38       1.0  0.42345  0.38132  0.68549  1.0000
  F   F39       1.0  0.41197  0.86374  0.21471  1.0000
  F   F40       1.0  0.42597  0.88323  0.68849  1.0000
  F   F41       1.0  0.66959  0.37329  0.20101  1.0000
  F   F42       1.0  0.67001  0.36524  0.70324  1.0000
  F   F43       1.0  0.67280  0.87651  0.19534  1.0000
  F   F44       1.0  0.67343  0.86617  0.69693  1.0000
  F   F45       1.0  0.91609  0.35305  0.20957  1.0000
  F   F46       1.0  0.92174  0.37651  0.68822  1.0000
  F   F47       1.0  0.92124  0.87957  0.18543  1.0000
  F   F48       1.0  0.92091  0.87553  0.69322  1.0000
  F   F49       1.0  0.06739  0.16662  0.04083  1.0000
  F   F50       1.0  0.05998  0.15068  0.55587  1.0000
  F   F51       1.0  0.06350  0.66345  0.05400  1.0000
  F   F52       1.0  0.06727  0.66943  0.54976  1.0000
  F   F53       1.0  0.31038  0.15709  0.06047  1.0000
  F   F54       1.0  0.31751  0.17255  0.55013  1.0000
  F   F55       1.0  0.31361  0.65144  0.05786  1.0000
  F   F56       1.0  0.31120  0.65556  0.56331  1.0000
  F   F57       1.0  0.56945  0.16435  0.03606  1.0000
  F   F58       1.0  0.55785  0.14408  0.56278  1.0000
  F   F59       1.0  0.56384  0.66322  0.05410  1.0000
  F   F60       1.0  0.56188  0.65414  0.56158  1.0000
  F   F61       1.0  0.81518  0.17055  0.04578  1.0000
  F   F62       1.0  0.81234  0.15100  0.56371  1.0000
  F   F63       1.0  0.81423  0.65520  0.05987  1.0000
  F   F64       1.0  0.81274  0.64990  0.56114  1.0000
  F   F65       1.0  0.19833  0.19627  0.21450  1.0000
  F   F66       1.0  0.20994  0.20890  0.70909  1.0000
  F   F67       1.0  0.20804  0.71385  0.20044  1.0000
  F   F68       1.0  0.20897  0.70212  0.69861  1.0000
  F   F69       1.0  0.45501  0.21079  0.21219  1.0000
  F   F70       1.0  0.45390  0.19736  0.70761  1.0000
  F   F71       1.0  0.45708  0.70653  0.20143  1.0000
  F   F72       1.0  0.44846  0.70152  0.70332  1.0000
  F   F73       1.0  0.69114  0.19931  0.21899  1.0000
  F   F74       1.0  0.70771  0.19381  0.71820  1.0000
  F   F75       1.0  0.70117  0.69326  0.21267  1.0000
  F   F76       1.0  0.71402  0.70556  0.70689  1.0000
  F   F77       1.0  0.95768  0.19659  0.19343  1.0000
  F   F78       1.0  0.95696  0.20905  0.70282  1.0000
  F   F79       1.0  0.95482  0.71041  0.21866  1.0000
  F   F80       1.0  0.96120  0.70996  0.70666  1.0000
  F   F81       1.0  0.15114  0.09843  0.03695  1.0000
  F   F82       1.0  0.15192  0.09560  0.54381  1.0000
  F   F83       1.0  0.15355  0.59193  0.03704  1.0000
  F   F84       1.0  0.15128  0.59421  0.53865  1.0000
  F   F85       1.0  0.40116  0.09496  0.02857  1.0000
  F   F86       1.0  0.39128  0.08970  0.53796  1.0000
  F   F87       1.0  0.39962  0.60496  0.03412  1.0000
  F   F88       1.0  0.39870  0.58978  0.53533  1.0000
  F   F89       1.0  0.64870  0.08046  0.03704  1.0000
  F   F90       1.0  0.65108  0.08596  0.54469  1.0000
  F   F91       1.0  0.64280  0.56976  0.04165  1.0000
  F   F92       1.0  0.65033  0.60340  0.54412  1.0000
  F   F93       1.0  0.89978  0.09104  0.04914  1.0000
  F   F94       1.0  0.89938  0.08163  0.53966  1.0000
  F   F95       1.0  0.90066  0.57615  0.03426  1.0000
  F   F96       1.0  0.89896  0.59833  0.53709  1.0000
  F   F97       1.0  0.14895  0.20665  0.11282  1.0000
  F   F98       1.0  0.15798  0.19084  0.63374  1.0000
  F   F99       1.0  0.14809  0.70762  0.13016  1.0000
  F   F100      1.0  0.15206  0.69287  0.63024  1.0000
  F   F101      1.0  0.40546  0.19894  0.11777  1.0000
  F   F102      1.0  0.39694  0.20410  0.61411  1.0000
  F   F103      1.0  0.39675  0.70177  0.12880  1.0000
  F   F104      1.0  0.39851  0.70253  0.61086  1.0000
  F   F105      1.0  0.65443  0.20015  0.11192  1.0000
  F   F106      1.0  0.65458  0.19258  0.63104  1.0000
  F   F107      1.0  0.64566  0.68217  0.12984  1.0000
  F   F108      1.0  0.65146  0.69079  0.64673  1.0000
  F   F109      1.0  0.89828  0.20108  0.13115  1.0000
  F   F110      1.0  0.90449  0.19346  0.61952  1.0000
  F   F111      1.0  0.90420  0.68981  0.12396  1.0000
  F   F112      1.0  0.90246  0.69617  0.63279  1.0000
  F   F113      1.0  0.09532  0.29610  0.37943  1.0000
  F   F114      1.0  0.09757  0.31344  0.85722  1.0000
  F   F115      1.0  0.09708  0.81532  0.37424  1.0000
  F   F116      1.0  0.09786  0.80673  0.88353  1.0000
  F   F117      1.0  0.34983  0.31366  0.35377  1.0000
  F   F118      1.0  0.35338  0.30080  0.88066  1.0000
  F   F119      1.0  0.34705  0.79292  0.40702  1.0000
  F   F120      1.0  0.35701  0.78844  0.87901  1.0000
  F   F121      1.0  0.60024  0.28689  0.38225  1.0000
  F   F122      1.0  0.59835  0.28759  0.86615  1.0000
  F   F123      1.0  0.60547  0.79700  0.36836  1.0000
  F   F124      1.0  0.60172  0.80293  0.87557  1.0000
  F   F125      1.0  0.84296  0.28727  0.38453  1.0000
  F   F126      1.0  0.84976  0.29599  0.86554  1.0000
  F   F127      1.0  0.84983  0.79380  0.37871  1.0000
  F   F128      1.0  0.84621  0.79414  0.88739  1.0000
  F   F129      1.0  0.06180  0.25407  0.13136  1.0000
  F   F130      1.0  0.07442  0.25295  0.62456  1.0000
  F   F131      1.0  0.05836  0.75403  0.14146  1.0000
  F   F132      1.0  0.06295  0.73981  0.65963  1.0000
  F   F133      1.0  0.31951  0.26010  0.12697  1.0000
  F   F134      1.0  0.29952  0.24747  0.66602  1.0000
  F   F135      1.0  0.31697  0.75173  0.13631  1.0000
  F   F136      1.0  0.31249  0.76924  0.63351  1.0000
  F   F137      1.0  0.56635  0.25094  0.13418  1.0000
  F   F138      1.0  0.57471  0.25549  0.61325  1.0000
  F   F139      1.0  0.56292  0.75081  0.14320  1.0000
  F   F140      1.0  0.57423  0.75449  0.64140  1.0000
  F   F141      1.0  0.82282  0.25087  0.12850  1.0000
  F   F142      1.0  0.81755  0.25308  0.63852  1.0000
  F   F143      1.0  0.82240  0.74675  0.14332  1.0000
  F   F144      1.0  0.81622  0.74210  0.65541  1.0000
  F   F145      1.0  0.12494  0.38355  0.10294  1.0000
  F   F146      1.0  0.12884  0.38241  0.59044  1.0000
  F   F147      1.0  0.12410  0.87504  0.10839  1.0000
  F   F148      1.0  0.12426  0.87873  0.60436  1.0000
  F   F149      1.0  0.37285  0.37536  0.10995  1.0000
  F   F150      1.0  0.37470  0.37407  0.59495  1.0000
  F   F151      1.0  0.37260  0.88559  0.10052  1.0000
  F   F152      1.0  0.37332  0.86726  0.62225  1.0000
  F   F153      1.0  0.62326  0.35923  0.11648  1.0000
  F   F154      1.0  0.62518  0.36014  0.61349  1.0000
  F   F155      1.0  0.62456  0.85438  0.11424  1.0000
  F   F156      1.0  0.62703  0.87323  0.60258  1.0000
  F   F157      1.0  0.87785  0.37960  0.09114  1.0000
  F   F158      1.0  0.86920  0.35560  0.62511  1.0000
  F   F159      1.0  0.87516  0.87894  0.10409  1.0000
  F   F160      1.0  0.87538  0.86964  0.60964  1.0000
  F   F161      1.0  0.17249  0.24818  0.36838  1.0000
  F   F162      1.0  0.18069  0.24668  0.85639  1.0000
  F   F163      1.0  0.18017  0.75144  0.36188  1.0000
  F   F164      1.0  0.18928  0.75276  0.84951  1.0000
  F   F165      1.0  0.42965  0.24314  0.36619  1.0000
  F   F166      1.0  0.43993  0.25364  0.84810  1.0000
  F   F167      1.0  0.43885  0.74662  0.36320  1.0000
  F   F168      1.0  0.44247  0.74944  0.83902  1.0000
  F   F169      1.0  0.68388  0.24482  0.36030  1.0000
  F   F170      1.0  0.68175  0.24474  0.86877  1.0000
  F   F171      1.0  0.69548  0.74624  0.34152  1.0000
  F   F172      1.0  0.68248  0.74698  0.85969  1.0000
  F   F173      1.0  0.93004  0.23932  0.36771  1.0000
  F   F174      1.0  0.94002  0.25368  0.84706  1.0000
  F   F175      1.0  0.93851  0.74912  0.35297  1.0000
  F   F176      1.0  0.92986  0.74680  0.86696  1.0000
  F   F177      1.0  0.12344  0.11229  0.40809  1.0000
  F   F178      1.0  0.12358  0.13490  0.88979  1.0000
  F   F179      1.0  0.12646  0.63990  0.37486  1.0000
  F   F180      1.0  0.12737  0.62670  0.88665  1.0000
  F   F181      1.0  0.37434  0.12158  0.39128  1.0000
  F   F182      1.0  0.37663  0.14112  0.88882  1.0000
  F   F183      1.0  0.37532  0.64493  0.37445  1.0000
  F   F184      1.0  0.37528  0.61573  0.89431  1.0000
  F   F185      1.0  0.62154  0.11609  0.40030  1.0000
  F   F186      1.0  0.62712  0.11215  0.88981  1.0000
  F   F187      1.0  0.62696  0.62501  0.40056  1.0000
  F   F188      1.0  0.62912  0.64546  0.87679  1.0000
  F   F189      1.0  0.87578  0.10678  0.39475  1.0000
  F   F190      1.0  0.87754  0.11677  0.90001  1.0000
  F   F191      1.0  0.87665  0.62607  0.39053  1.0000
  F   F192      1.0  0.87550  0.63414  0.88812  1.0000
  F   F193      1.0  0.00481  0.37229  0.08035  1.0000
  F   F194      1.0  0.00982  0.36337  0.57244  1.0000
  F   F195      1.0  0.00551  0.86703  0.06404  1.0000
  F   F196      1.0  0.00687  0.85904  0.57975  1.0000
  F   F197      1.0  0.25037  0.34917  0.10893  1.0000
  F   F198      1.0  0.26115  0.36933  0.56125  1.0000
  F   F199      1.0  0.25835  0.86475  0.07252  1.0000
  F   F200      1.0  0.25361  0.86775  0.57168  1.0000
  F   F201      1.0  0.50850  0.37062  0.06987  1.0000
  F   F202      1.0  0.50652  0.35652  0.57658  1.0000
  F   F203      1.0  0.50517  0.86789  0.07377  1.0000
  F   F204      1.0  0.51211  0.84935  0.57907  1.0000
  F   F205      1.0  0.76282  0.35114  0.07850  1.0000
  F   F206      1.0  0.75457  0.35681  0.58532  1.0000
  F   F207      1.0  0.76105  0.84767  0.08284  1.0000
  F   F208      1.0  0.75879  0.87584  0.56765  1.0000
  F   F209      1.0  0.06808  0.48896  0.17220  1.0000
  F   F210      1.0  0.06938  0.48770  0.67227  1.0000
  F   F211      1.0  0.06971  0.99348  0.17177  1.0000
  F   F212      1.0  0.06370  0.98872  0.68272  1.0000
  F   F213      1.0  0.31609  0.48895  0.18357  1.0000
  F   F214      1.0  0.31808  0.48392  0.67809  1.0000
  F   F215      1.0  0.31540  0.98434  0.17916  1.0000
  F   F216      1.0  0.31474  0.97925  0.68283  1.0000
  F   F217      1.0  0.56577  0.49191  0.17869  1.0000
  F   F218      1.0  0.57052  0.48151  0.69186  1.0000
  F   F219      1.0  0.56180  0.98612  0.17412  1.0000
  F   F220      1.0  0.57105  0.98125  0.68107  1.0000
  F   F221      1.0  0.81769  0.47673  0.18383  1.0000
  F   F222      1.0  0.81677  0.48021  0.67153  1.0000
  F   F223      1.0  0.81516  0.98867  0.18336  1.0000
  F   F224      1.0  0.81729  0.97564  0.68097  1.0000
  F   F225      1.0  0.24160  0.14959  0.41527  1.0000
  F   F226      1.0  0.24161  0.14755  0.91548  1.0000
  F   F227      1.0  0.23933  0.64680  0.42926  1.0000
  F   F228      1.0  0.24451  0.63422  0.92068  1.0000
  F   F229      1.0  0.49253  0.13409  0.43154  1.0000
  F   F230      1.0  0.49308  0.14026  0.91727  1.0000
  F   F231      1.0  0.49057  0.63435  0.43846  1.0000
  F   F232      1.0  0.49180  0.63500  0.94332  1.0000
  F   F233      1.0  0.74126  0.12411  0.43227  1.0000
  F   F234      1.0  0.74152  0.13790  0.92704  1.0000
  F   F235      1.0  0.74527  0.64257  0.41240  1.0000
  F   F236      1.0  0.73407  0.64212  0.93873  1.0000
  F   F237      1.0  0.99613  0.13665  0.40944  1.0000
  F   F238      1.0  0.99007  0.13799  0.93967  1.0000
  F   F239      1.0  0.99693  0.63333  0.41965  1.0000
  F   F240      1.0  0.99118  0.63564  0.93572  1.0000
  F   F241      1.0  0.17919  0.01050  0.33227  1.0000
  F   F242      1.0  0.18385  0.02096  0.81482  1.0000
  F   F243      1.0  0.17889  0.52863  0.31658  1.0000
  F   F244      1.0  0.18178  0.51455  0.82773  1.0000
  F   F245      1.0  0.43094  0.02125  0.32797  1.0000
  F   F246      1.0  0.43350  0.01228  0.81775  1.0000
  F   F247      1.0  0.42941  0.51325  0.33784  1.0000
  F   F248      1.0  0.43557  0.50813  0.83072  1.0000
  F   F249      1.0  0.68583  0.01328  0.31415  1.0000
  F   F250      1.0  0.69181  0.00754  0.82700  1.0000
  F   F251      1.0  0.68877  0.51127  0.32316  1.0000
  F   F252      1.0  0.67812  0.50514  0.84387  1.0000
  F   F253      1.0  0.93368  0.99986  0.31977  1.0000
  F   F254      1.0  0.93378  0.01230  0.81410  1.0000
  F   F255      1.0  0.93573  0.51189  0.32363  1.0000
  F   F256      1.0  0.92572  0.51529  0.82517  1.0000
  F   F257      1.0  0.00581  0.28254  0.97304  1.0000
  F   F258      1.0  0.00127  0.27124  0.48613  1.0000
  F   F259      1.0  0.00266  0.74581  0.99899  1.0000
  F   F260      1.0  0.99505  0.74086  0.50640  1.0000
  F   F261      1.0  0.25179  0.24989  0.00418  1.0000
  F   F262      1.0  0.25002  0.25012  0.49807  1.0000
  F   F263      1.0  0.24790  0.74856  0.99793  1.0000
  F   F264      1.0  0.24900  0.74389  0.50008  1.0000
  F   F265      1.0  0.50325  0.25748  0.98351  1.0000
  F   F266      1.0  0.49780  0.26025  0.49729  1.0000
  F   F267      1.0  0.50131  0.75405  0.99323  1.0000
  F   F268      1.0  0.50396  0.76282  0.49203  1.0000
  F   F269      1.0  0.74899  0.24522  0.00296  1.0000
  F   F270      1.0  0.75170  0.25871  0.50052  1.0000
  F   F271      1.0  0.75209  0.75176  0.00427  1.0000
  F   F272      1.0  0.75096  0.75161  0.49752  1.0000
  F   F273      1.0  0.12660  0.00920  0.24089  1.0000
  F   F274      1.0  0.12336  0.00041  0.75210  1.0000
  F   F275      1.0  0.12388  0.49549  0.24683  1.0000
  F   F276      1.0  0.12957  0.50852  0.74040  1.0000
  F   F277      1.0  0.37428  0.00355  0.24538  1.0000
  F   F278      1.0  0.37432  0.99306  0.75018  1.0000
  F   F279      1.0  0.37803  0.50283  0.24367  1.0000
  F   F280      1.0  0.37552  0.50456  0.75211  1.0000
  F   F281      1.0  0.62313  0.00182  0.24922  1.0000
  F   F282      1.0  0.62603  0.00527  0.75341  1.0000
  F   F283      1.0  0.62130  0.49529  0.26490  1.0000
  F   F284      1.0  0.62356  0.48927  0.76605  1.0000
  F   F285      1.0  0.87368  0.99933  0.25410  1.0000
  F   F286      1.0  0.87345  0.99221  0.75107  1.0000
  F   F287      1.0  0.87139  0.48775  0.26077  1.0000
  F   F288      1.0  0.86414  0.48706  0.75831  1.0000
  F   F289      1.0  0.04222  0.03851  0.03143  1.0000
  F   F290      1.0  0.03560  0.02981  0.52667  1.0000
  F   F291      1.0  0.04787  0.53337  0.01635  1.0000
  F   F292      1.0  0.04579  0.54039  0.50954  1.0000
  F   F293      1.0  0.28209  0.03576  0.02576  1.0000
  F   F294      1.0  0.28773  0.04693  0.52655  1.0000
  F   F295      1.0  0.29107  0.52773  0.03627  1.0000
  F   F296      1.0  0.29918  0.53458  0.51288  1.0000
  F   F297      1.0  0.53782  0.03759  0.02394  1.0000
  F   F298      1.0  0.54173  0.02254  0.52021  1.0000
  F   F299      1.0  0.55294  0.52463  0.02037  1.0000
  F   F300      1.0  0.54267  0.53550  0.53023  1.0000
  F   F301      1.0  0.79616  0.02902  0.01623  1.0000
  F   F302      1.0  0.79565  0.03113  0.52258  1.0000
  F   F303      1.0  0.79680  0.52619  0.02649  1.0000
  F   F304      1.0  0.78629  0.53221  0.52074  1.0000
  F   F305      1.0  0.22771  0.42427  0.22724  1.0000
  F   F306      1.0  0.23634  0.40776  0.73250  1.0000
  F   F307      1.0  0.23150  0.89674  0.23065  1.0000
  F   F308      1.0  0.22973  0.91522  0.72722  1.0000
  F   F309      1.0  0.48108  0.41533  0.23922  1.0000
  F   F310      1.0  0.48476  0.42006  0.71955  1.0000
  F   F311      1.0  0.47803  0.91013  0.23902  1.0000
  F   F312      1.0  0.48842  0.91132  0.72326  1.0000
  F   F313      1.0  0.73296  0.41228  0.22863  1.0000
  F   F314      1.0  0.73229  0.41652  0.72875  1.0000
  F   F315      1.0  0.73771  0.91304  0.21721  1.0000
  F   F316      1.0  0.73194  0.90764  0.73653  1.0000
  F   F317      1.0  0.97939  0.41187  0.22558  1.0000
  F   F318      1.0  0.98375  0.42362  0.71956  1.0000
  F   F319      1.0  0.98509  0.90429  0.22077  1.0000
  F   F320      1.0  0.98567  0.90079  0.73558  1.0000
  F   F321      1.0  0.21248  0.46252  0.47376  1.0000
  F   F322      1.0  0.21835  0.46799  0.97327  1.0000
  F   F323      1.0  0.20554  0.97447  0.46455  1.0000
  F   F324      1.0  0.21053  0.97817  0.97063  1.0000
  F   F325      1.0  0.45507  0.46843  0.48851  1.0000
  F   F326      1.0  0.46759  0.47039  0.97258  1.0000
  F   F327      1.0  0.46514  0.97045  0.47746  1.0000
  F   F328      1.0  0.45350  0.97686  0.97921  1.0000
  F   F329      1.0  0.70451  0.46485  0.47523  1.0000
  F   F330      1.0  0.70622  0.46277  0.99880  1.0000
  F   F331      1.0  0.71013  0.96653  0.46672  1.0000
  F   F332      1.0  0.70879  0.96386  0.98533  1.0000
  F   F333      1.0  0.95447  0.46773  0.46963  1.0000
  F   F334      1.0  0.96375  0.47014  0.97539  1.0000
  F   F335      1.0  0.95904  0.96367  0.48098  1.0000
  F   F336      1.0  0.95638  0.97298  0.96870  1.0000
  F   F337      1.0  0.01609  0.08230  0.27343  1.0000
  F   F338      1.0  0.01795  0.08744  0.76951  1.0000
  F   F339      1.0  0.01707  0.57325  0.27109  1.0000
  F   F340      1.0  0.01318  0.57433  0.77411  1.0000
  F   F341      1.0  0.26847  0.09343  0.26850  1.0000
  F   F342      1.0  0.26490  0.07331  0.77951  1.0000
  F   F343      1.0  0.26295  0.58429  0.28145  1.0000
  F   F344      1.0  0.26992  0.58346  0.77456  1.0000
  F   F345      1.0  0.51825  0.08918  0.26961  1.0000
  F   F346      1.0  0.51335  0.07789  0.76906  1.0000
  F   F347      1.0  0.51024  0.58802  0.28633  1.0000
  F   F348      1.0  0.51242  0.61105  0.76396  1.0000
  F   F349      1.0  0.76209  0.09674  0.25708  1.0000
  F   F350      1.0  0.77126  0.08268  0.77244  1.0000
  F   F351      1.0  0.76641  0.59482  0.26174  1.0000
  F   F352      1.0  0.76508  0.57570  0.79679  1.0000
  F   F353      1.0  0.10071  0.41570  0.45197  1.0000
  F   F354      1.0  0.10333  0.39950  0.96031  1.0000
  F   F355      1.0  0.09821  0.91969  0.46278  1.0000
  F   F356      1.0  0.09796  0.90751  0.96880  1.0000
  F   F357      1.0  0.35416  0.39290  0.46734  1.0000
  F   F358      1.0  0.34620  0.42380  0.96055  1.0000
  F   F359      1.0  0.35362  0.92744  0.46254  1.0000
  F   F360      1.0  0.35169  0.90499  0.95357  1.0000
  F   F361      1.0  0.60416  0.41049  0.45725  1.0000
  F   F362      1.0  0.60402  0.38707  0.96555  1.0000
  F   F363      1.0  0.60309  0.91090  0.45474  1.0000
  F   F364      1.0  0.60354  0.92003  0.95911  1.0000
  F   F365      1.0  0.84923  0.41453  0.46870  1.0000
  F   F366      1.0  0.84978  0.40539  0.95537  1.0000
  F   F367      1.0  0.85022  0.90513  0.46189  1.0000
  F   F368      1.0  0.85414  0.89750  0.96504  1.0000
  F   F369      1.0  0.04602  0.31027  0.27117  1.0000
  F   F370      1.0  0.04409  0.29529  0.77480  1.0000
  F   F371      1.0  0.04418  0.80991  0.28957  1.0000
  F   F372      1.0  0.05213  0.79561  0.79049  1.0000
  F   F373      1.0  0.29307  0.30744  0.28133  1.0000
  F   F374      1.0  0.30427  0.30503  0.78822  1.0000
  F   F375      1.0  0.30441  0.80996  0.28927  1.0000
  F   F376      1.0  0.29549  0.79904  0.80567  1.0000
  F   F377      1.0  0.54406  0.30021  0.29399  1.0000
  F   F378      1.0  0.54508  0.30531  0.76945  1.0000
  F   F379      1.0  0.54661  0.78904  0.29114  1.0000
  F   F380      1.0  0.54639  0.79440  0.79781  1.0000
  F   F381      1.0  0.79303  0.28710  0.29181  1.0000
  F   F382      1.0  0.78952  0.29503  0.80490  1.0000
  F   F383      1.0  0.79554  0.79674  0.29336  1.0000
  F   F384      1.0  0.79345  0.79703  0.79083  1.0000
