data_image0
_chemical_formula_structural       Hf96F384
_chemical_formula_sum              "Hf96 F384"
_cell_length_a       31.0228
_cell_length_b       15.5173
_cell_length_c       15.5065
_cell_angle_alpha    63.342
_cell_angle_beta     63.342
_cell_angle_gamma    80.1625

_space_group_name_H-M_alt    "P 1"
_space_group_IT_number       1

loop_
  _space_group_symop_operation_xyz
  'x, y, z'

loop_
  _atom_site_type_symbol
  _atom_site_label
  _atom_site_symmetry_multiplicity
  _atom_site_fract_x
  _atom_site_fract_y
  _atom_site_fract_z
  _atom_site_occupancy
  Hf  Hf1       1.0  0.19441  0.10764  0.37846  1.0000
  Hf  Hf2       1.0  0.19591  0.11160  0.86963  1.0000
  Hf  Hf3       1.0  0.19542  0.60717  0.38522  1.0000
  Hf  Hf4       1.0  0.19896  0.60719  0.87545  1.0000
  Hf  Hf5       1.0  0.44185  0.09926  0.38680  1.0000
  Hf  Hf6       1.0  0.44354  0.09996  0.88550  1.0000
  Hf  Hf7       1.0  0.44876  0.60700  0.37138  1.0000
  Hf  Hf8       1.0  0.44716  0.60565  0.87123  1.0000
  Hf  Hf9       1.0  0.69142  0.10467  0.38927  1.0000
  Hf  Hf10      1.0  0.69139  0.10067  0.88364  1.0000
  Hf  Hf11      1.0  0.69782  0.61565  0.36076  1.0000
  Hf  Hf12      1.0  0.69827  0.60646  0.86545  1.0000
  Hf  Hf13      1.0  0.94951  0.10327  0.37091  1.0000
  Hf  Hf14      1.0  0.94523  0.11320  0.87147  1.0000
  Hf  Hf15      1.0  0.94839  0.60584  0.37464  1.0000
  Hf  Hf16      1.0  0.94655  0.60399  0.89223  1.0000
  Hf  Hf17      1.0  0.05133  0.38613  0.13491  1.0000
  Hf  Hf18      1.0  0.05598  0.39823  0.61764  1.0000
  Hf  Hf19      1.0  0.05520  0.89456  0.12159  1.0000
  Hf  Hf20      1.0  0.05452  0.89578  0.62208  1.0000
  Hf  Hf21      1.0  0.30017  0.39418  0.13444  1.0000
  Hf  Hf22      1.0  0.30415  0.39579  0.62120  1.0000
  Hf  Hf23      1.0  0.30533  0.89701  0.11558  1.0000
  Hf  Hf24      1.0  0.30662  0.89659  0.62212  1.0000
  Hf  Hf25      1.0  0.54956  0.38602  0.13286  1.0000
  Hf  Hf26      1.0  0.55305  0.39395  0.62180  1.0000
  Hf  Hf27      1.0  0.55712  0.88993  0.12161  1.0000
  Hf  Hf28      1.0  0.55342  0.88880  0.63420  1.0000
  Hf  Hf29      1.0  0.80226  0.38926  0.12913  1.0000
  Hf  Hf30      1.0  0.80194  0.39529  0.63042  1.0000
  Hf  Hf31      1.0  0.80574  0.89824  0.11677  1.0000
  Hf  Hf32      1.0  0.80361  0.89240  0.62060  1.0000
  Hf  Hf33      1.0  0.05367  0.18309  0.42406  1.0000
  Hf  Hf34      1.0  0.05471  0.18885  0.91771  1.0000
  Hf  Hf35      1.0  0.05616  0.68623  0.41622  1.0000
  Hf  Hf36      1.0  0.05957  0.68020  0.92292  1.0000
  Hf  Hf37      1.0  0.30197  0.18553  0.42104  1.0000
  Hf  Hf38      1.0  0.30936  0.18739  0.91115  1.0000
  Hf  Hf39      1.0  0.31010  0.69035  0.41105  1.0000
  Hf  Hf40      1.0  0.30809  0.68184  0.90451  1.0000
  Hf  Hf41      1.0  0.55572  0.18394  0.41817  1.0000
  Hf  Hf42      1.0  0.55285  0.17924  0.91842  1.0000
  Hf  Hf43      1.0  0.55437  0.67846  0.42329  1.0000
  Hf  Hf44      1.0  0.55525  0.67867  0.91262  1.0000
  Hf  Hf45      1.0  0.80609  0.17792  0.42389  1.0000
  Hf  Hf46      1.0  0.80459  0.18987  0.91360  1.0000
  Hf  Hf47      1.0  0.81067  0.68085  0.41462  1.0000
  Hf  Hf48      1.0  0.81091  0.68244  0.90726  1.0000
  Hf  Hf49      1.0  0.15742  0.38842  0.33262  1.0000
  Hf  Hf50      1.0  0.15807  0.39500  0.83609  1.0000
  Hf  Hf51      1.0  0.15813  0.88601  0.33608  1.0000
  Hf  Hf52      1.0  0.16280  0.89965  0.81622  1.0000
  Hf  Hf53      1.0  0.40753  0.38409  0.33148  1.0000
  Hf  Hf54      1.0  0.40729  0.38727  0.83768  1.0000
  Hf  Hf55      1.0  0.41184  0.88533  0.33070  1.0000
  Hf  Hf56      1.0  0.40833  0.88829  0.83249  1.0000
  Hf  Hf57      1.0  0.66075  0.38770  0.33232  1.0000
  Hf  Hf58      1.0  0.65955  0.38176  0.83961  1.0000
  Hf  Hf59      1.0  0.65766  0.88133  0.33856  1.0000
  Hf  Hf60      1.0  0.65506  0.87775  0.83551  1.0000
  Hf  Hf61      1.0  0.90861  0.39140  0.32904  1.0000
  Hf  Hf62      1.0  0.91315  0.39135  0.82715  1.0000
  Hf  Hf63      1.0  0.90455  0.87862  0.34921  1.0000
  Hf  Hf64      1.0  0.91150  0.89450  0.82449  1.0000
  Hf  Hf65      1.0  0.19462  0.31312  0.08108  1.0000
  Hf  Hf66      1.0  0.19414  0.32608  0.58515  1.0000
  Hf  Hf67      1.0  0.19464  0.81941  0.07861  1.0000
  Hf  Hf68      1.0  0.19437  0.82864  0.57342  1.0000
  Hf  Hf69      1.0  0.44201  0.30783  0.09064  1.0000
  Hf  Hf70      1.0  0.44486  0.32414  0.57533  1.0000
  Hf  Hf71      1.0  0.44593  0.81730  0.07417  1.0000
  Hf  Hf72      1.0  0.44515  0.81751  0.58287  1.0000
  Hf  Hf73      1.0  0.69154  0.31613  0.09094  1.0000
  Hf  Hf74      1.0  0.69041  0.31572  0.58944  1.0000
  Hf  Hf75      1.0  0.69356  0.81513  0.08298  1.0000
  Hf  Hf76      1.0  0.69537  0.81288  0.58277  1.0000
  Hf  Hf77      1.0  0.94163  0.30744  0.08801  1.0000
  Hf  Hf78      1.0  0.94153  0.32308  0.57868  1.0000
  Hf  Hf79      1.0  0.94387  0.81828  0.08405  1.0000
  Hf  Hf80      1.0  0.94408  0.81778  0.58278  1.0000
  Hf  Hf81      1.0  0.09155  0.11191  0.17060  1.0000
  Hf  Hf82      1.0  0.08910  0.11205  0.67384  1.0000
  Hf  Hf83      1.0  0.09341  0.61347  0.16485  1.0000
  Hf  Hf84      1.0  0.09267  0.61780  0.66952  1.0000
  Hf  Hf85      1.0  0.34038  0.11842  0.16699  1.0000
  Hf  Hf86      1.0  0.33936  0.11149  0.67458  1.0000
  Hf  Hf87      1.0  0.33839  0.61793  0.15910  1.0000
  Hf  Hf88      1.0  0.34385  0.61282  0.66205  1.0000
  Hf  Hf89      1.0  0.58898  0.10345  0.17733  1.0000
  Hf  Hf90      1.0  0.58818  0.10524  0.67945  1.0000
  Hf  Hf91      1.0  0.59310  0.60970  0.16965  1.0000
  Hf  Hf92      1.0  0.59164  0.61261  0.66379  1.0000
  Hf  Hf93      1.0  0.83709  0.10618  0.17188  1.0000
  Hf  Hf94      1.0  0.83993  0.11228  0.66437  1.0000
  Hf  Hf95      1.0  0.83673  0.60867  0.17303  1.0000
  Hf  Hf96      1.0  0.84246  0.61369  0.66501  1.0000
  F   F1        1.0  0.08045  0.14089  0.29907  1.0000
  F   F2        1.0  0.07291  0.11358  0.81703  1.0000
  F   F3        1.0  0.08603  0.63512  0.29632  1.0000
  F   F4        1.0  0.08094  0.63400  0.79960  1.0000
  F   F5        1.0  0.32479  0.13807  0.30734  1.0000
  F   F6        1.0  0.33268  0.13668  0.80228  1.0000
  F   F7        1.0  0.32986  0.62555  0.30182  1.0000
  F   F8        1.0  0.32618  0.61556  0.80435  1.0000
  F   F9        1.0  0.58111  0.13094  0.30449  1.0000
  F   F10       1.0  0.57693  0.12063  0.80615  1.0000
  F   F11       1.0  0.58016  0.63310  0.30020  1.0000
  F   F12       1.0  0.57994  0.63521  0.79055  1.0000
  F   F13       1.0  0.82945  0.12616  0.30449  1.0000
  F   F14       1.0  0.83626  0.14164  0.78957  1.0000
  F   F15       1.0  0.82932  0.60685  0.31222  1.0000
  F   F16       1.0  0.83720  0.63822  0.78872  1.0000
  F   F17       1.0  0.18382  0.34498  0.44170  1.0000
  F   F18       1.0  0.19482  0.34909  0.93064  1.0000
  F   F19       1.0  0.19585  0.85366  0.43108  1.0000
  F   F20       1.0  0.18345  0.84561  0.93825  1.0000
  F   F21       1.0  0.43637  0.35277  0.43852  1.0000
  F   F22       1.0  0.42948  0.33228  0.95392  1.0000
  F   F23       1.0  0.44220  0.84922  0.43227  1.0000
  F   F24       1.0  0.43019  0.83515  0.95261  1.0000
  F   F25       1.0  0.68323  0.33195  0.44728  1.0000
  F   F26       1.0  0.68157  0.33071  0.96040  1.0000
  F   F27       1.0  0.69705  0.84566  0.43993  1.0000
  F   F28       1.0  0.69418  0.84168  0.93210  1.0000
  F   F29       1.0  0.93475  0.34476  0.44672  1.0000
  F   F30       1.0  0.93736  0.34843  0.94538  1.0000
  F   F31       1.0  0.93993  0.85227  0.44093  1.0000
  F   F32       1.0  0.93214  0.84160  0.94376  1.0000
  F   F33       1.0  0.16913  0.35664  0.20574  1.0000
  F   F34       1.0  0.17108  0.37976  0.69214  1.0000
  F   F35       1.0  0.17480  0.88045  0.19727  1.0000
  F   F36       1.0  0.17542  0.87862  0.68073  1.0000
  F   F37       1.0  0.42023  0.36936  0.19527  1.0000
  F   F38       1.0  0.41520  0.35822  0.70770  1.0000
  F   F39       1.0  0.42687  0.88061  0.18299  1.0000
  F   F40       1.0  0.41981  0.85183  0.70880  1.0000
  F   F41       1.0  0.66979  0.37990  0.19182  1.0000
  F   F42       1.0  0.66945  0.36577  0.69512  1.0000
  F   F43       1.0  0.66739  0.85519  0.20231  1.0000
  F   F44       1.0  0.66936  0.85481  0.70581  1.0000
  F   F45       1.0  0.91241  0.36016  0.20446  1.0000
  F   F46       1.0  0.91977  0.36478  0.70219  1.0000
  F   F47       1.0  0.92021  0.86504  0.19741  1.0000
  F   F48       1.0  0.92247  0.88232  0.68927  1.0000
  F   F49       1.0  0.07100  0.15719  0.05239  1.0000
  F   F50       1.0  0.05216  0.15759  0.56994  1.0000
  F   F51       1.0  0.06989  0.66753  0.04693  1.0000
  F   F52       1.0  0.07080  0.67085  0.55072  1.0000
  F   F53       1.0  0.31234  0.14985  0.06451  1.0000
  F   F54       1.0  0.31368  0.16746  0.55216  1.0000
  F   F55       1.0  0.30601  0.64894  0.05581  1.0000
  F   F56       1.0  0.31576  0.64783  0.54783  1.0000
  F   F57       1.0  0.56290  0.14771  0.05943  1.0000
  F   F58       1.0  0.56036  0.15414  0.55550  1.0000
  F   F59       1.0  0.56273  0.65143  0.06295  1.0000
  F   F60       1.0  0.56482  0.65633  0.55269  1.0000
  F   F61       1.0  0.81328  0.15744  0.05190  1.0000
  F   F62       1.0  0.80811  0.15287  0.56504  1.0000
  F   F63       1.0  0.81765  0.65679  0.04807  1.0000
  F   F64       1.0  0.82111  0.66270  0.54303  1.0000
  F   F65       1.0  0.20143  0.18659  0.22661  1.0000
  F   F66       1.0  0.21386  0.21281  0.70640  1.0000
  F   F67       1.0  0.20249  0.70606  0.21046  1.0000
  F   F68       1.0  0.20103  0.70897  0.69649  1.0000
  F   F69       1.0  0.45772  0.19656  0.21215  1.0000
  F   F70       1.0  0.45130  0.20798  0.69859  1.0000
  F   F71       1.0  0.46052  0.70528  0.19976  1.0000
  F   F72       1.0  0.45469  0.69659  0.70221  1.0000
  F   F73       1.0  0.70191  0.19949  0.21397  1.0000
  F   F74       1.0  0.70195  0.20081  0.70910  1.0000
  F   F75       1.0  0.70815  0.70117  0.20396  1.0000
  F   F76       1.0  0.71178  0.69941  0.70942  1.0000
  F   F77       1.0  0.95946  0.19382  0.21015  1.0000
  F   F78       1.0  0.94714  0.19572  0.72299  1.0000
  F   F79       1.0  0.95509  0.71268  0.21681  1.0000
  F   F80       1.0  0.94390  0.71145  0.71523  1.0000
  F   F81       1.0  0.14905  0.08782  0.03229  1.0000
  F   F82       1.0  0.14896  0.09838  0.53952  1.0000
  F   F83       1.0  0.14781  0.58671  0.04787  1.0000
  F   F84       1.0  0.15175  0.59858  0.54265  1.0000
  F   F85       1.0  0.39654  0.09277  0.04173  1.0000
  F   F86       1.0  0.39451  0.09520  0.53398  1.0000
  F   F87       1.0  0.39476  0.60079  0.03707  1.0000
  F   F88       1.0  0.39985  0.61183  0.52604  1.0000
  F   F89       1.0  0.64861  0.07906  0.03867  1.0000
  F   F90       1.0  0.64288  0.08471  0.54586  1.0000
  F   F91       1.0  0.64547  0.58763  0.03331  1.0000
  F   F92       1.0  0.64707  0.59794  0.52861  1.0000
  F   F93       1.0  0.89410  0.09430  0.05240  1.0000
  F   F94       1.0  0.89297  0.09711  0.53717  1.0000
  F   F95       1.0  0.90584  0.58440  0.04430  1.0000
  F   F96       1.0  0.89978  0.57459  0.54148  1.0000
  F   F97       1.0  0.15736  0.19466  0.11633  1.0000
  F   F98       1.0  0.15237  0.20201  0.63309  1.0000
  F   F99       1.0  0.15862  0.69551  0.12259  1.0000
  F   F100      1.0  0.15055  0.71101  0.61109  1.0000
  F   F101      1.0  0.40110  0.19020  0.13791  1.0000
  F   F102      1.0  0.40019  0.20297  0.62033  1.0000
  F   F103      1.0  0.39526  0.70095  0.12649  1.0000
  F   F104      1.0  0.40114  0.69847  0.61525  1.0000
  F   F105      1.0  0.64880  0.19634  0.12578  1.0000
  F   F106      1.0  0.64533  0.19270  0.62143  1.0000
  F   F107      1.0  0.65652  0.68599  0.12341  1.0000
  F   F108      1.0  0.65532  0.69767  0.62750  1.0000
  F   F109      1.0  0.89606  0.20235  0.12104  1.0000
  F   F110      1.0  0.90061  0.20826  0.61184  1.0000
  F   F111      1.0  0.90366  0.69839  0.13295  1.0000
  F   F112      1.0  0.90802  0.70312  0.59661  1.0000
  F   F113      1.0  0.10338  0.29923  0.38095  1.0000
  F   F114      1.0  0.09498  0.30297  0.87886  1.0000
  F   F115      1.0  0.09996  0.80876  0.36047  1.0000
  F   F116      1.0  0.10233  0.79935  0.86541  1.0000
  F   F117      1.0  0.34910  0.31014  0.34861  1.0000
  F   F118      1.0  0.35091  0.29105  0.90115  1.0000
  F   F119      1.0  0.35191  0.80507  0.37895  1.0000
  F   F120      1.0  0.35101  0.80468  0.87010  1.0000
  F   F121      1.0  0.60196  0.30170  0.36626  1.0000
  F   F122      1.0  0.59632  0.30837  0.86575  1.0000
  F   F123      1.0  0.59734  0.80016  0.38936  1.0000
  F   F124      1.0  0.59698  0.80669  0.86603  1.0000
  F   F125      1.0  0.85157  0.29806  0.38280  1.0000
  F   F126      1.0  0.84331  0.31851  0.86431  1.0000
  F   F127      1.0  0.84962  0.80284  0.36952  1.0000
  F   F128      1.0  0.85321  0.78992  0.87577  1.0000
  F   F129      1.0  0.06446  0.24942  0.13810  1.0000
  F   F130      1.0  0.06862  0.25479  0.63597  1.0000
  F   F131      1.0  0.06798  0.74866  0.13717  1.0000
  F   F132      1.0  0.05973  0.75705  0.65380  1.0000
  F   F133      1.0  0.31517  0.25490  0.13373  1.0000
  F   F134      1.0  0.30656  0.23999  0.66117  1.0000
  F   F135      1.0  0.30737  0.74974  0.14881  1.0000
  F   F136      1.0  0.31875  0.75786  0.63432  1.0000
  F   F137      1.0  0.55196  0.24584  0.15330  1.0000
  F   F138      1.0  0.55980  0.25097  0.64310  1.0000
  F   F139      1.0  0.55980  0.75211  0.14136  1.0000
  F   F140      1.0  0.56507  0.74907  0.64550  1.0000
  F   F141      1.0  0.81549  0.24867  0.13670  1.0000
  F   F142      1.0  0.81604  0.26589  0.63353  1.0000
  F   F143      1.0  0.81520  0.75421  0.13814  1.0000
  F   F144      1.0  0.80982  0.75035  0.64762  1.0000
  F   F145      1.0  0.12155  0.36203  0.11732  1.0000
  F   F146      1.0  0.12433  0.36720  0.62035  1.0000
  F   F147      1.0  0.12667  0.86537  0.12024  1.0000
  F   F148      1.0  0.12941  0.89896  0.58149  1.0000
  F   F149      1.0  0.37159  0.36712  0.11352  1.0000
  F   F150      1.0  0.37766  0.37995  0.59036  1.0000
  F   F151      1.0  0.37585  0.88371  0.10545  1.0000
  F   F152      1.0  0.37712  0.87976  0.59458  1.0000
  F   F153      1.0  0.62423  0.36874  0.11654  1.0000
  F   F154      1.0  0.62620  0.37126  0.59569  1.0000
  F   F155      1.0  0.63245  0.86391  0.07814  1.0000
  F   F156      1.0  0.62668  0.86641  0.61026  1.0000
  F   F157      1.0  0.87247  0.36862  0.09927  1.0000
  F   F158      1.0  0.87414  0.38249  0.59889  1.0000
  F   F159      1.0  0.87030  0.87124  0.11638  1.0000
  F   F160      1.0  0.87399  0.87033  0.59893  1.0000
  F   F161      1.0  0.18871  0.25112  0.35643  1.0000
  F   F162      1.0  0.17660  0.25692  0.86347  1.0000
  F   F163      1.0  0.18628  0.74912  0.36128  1.0000
  F   F164      1.0  0.18658  0.75575  0.84746  1.0000
  F   F165      1.0  0.43999  0.24898  0.35297  1.0000
  F   F166      1.0  0.44585  0.24890  0.85046  1.0000
  F   F167      1.0  0.44037  0.74050  0.35849  1.0000
  F   F168      1.0  0.44181  0.74899  0.85528  1.0000
  F   F169      1.0  0.68286  0.24618  0.35414  1.0000
  F   F170      1.0  0.68893  0.24597  0.85827  1.0000
  F   F171      1.0  0.68490  0.75012  0.36634  1.0000
  F   F172      1.0  0.68238  0.73816  0.86626  1.0000
  F   F173      1.0  0.94451  0.24994  0.34711  1.0000
  F   F174      1.0  0.93716  0.25515  0.85800  1.0000
  F   F175      1.0  0.92884  0.74713  0.37078  1.0000
  F   F176      1.0  0.93532  0.75318  0.85682  1.0000
  F   F177      1.0  0.12177  0.12449  0.41434  1.0000
  F   F178      1.0  0.12787  0.15050  0.87136  1.0000
  F   F179      1.0  0.12871  0.63468  0.39209  1.0000
  F   F180      1.0  0.13117  0.63068  0.88052  1.0000
  F   F181      1.0  0.37432  0.12509  0.39574  1.0000
  F   F182      1.0  0.37463  0.13999  0.89185  1.0000
  F   F183      1.0  0.38150  0.65040  0.36078  1.0000
  F   F184      1.0  0.37705  0.62087  0.88294  1.0000
  F   F185      1.0  0.62200  0.12851  0.39938  1.0000
  F   F186      1.0  0.62173  0.14299  0.88734  1.0000
  F   F187      1.0  0.62892  0.64559  0.36784  1.0000
  F   F188      1.0  0.62506  0.64038  0.87639  1.0000
  F   F189      1.0  0.87941  0.12676  0.38315  1.0000
  F   F190      1.0  0.87152  0.12690  0.90468  1.0000
  F   F191      1.0  0.88013  0.62906  0.38026  1.0000
  F   F192      1.0  0.88008  0.62069  0.88905  1.0000
  F   F193      1.0  0.00710  0.36404  0.07432  1.0000
  F   F194      1.0  0.00701  0.35018  0.58593  1.0000
  F   F195      1.0  0.00589  0.86043  0.07147  1.0000
  F   F196      1.0  0.00987  0.85919  0.57711  1.0000
  F   F197      1.0  0.25193  0.35066  0.09016  1.0000
  F   F198      1.0  0.25979  0.37850  0.56019  1.0000
  F   F199      1.0  0.25947  0.86500  0.06495  1.0000
  F   F200      1.0  0.25841  0.86619  0.58002  1.0000
  F   F201      1.0  0.50712  0.36493  0.05785  1.0000
  F   F202      1.0  0.50684  0.36768  0.56969  1.0000
  F   F203      1.0  0.51114  0.86254  0.06936  1.0000
  F   F204      1.0  0.50398  0.84577  0.59291  1.0000
  F   F205      1.0  0.75528  0.35502  0.08446  1.0000
  F   F206      1.0  0.75172  0.36035  0.58342  1.0000
  F   F207      1.0  0.76028  0.86737  0.06166  1.0000
  F   F208      1.0  0.76210  0.87252  0.54508  1.0000
  F   F209      1.0  0.06382  0.48081  0.17954  1.0000
  F   F210      1.0  0.06416  0.48734  0.68250  1.0000
  F   F211      1.0  0.06423  0.98697  0.18305  1.0000
  F   F212      1.0  0.06633  0.97966  0.68891  1.0000
  F   F213      1.0  0.31307  0.49068  0.17775  1.0000
  F   F214      1.0  0.31696  0.49105  0.68533  1.0000
  F   F215      1.0  0.31654  0.99031  0.17547  1.0000
  F   F216      1.0  0.32254  0.98066  0.68491  1.0000
  F   F217      1.0  0.56265  0.48422  0.18010  1.0000
  F   F218      1.0  0.57196  0.48427  0.66523  1.0000
  F   F219      1.0  0.57531  0.96987  0.17061  1.0000
  F   F220      1.0  0.56939  0.96979  0.69143  1.0000
  F   F221      1.0  0.82063  0.48334  0.18201  1.0000
  F   F222      1.0  0.81830  0.49104  0.67467  1.0000
  F   F223      1.0  0.81235  0.97895  0.18947  1.0000
  F   F224      1.0  0.82023  0.97812  0.67457  1.0000
  F   F225      1.0  0.24240  0.14080  0.43283  1.0000
  F   F226      1.0  0.24533  0.14711  0.90442  1.0000
  F   F227      1.0  0.25004  0.65068  0.40446  1.0000
  F   F228      1.0  0.24460  0.65227  0.92086  1.0000
  F   F229      1.0  0.49538  0.12178  0.44888  1.0000
  F   F230      1.0  0.49370  0.12073  0.93635  1.0000
  F   F231      1.0  0.49479  0.62412  0.43642  1.0000
  F   F232      1.0  0.49392  0.62425  0.93190  1.0000
  F   F233      1.0  0.74333  0.14082  0.42342  1.0000
  F   F234      1.0  0.74438  0.14021  0.92168  1.0000
  F   F235      1.0  0.74699  0.63681  0.39887  1.0000
  F   F236      1.0  0.74915  0.63620  0.90570  1.0000
  F   F237      1.0  0.99029  0.13023  0.43519  1.0000
  F   F238      1.0  0.98685  0.13428  0.93099  1.0000
  F   F239      1.0  0.99096  0.64166  0.43084  1.0000
  F   F240      1.0  0.99509  0.63125  0.93932  1.0000
  F   F241      1.0  0.17505  0.01539  0.33838  1.0000
  F   F242      1.0  0.17818  0.02164  0.81166  1.0000
  F   F243      1.0  0.18010  0.51113  0.33741  1.0000
  F   F244      1.0  0.18727  0.51673  0.82143  1.0000
  F   F245      1.0  0.43563  0.01005  0.32014  1.0000
  F   F246      1.0  0.42403  0.01448  0.83653  1.0000
  F   F247      1.0  0.42960  0.51858  0.31922  1.0000
  F   F248      1.0  0.43590  0.51521  0.81873  1.0000
  F   F249      1.0  0.67801  0.01676  0.33025  1.0000
  F   F250      1.0  0.68372  0.01670  0.82346  1.0000
  F   F251      1.0  0.68614  0.51908  0.30864  1.0000
  F   F252      1.0  0.68009  0.50635  0.83126  1.0000
  F   F253      1.0  0.94717  0.01194  0.31266  1.0000
  F   F254      1.0  0.93222  0.02322  0.81370  1.0000
  F   F255      1.0  0.93279  0.51614  0.32552  1.0000
  F   F256      1.0  0.94018  0.52060  0.81079  1.0000
  F   F257      1.0  0.00050  0.24061  0.01736  1.0000
  F   F258      1.0  0.00164  0.26198  0.49126  1.0000
  F   F259      1.0  0.00147  0.74656  0.00057  1.0000
  F   F260      1.0  0.00055  0.74197  0.51207  1.0000
  F   F261      1.0  0.25241  0.24281  0.00536  1.0000
  F   F262      1.0  0.24443  0.25350  0.51308  1.0000
  F   F263      1.0  0.25114  0.77012  0.97648  1.0000
  F   F264      1.0  0.25346  0.76018  0.49193  1.0000
  F   F265      1.0  0.49235  0.24080  0.00259  1.0000
  F   F266      1.0  0.50334  0.27022  0.48411  1.0000
  F   F267      1.0  0.49758  0.74553  0.99273  1.0000
  F   F268      1.0  0.50018  0.75610  0.49165  1.0000
  F   F269      1.0  0.75177  0.25550  0.00008  1.0000
  F   F270      1.0  0.75252  0.25868  0.48203  1.0000
  F   F271      1.0  0.75384  0.75215  0.99467  1.0000
  F   F272      1.0  0.75046  0.73677  0.50750  1.0000
  F   F273      1.0  0.12113  0.00051  0.26254  1.0000
  F   F274      1.0  0.12095  0.99536  0.74342  1.0000
  F   F275      1.0  0.12469  0.49567  0.24515  1.0000
  F   F276      1.0  0.13101  0.51155  0.74036  1.0000
  F   F277      1.0  0.36528  0.99458  0.26515  1.0000
  F   F278      1.0  0.38651  0.00751  0.73489  1.0000
  F   F279      1.0  0.37679  0.49921  0.23802  1.0000
  F   F280      1.0  0.38520  0.51206  0.72641  1.0000
  F   F281      1.0  0.61568  0.98606  0.26268  1.0000
  F   F282      1.0  0.62501  0.99527  0.74482  1.0000
  F   F283      1.0  0.62018  0.49322  0.25185  1.0000
  F   F284      1.0  0.62968  0.50512  0.73896  1.0000
  F   F285      1.0  0.87337  0.99137  0.26247  1.0000
  F   F286      1.0  0.87011  0.99839  0.75581  1.0000
  F   F287      1.0  0.88393  0.50372  0.23762  1.0000
  F   F288      1.0  0.87901  0.50609  0.74882  1.0000
  F   F289      1.0  0.04402  0.03587  0.02660  1.0000
  F   F290      1.0  0.04233  0.03913  0.51751  1.0000
  F   F291      1.0  0.05159  0.52159  0.02654  1.0000
  F   F292      1.0  0.04742  0.53325  0.51502  1.0000
  F   F293      1.0  0.28482  0.04371  0.02568  1.0000
  F   F294      1.0  0.29344  0.03397  0.52419  1.0000
  F   F295      1.0  0.29016  0.53160  0.01553  1.0000
  F   F296      1.0  0.30493  0.52673  0.51146  1.0000
  F   F297      1.0  0.54652  0.02999  0.02001  1.0000
  F   F298      1.0  0.55104  0.01698  0.52392  1.0000
  F   F299      1.0  0.55062  0.52620  0.02002  1.0000
  F   F300      1.0  0.55297  0.53090  0.51040  1.0000
  F   F301      1.0  0.79322  0.03143  0.02198  1.0000
  F   F302      1.0  0.79481  0.02808  0.52767  1.0000
  F   F303      1.0  0.79282  0.53568  0.02198  1.0000
  F   F304      1.0  0.78997  0.53783  0.51898  1.0000
  F   F305      1.0  0.23243  0.42087  0.22931  1.0000
  F   F306      1.0  0.23693  0.41732  0.72071  1.0000
  F   F307      1.0  0.23220  0.90799  0.23491  1.0000
  F   F308      1.0  0.23496  0.90877  0.73093  1.0000
  F   F309      1.0  0.48262  0.41141  0.21812  1.0000
  F   F310      1.0  0.48860  0.41883  0.71562  1.0000
  F   F311      1.0  0.49005  0.90108  0.22353  1.0000
  F   F312      1.0  0.48473  0.91928  0.72252  1.0000
  F   F313      1.0  0.73778  0.41025  0.22965  1.0000
  F   F314      1.0  0.73055  0.41418  0.73210  1.0000
  F   F315      1.0  0.72862  0.91484  0.22618  1.0000
  F   F316      1.0  0.73112  0.90003  0.72028  1.0000
  F   F317      1.0  0.98093  0.42485  0.21932  1.0000
  F   F318      1.0  0.98380  0.43102  0.70830  1.0000
  F   F319      1.0  0.98444  0.90044  0.23199  1.0000
  F   F320      1.0  0.98670  0.93186  0.72707  1.0000
  F   F321      1.0  0.20570  0.47065  0.47506  1.0000
  F   F322      1.0  0.20459  0.47492  0.99471  1.0000
  F   F323      1.0  0.21677  0.97904  0.46353  1.0000
  F   F324      1.0  0.20263  0.97076  0.97258  1.0000
  F   F325      1.0  0.45362  0.47705  0.48539  1.0000
  F   F326      1.0  0.45037  0.46645  0.97689  1.0000
  F   F327      1.0  0.46161  0.97014  0.48431  1.0000
  F   F328      1.0  0.46431  0.96323  0.96222  1.0000
  F   F329      1.0  0.70060  0.47020  0.47226  1.0000
  F   F330      1.0  0.70482  0.46893  0.98538  1.0000
  F   F331      1.0  0.70334  0.97115  0.49088  1.0000
  F   F332      1.0  0.71236  0.97087  0.97788  1.0000
  F   F333      1.0  0.96137  0.46739  0.47931  1.0000
  F   F334      1.0  0.95278  0.46186  0.99309  1.0000
  F   F335      1.0  0.95304  0.97258  0.48452  1.0000
  F   F336      1.0  0.95040  0.97179  0.97694  1.0000
  F   F337      1.0  0.02181  0.08447  0.27200  1.0000
  F   F338      1.0  0.01305  0.09366  0.77228  1.0000
  F   F339      1.0  0.01704  0.58657  0.28106  1.0000
  F   F340      1.0  0.01619  0.59497  0.77886  1.0000
  F   F341      1.0  0.26560  0.08519  0.27857  1.0000
  F   F342      1.0  0.26844  0.07000  0.78741  1.0000
  F   F343      1.0  0.26278  0.58862  0.26135  1.0000
  F   F344      1.0  0.26506  0.60774  0.76351  1.0000
  F   F345      1.0  0.51793  0.06044  0.28669  1.0000
  F   F346      1.0  0.51112  0.09078  0.76422  1.0000
  F   F347      1.0  0.51615  0.57451  0.27710  1.0000
  F   F348      1.0  0.51795  0.57586  0.77118  1.0000
  F   F349      1.0  0.76255  0.07881  0.28661  1.0000
  F   F350      1.0  0.76417  0.08660  0.77266  1.0000
  F   F351      1.0  0.76490  0.58652  0.25852  1.0000
  F   F352      1.0  0.76760  0.57401  0.77181  1.0000
  F   F353      1.0  0.09684  0.40409  0.47021  1.0000
  F   F354      1.0  0.10666  0.40945  0.96767  1.0000
  F   F355      1.0  0.10266  0.87873  0.47239  1.0000
  F   F356      1.0  0.10145  0.91430  0.96292  1.0000
  F   F357      1.0  0.34618  0.37919  0.46706  1.0000
  F   F358      1.0  0.34834  0.41822  0.95896  1.0000
  F   F359      1.0  0.35301  0.90933  0.46043  1.0000
  F   F360      1.0  0.34517  0.91147  0.95574  1.0000
  F   F361      1.0  0.60527  0.40944  0.45517  1.0000
  F   F362      1.0  0.59773  0.39304  0.96722  1.0000
  F   F363      1.0  0.60992  0.89318  0.47076  1.0000
  F   F364      1.0  0.60082  0.91352  0.95437  1.0000
  F   F365      1.0  0.84971  0.42082  0.45979  1.0000
  F   F366      1.0  0.85232  0.40686  0.94784  1.0000
  F   F367      1.0  0.84863  0.90406  0.46528  1.0000
  F   F368      1.0  0.84910  0.91497  0.95602  1.0000
  F   F369      1.0  0.04680  0.29778  0.29330  1.0000
  F   F370      1.0  0.04224  0.29614  0.78969  1.0000
  F   F371      1.0  0.04174  0.79524  0.28714  1.0000
  F   F372      1.0  0.05024  0.80194  0.78502  1.0000
  F   F373      1.0  0.28933  0.30865  0.28335  1.0000
  F   F374      1.0  0.30507  0.30793  0.78079  1.0000
  F   F375      1.0  0.30950  0.80579  0.27800  1.0000
  F   F376      1.0  0.30083  0.79740  0.77771  1.0000
  F   F377      1.0  0.54342  0.29007  0.29075  1.0000
  F   F378      1.0  0.53841  0.29036  0.80363  1.0000
  F   F379      1.0  0.55193  0.80083  0.28081  1.0000
  F   F380      1.0  0.54104  0.79873  0.79274  1.0000
  F   F381      1.0  0.80156  0.30315  0.28038  1.0000
  F   F382      1.0  0.78698  0.30572  0.79253  1.0000
  F   F383      1.0  0.79636  0.78765  0.29946  1.0000
  F   F384      1.0  0.79673  0.80580  0.78396  1.0000
