data_image0
_chemical_formula_structural       Hf96F384
_chemical_formula_sum              "Hf96 F384"
_cell_length_a       31.033
_cell_length_b       15.5179
_cell_length_c       15.5057
_cell_angle_alpha    63.342
_cell_angle_beta     63.342
_cell_angle_gamma    80.1625

_space_group_name_H-M_alt    "P 1"
_space_group_IT_number       1

loop_
  _space_group_symop_operation_xyz
  'x, y, z'

loop_
  _atom_site_type_symbol
  _atom_site_label
  _atom_site_symmetry_multiplicity
  _atom_site_fract_x
  _atom_site_fract_y
  _atom_site_fract_z
  _atom_site_occupancy
  Hf  Hf1       1.0  0.19406  0.11257  0.37126  1.0000
  Hf  Hf2       1.0  0.19554  0.09625  0.88234  1.0000
  Hf  Hf3       1.0  0.19421  0.59432  0.38655  1.0000
  Hf  Hf4       1.0  0.19570  0.60202  0.87594  1.0000
  Hf  Hf5       1.0  0.44703  0.10476  0.37873  1.0000
  Hf  Hf6       1.0  0.44298  0.10887  0.87783  1.0000
  Hf  Hf7       1.0  0.44806  0.61091  0.37197  1.0000
  Hf  Hf8       1.0  0.44781  0.60573  0.87158  1.0000
  Hf  Hf9       1.0  0.69607  0.11527  0.37524  1.0000
  Hf  Hf10      1.0  0.69431  0.11571  0.86955  1.0000
  Hf  Hf11      1.0  0.70073  0.60874  0.37295  1.0000
  Hf  Hf12      1.0  0.69803  0.61473  0.87174  1.0000
  Hf  Hf13      1.0  0.94341  0.10552  0.38210  1.0000
  Hf  Hf14      1.0  0.94610  0.11147  0.87611  1.0000
  Hf  Hf15      1.0  0.94518  0.60210  0.38322  1.0000
  Hf  Hf16      1.0  0.94776  0.60814  0.87508  1.0000
  Hf  Hf17      1.0  0.05074  0.39289  0.12978  1.0000
  Hf  Hf18      1.0  0.04701  0.38513  0.63648  1.0000
  Hf  Hf19      1.0  0.05869  0.88591  0.12040  1.0000
  Hf  Hf20      1.0  0.04954  0.88851  0.62721  1.0000
  Hf  Hf21      1.0  0.30220  0.39476  0.12147  1.0000
  Hf  Hf22      1.0  0.30212  0.38604  0.62568  1.0000
  Hf  Hf23      1.0  0.29995  0.89629  0.11732  1.0000
  Hf  Hf24      1.0  0.30580  0.89455  0.61708  1.0000
  Hf  Hf25      1.0  0.55501  0.40346  0.11300  1.0000
  Hf  Hf26      1.0  0.55169  0.39311  0.62133  1.0000
  Hf  Hf27      1.0  0.55738  0.89382  0.11126  1.0000
  Hf  Hf28      1.0  0.54858  0.89368  0.62314  1.0000
  Hf  Hf29      1.0  0.80439  0.39753  0.12061  1.0000
  Hf  Hf30      1.0  0.80427  0.40272  0.62695  1.0000
  Hf  Hf31      1.0  0.80281  0.89154  0.12753  1.0000
  Hf  Hf32      1.0  0.80412  0.89727  0.61723  1.0000
  Hf  Hf33      1.0  0.05529  0.18013  0.42148  1.0000
  Hf  Hf34      1.0  0.04826  0.17225  0.93232  1.0000
  Hf  Hf35      1.0  0.05499  0.67272  0.42104  1.0000
  Hf  Hf36      1.0  0.05945  0.67520  0.91461  1.0000
  Hf  Hf37      1.0  0.30655  0.18116  0.41562  1.0000
  Hf  Hf38      1.0  0.30603  0.18227  0.91660  1.0000
  Hf  Hf39      1.0  0.30555  0.68060  0.42104  1.0000
  Hf  Hf40      1.0  0.30897  0.68213  0.90893  1.0000
  Hf  Hf41      1.0  0.55603  0.19514  0.40835  1.0000
  Hf  Hf42      1.0  0.55715  0.18862  0.91221  1.0000
  Hf  Hf43      1.0  0.55926  0.69488  0.40564  1.0000
  Hf  Hf44      1.0  0.55654  0.68739  0.91632  1.0000
  Hf  Hf45      1.0  0.80469  0.18671  0.42127  1.0000
  Hf  Hf46      1.0  0.80735  0.18856  0.91606  1.0000
  Hf  Hf47      1.0  0.80868  0.69253  0.41566  1.0000
  Hf  Hf48      1.0  0.80851  0.68958  0.91966  1.0000
  Hf  Hf49      1.0  0.15559  0.38287  0.34144  1.0000
  Hf  Hf50      1.0  0.15337  0.38222  0.84216  1.0000
  Hf  Hf51      1.0  0.15329  0.88164  0.34196  1.0000
  Hf  Hf52      1.0  0.16282  0.88320  0.82750  1.0000
  Hf  Hf53      1.0  0.41225  0.39063  0.32154  1.0000
  Hf  Hf54      1.0  0.40481  0.38937  0.83776  1.0000
  Hf  Hf55      1.0  0.41202  0.88452  0.33200  1.0000
  Hf  Hf56      1.0  0.40690  0.88651  0.82725  1.0000
  Hf  Hf57      1.0  0.66020  0.39229  0.33368  1.0000
  Hf  Hf58      1.0  0.65787  0.39578  0.83409  1.0000
  Hf  Hf59      1.0  0.65496  0.88974  0.33568  1.0000
  Hf  Hf60      1.0  0.66141  0.89028  0.82290  1.0000
  Hf  Hf61      1.0  0.90910  0.38421  0.33959  1.0000
  Hf  Hf62      1.0  0.90642  0.38404  0.84306  1.0000
  Hf  Hf63      1.0  0.91693  0.89161  0.31830  1.0000
  Hf  Hf64      1.0  0.90792  0.88369  0.84114  1.0000
  Hf  Hf65      1.0  0.19003  0.31216  0.08696  1.0000
  Hf  Hf66      1.0  0.19260  0.30210  0.59957  1.0000
  Hf  Hf67      1.0  0.19567  0.80238  0.08826  1.0000
  Hf  Hf68      1.0  0.19594  0.81466  0.57810  1.0000
  Hf  Hf69      1.0  0.44221  0.31459  0.08232  1.0000
  Hf  Hf70      1.0  0.44302  0.32062  0.57781  1.0000
  Hf  Hf71      1.0  0.44299  0.81598  0.07881  1.0000
  Hf  Hf72      1.0  0.44411  0.81620  0.58087  1.0000
  Hf  Hf73      1.0  0.69385  0.32873  0.07813  1.0000
  Hf  Hf74      1.0  0.69429  0.32012  0.58968  1.0000
  Hf  Hf75      1.0  0.69682  0.83402  0.07087  1.0000
  Hf  Hf76      1.0  0.69404  0.82971  0.57413  1.0000
  Hf  Hf77      1.0  0.94168  0.31325  0.09062  1.0000
  Hf  Hf78      1.0  0.94473  0.31574  0.58912  1.0000
  Hf  Hf79      1.0  0.94596  0.81561  0.08268  1.0000
  Hf  Hf80      1.0  0.94260  0.81926  0.58315  1.0000
  Hf  Hf81      1.0  0.09002  0.11027  0.16771  1.0000
  Hf  Hf82      1.0  0.09276  0.10931  0.67065  1.0000
  Hf  Hf83      1.0  0.08968  0.60568  0.17731  1.0000
  Hf  Hf84      1.0  0.08979  0.60469  0.66940  1.0000
  Hf  Hf85      1.0  0.33907  0.10664  0.17315  1.0000
  Hf  Hf86      1.0  0.34291  0.11025  0.66687  1.0000
  Hf  Hf87      1.0  0.34051  0.60967  0.16862  1.0000
  Hf  Hf88      1.0  0.34528  0.60554  0.66217  1.0000
  Hf  Hf89      1.0  0.59240  0.11638  0.16016  1.0000
  Hf  Hf90      1.0  0.59070  0.11610  0.66315  1.0000
  Hf  Hf91      1.0  0.59092  0.61286  0.15960  1.0000
  Hf  Hf92      1.0  0.59604  0.61679  0.65891  1.0000
  Hf  Hf93      1.0  0.83929  0.10798  0.17616  1.0000
  Hf  Hf94      1.0  0.83956  0.11275  0.67605  1.0000
  Hf  Hf95      1.0  0.84737  0.61424  0.16722  1.0000
  Hf  Hf96      1.0  0.84026  0.61185  0.67272  1.0000
  F   F1        1.0  0.08232  0.12484  0.30360  1.0000
  F   F2        1.0  0.08363  0.13611  0.80425  1.0000
  F   F3        1.0  0.07731  0.63977  0.29670  1.0000
  F   F4        1.0  0.08253  0.61676  0.80592  1.0000
  F   F5        1.0  0.33304  0.12199  0.30788  1.0000
  F   F6        1.0  0.33744  0.13550  0.79971  1.0000
  F   F7        1.0  0.32819  0.61938  0.31403  1.0000
  F   F8        1.0  0.33209  0.62583  0.79058  1.0000
  F   F9        1.0  0.57928  0.14803  0.29541  1.0000
  F   F10       1.0  0.58708  0.13519  0.79559  1.0000
  F   F11       1.0  0.58130  0.63257  0.28711  1.0000
  F   F12       1.0  0.57849  0.63323  0.79979  1.0000
  F   F13       1.0  0.83136  0.13805  0.30537  1.0000
  F   F14       1.0  0.83161  0.12893  0.80678  1.0000
  F   F15       1.0  0.83939  0.65423  0.29401  1.0000
  F   F16       1.0  0.83754  0.63757  0.79858  1.0000
  F   F17       1.0  0.17972  0.32489  0.46184  1.0000
  F   F18       1.0  0.18015  0.34377  0.95047  1.0000
  F   F19       1.0  0.18769  0.84337  0.44109  1.0000
  F   F20       1.0  0.18350  0.82454  0.95433  1.0000
  F   F21       1.0  0.44024  0.34299  0.43838  1.0000
  F   F22       1.0  0.42911  0.33701  0.95214  1.0000
  F   F23       1.0  0.44217  0.84274  0.44320  1.0000
  F   F24       1.0  0.43497  0.84167  0.94270  1.0000
  F   F25       1.0  0.69650  0.35689  0.43432  1.0000
  F   F26       1.0  0.69132  0.34254  0.92805  1.0000
  F   F27       1.0  0.68752  0.86359  0.43381  1.0000
  F   F28       1.0  0.70074  0.85865  0.92954  1.0000
  F   F29       1.0  0.94064  0.34255  0.44533  1.0000
  F   F30       1.0  0.93268  0.34092  0.96130  1.0000
  F   F31       1.0  0.94029  0.84222  0.44652  1.0000
  F   F32       1.0  0.93725  0.83753  0.95057  1.0000
  F   F33       1.0  0.16498  0.36401  0.20396  1.0000
  F   F34       1.0  0.16710  0.36489  0.70666  1.0000
  F   F35       1.0  0.16726  0.86676  0.19545  1.0000
  F   F36       1.0  0.17410  0.87431  0.68695  1.0000
  F   F37       1.0  0.42398  0.37923  0.18141  1.0000
  F   F38       1.0  0.41528  0.36164  0.69868  1.0000
  F   F39       1.0  0.41877  0.86032  0.19702  1.0000
  F   F40       1.0  0.41565  0.87073  0.70042  1.0000
  F   F41       1.0  0.66468  0.36957  0.20090  1.0000
  F   F42       1.0  0.66091  0.37205  0.70120  1.0000
  F   F43       1.0  0.66644  0.85883  0.20596  1.0000
  F   F44       1.0  0.66123  0.86960  0.70006  1.0000
  F   F45       1.0  0.92063  0.37223  0.19564  1.0000
  F   F46       1.0  0.92260  0.37314  0.70376  1.0000
  F   F47       1.0  0.92538  0.89300  0.18123  1.0000
  F   F48       1.0  0.92013  0.86990  0.70322  1.0000
  F   F49       1.0  0.06249  0.16200  0.05327  1.0000
  F   F50       1.0  0.06391  0.14558  0.56554  1.0000
  F   F51       1.0  0.05807  0.64811  0.06192  1.0000
  F   F52       1.0  0.07367  0.64975  0.54727  1.0000
  F   F53       1.0  0.31260  0.14809  0.05793  1.0000
  F   F54       1.0  0.31350  0.16049  0.55026  1.0000
  F   F55       1.0  0.31653  0.64828  0.05534  1.0000
  F   F56       1.0  0.30860  0.63973  0.56124  1.0000
  F   F57       1.0  0.56436  0.14909  0.05518  1.0000
  F   F58       1.0  0.56684  0.15799  0.54244  1.0000
  F   F59       1.0  0.56958  0.65772  0.04217  1.0000
  F   F60       1.0  0.57179  0.66916  0.54480  1.0000
  F   F61       1.0  0.81829  0.16102  0.05593  1.0000
  F   F62       1.0  0.80360  0.14222  0.57238  1.0000
  F   F63       1.0  0.81308  0.66582  0.06279  1.0000
  F   F64       1.0  0.81899  0.66665  0.54880  1.0000
  F   F65       1.0  0.20505  0.19811  0.21309  1.0000
  F   F66       1.0  0.19945  0.19373  0.72978  1.0000
  F   F67       1.0  0.20292  0.69580  0.21861  1.0000
  F   F68       1.0  0.20386  0.69811  0.69985  1.0000
  F   F69       1.0  0.45841  0.20648  0.20948  1.0000
  F   F70       1.0  0.45456  0.20162  0.72198  1.0000
  F   F71       1.0  0.45180  0.69329  0.21810  1.0000
  F   F72       1.0  0.44779  0.70179  0.71381  1.0000
  F   F73       1.0  0.71403  0.20426  0.21190  1.0000
  F   F74       1.0  0.70474  0.19933  0.70952  1.0000
  F   F75       1.0  0.71623  0.70327  0.22241  1.0000
  F   F76       1.0  0.70885  0.70939  0.71463  1.0000
  F   F77       1.0  0.95111  0.19197  0.21405  1.0000
  F   F78       1.0  0.96257  0.20944  0.71800  1.0000
  F   F79       1.0  0.95880  0.69489  0.21858  1.0000
  F   F80       1.0  0.96177  0.70438  0.71458  1.0000
  F   F81       1.0  0.15253  0.08891  0.04821  1.0000
  F   F82       1.0  0.14862  0.09740  0.53919  1.0000
  F   F83       1.0  0.14639  0.60236  0.03824  1.0000
  F   F84       1.0  0.14938  0.58170  0.53317  1.0000
  F   F85       1.0  0.40051  0.08890  0.05111  1.0000
  F   F86       1.0  0.40421  0.07591  0.54716  1.0000
  F   F87       1.0  0.39629  0.58628  0.04079  1.0000
  F   F88       1.0  0.40575  0.59059  0.53488  1.0000
  F   F89       1.0  0.64939  0.10871  0.02456  1.0000
  F   F90       1.0  0.64946  0.08403  0.54509  1.0000
  F   F91       1.0  0.64918  0.61183  0.02707  1.0000
  F   F92       1.0  0.64966  0.58983  0.53348  1.0000
  F   F93       1.0  0.89892  0.09055  0.03502  1.0000
  F   F94       1.0  0.89901  0.10380  0.54683  1.0000
  F   F95       1.0  0.90186  0.59116  0.04116  1.0000
  F   F96       1.0  0.89809  0.57936  0.55286  1.0000
  F   F97       1.0  0.14978  0.19418  0.12567  1.0000
  F   F98       1.0  0.15148  0.18439  0.63294  1.0000
  F   F99       1.0  0.16258  0.67237  0.12981  1.0000
  F   F100      1.0  0.14997  0.68471  0.61638  1.0000
  F   F101      1.0  0.39717  0.20396  0.13664  1.0000
  F   F102      1.0  0.40538  0.20079  0.61946  1.0000
  F   F103      1.0  0.40067  0.69434  0.13425  1.0000
  F   F104      1.0  0.40840  0.69858  0.61422  1.0000
  F   F105      1.0  0.65596  0.21168  0.13301  1.0000
  F   F106      1.0  0.65287  0.20815  0.61863  1.0000
  F   F107      1.0  0.66491  0.71352  0.11033  1.0000
  F   F108      1.0  0.65555  0.72131  0.60935  1.0000
  F   F109      1.0  0.89713  0.19271  0.13363  1.0000
  F   F110      1.0  0.90192  0.20429  0.63880  1.0000
  F   F111      1.0  0.91249  0.68972  0.11964  1.0000
  F   F112      1.0  0.90174  0.68693  0.63433  1.0000
  F   F113      1.0  0.09656  0.29264  0.38549  1.0000
  F   F114      1.0  0.09550  0.29936  0.88079  1.0000
  F   F115      1.0  0.09294  0.79679  0.38235  1.0000
  F   F116      1.0  0.10962  0.79161  0.86300  1.0000
  F   F117      1.0  0.34838  0.29809  0.35841  1.0000
  F   F118      1.0  0.34446  0.30680  0.86310  1.0000
  F   F119      1.0  0.34667  0.79086  0.38692  1.0000
  F   F120      1.0  0.34609  0.79893  0.87534  1.0000
  F   F121      1.0  0.59237  0.31504  0.37688  1.0000
  F   F122      1.0  0.59681  0.30412  0.88903  1.0000
  F   F123      1.0  0.59248  0.82192  0.36612  1.0000
  F   F124      1.0  0.60139  0.79418  0.88557  1.0000
  F   F125      1.0  0.84953  0.29808  0.37841  1.0000
  F   F126      1.0  0.85104  0.32068  0.85930  1.0000
  F   F127      1.0  0.84839  0.81108  0.36242  1.0000
  F   F128      1.0  0.84660  0.80982  0.87280  1.0000
  F   F129      1.0  0.07212  0.24539  0.13669  1.0000
  F   F130      1.0  0.06207  0.24732  0.64396  1.0000
  F   F131      1.0  0.07177  0.74843  0.12734  1.0000
  F   F132      1.0  0.05954  0.75144  0.64022  1.0000
  F   F133      1.0  0.31314  0.25201  0.13424  1.0000
  F   F134      1.0  0.32177  0.25456  0.63090  1.0000
  F   F135      1.0  0.30536  0.73249  0.16114  1.0000
  F   F136      1.0  0.31720  0.75370  0.62289  1.0000
  F   F137      1.0  0.57523  0.25320  0.11884  1.0000
  F   F138      1.0  0.56191  0.25432  0.62866  1.0000
  F   F139      1.0  0.56662  0.75537  0.12860  1.0000
  F   F140      1.0  0.56968  0.76026  0.62985  1.0000
  F   F141      1.0  0.80667  0.25160  0.15920  1.0000
  F   F142      1.0  0.81704  0.25631  0.63789  1.0000
  F   F143      1.0  0.81785  0.74784  0.14837  1.0000
  F   F144      1.0  0.80536  0.75039  0.65433  1.0000
  F   F145      1.0  0.12294  0.37173  0.10274  1.0000
  F   F146      1.0  0.12270  0.36536  0.60978  1.0000
  F   F147      1.0  0.12860  0.87215  0.09551  1.0000
  F   F148      1.0  0.12442  0.85751  0.60991  1.0000
  F   F149      1.0  0.37096  0.36100  0.10882  1.0000
  F   F150      1.0  0.37477  0.37214  0.60610  1.0000
  F   F151      1.0  0.36974  0.86976  0.09767  1.0000
  F   F152      1.0  0.37564  0.88335  0.60121  1.0000
  F   F153      1.0  0.62657  0.37898  0.09230  1.0000
  F   F154      1.0  0.62275  0.38480  0.58589  1.0000
  F   F155      1.0  0.63050  0.88774  0.08565  1.0000
  F   F156      1.0  0.61902  0.88790  0.60077  1.0000
  F   F157      1.0  0.87073  0.36955  0.10891  1.0000
  F   F158      1.0  0.87247  0.38325  0.60649  1.0000
  F   F159      1.0  0.87630  0.85262  0.12407  1.0000
  F   F160      1.0  0.87150  0.86022  0.61685  1.0000
  F   F161      1.0  0.18009  0.24853  0.35727  1.0000
  F   F162      1.0  0.18027  0.23902  0.87454  1.0000
  F   F163      1.0  0.17548  0.73398  0.37857  1.0000
  F   F164      1.0  0.19506  0.74953  0.83017  1.0000
  F   F165      1.0  0.42576  0.24133  0.36944  1.0000
  F   F166      1.0  0.42471  0.25080  0.86277  1.0000
  F   F167      1.0  0.43479  0.74531  0.37498  1.0000
  F   F168      1.0  0.43366  0.74576  0.86074  1.0000
  F   F169      1.0  0.67815  0.25287  0.37529  1.0000
  F   F170      1.0  0.68833  0.26382  0.83615  1.0000
  F   F171      1.0  0.67489  0.75028  0.38253  1.0000
  F   F172      1.0  0.69535  0.76452  0.85263  1.0000
  F   F173      1.0  0.92717  0.24683  0.37253  1.0000
  F   F174      1.0  0.93485  0.24867  0.86509  1.0000
  F   F175      1.0  0.93254  0.74620  0.36624  1.0000
  F   F176      1.0  0.93944  0.75597  0.85439  1.0000
  F   F177      1.0  0.12556  0.10415  0.40139  1.0000
  F   F178      1.0  0.12465  0.12396  0.90711  1.0000
  F   F179      1.0  0.12551  0.61548  0.38503  1.0000
  F   F180      1.0  0.12484  0.60654  0.91293  1.0000
  F   F181      1.0  0.37754  0.12113  0.40225  1.0000
  F   F182      1.0  0.37448  0.13028  0.90158  1.0000
  F   F183      1.0  0.37779  0.62866  0.39908  1.0000
  F   F184      1.0  0.37756  0.62818  0.89052  1.0000
  F   F185      1.0  0.63071  0.14847  0.37643  1.0000
  F   F186      1.0  0.62473  0.14081  0.89156  1.0000
  F   F187      1.0  0.62899  0.64495  0.37111  1.0000
  F   F188      1.0  0.62863  0.64080  0.87562  1.0000
  F   F189      1.0  0.87330  0.10734  0.41569  1.0000
  F   F190      1.0  0.87889  0.13635  0.88517  1.0000
  F   F191      1.0  0.87850  0.62658  0.39410  1.0000
  F   F192      1.0  0.87648  0.64680  0.89943  1.0000
  F   F193      1.0  0.00559  0.34060  0.09481  1.0000
  F   F194      1.0  0.01019  0.36611  0.57104  1.0000
  F   F195      1.0  0.00929  0.86615  0.07946  1.0000
  F   F196      1.0  0.00697  0.86480  0.56313  1.0000
  F   F197      1.0  0.25324  0.36258  0.06332  1.0000
  F   F198      1.0  0.25408  0.33237  0.60189  1.0000
  F   F199      1.0  0.26071  0.84052  0.07168  1.0000
  F   F200      1.0  0.25789  0.86573  0.56504  1.0000
  F   F201      1.0  0.50944  0.35770  0.06765  1.0000
  F   F202      1.0  0.51008  0.38004  0.55533  1.0000
  F   F203      1.0  0.51205  0.86064  0.06253  1.0000
  F   F204      1.0  0.50198  0.85504  0.58722  1.0000
  F   F205      1.0  0.75351  0.37453  0.07228  1.0000
  F   F206      1.0  0.75473  0.37331  0.58075  1.0000
  F   F207      1.0  0.76646  0.86648  0.06152  1.0000
  F   F208      1.0  0.75379  0.86676  0.58613  1.0000
  F   F209      1.0  0.07055  0.48153  0.17223  1.0000
  F   F210      1.0  0.06500  0.47565  0.68261  1.0000
  F   F211      1.0  0.06507  0.98402  0.17271  1.0000
  F   F212      1.0  0.07224  0.97041  0.67575  1.0000
  F   F213      1.0  0.31583  0.47588  0.18101  1.0000
  F   F214      1.0  0.32656  0.48507  0.66597  1.0000
  F   F215      1.0  0.31596  0.98308  0.18362  1.0000
  F   F216      1.0  0.32556  0.99121  0.66409  1.0000
  F   F217      1.0  0.56781  0.48190  0.18907  1.0000
  F   F218      1.0  0.56273  0.48712  0.67358  1.0000
  F   F219      1.0  0.57114  0.98832  0.17165  1.0000
  F   F220      1.0  0.55944  0.00020  0.67377  1.0000
  F   F221      1.0  0.82427  0.49374  0.17396  1.0000
  F   F222      1.0  0.80792  0.49857  0.68047  1.0000
  F   F223      1.0  0.82113  0.98911  0.17810  1.0000
  F   F224      1.0  0.81899  0.98322  0.67818  1.0000
  F   F225      1.0  0.24103  0.14793  0.41823  1.0000
  F   F226      1.0  0.24324  0.12822  0.92057  1.0000
  F   F227      1.0  0.24372  0.62953  0.43078  1.0000
  F   F228      1.0  0.24388  0.63510  0.91567  1.0000
  F   F229      1.0  0.49483  0.14766  0.42834  1.0000
  F   F230      1.0  0.49787  0.15494  0.90666  1.0000
  F   F231      1.0  0.49865  0.65276  0.39886  1.0000
  F   F232      1.0  0.49300  0.64273  0.91497  1.0000
  F   F233      1.0  0.74251  0.14951  0.42966  1.0000
  F   F234      1.0  0.74260  0.15213  0.94212  1.0000
  F   F235      1.0  0.74895  0.65818  0.41674  1.0000
  F   F236      1.0  0.74344  0.63034  0.93421  1.0000
  F   F237      1.0  0.98922  0.14477  0.42454  1.0000
  F   F238      1.0  0.98936  0.11729  0.94085  1.0000
  F   F239      1.0  0.99134  0.63676  0.43838  1.0000
  F   F240      1.0  0.99584  0.63980  0.92372  1.0000
  F   F241      1.0  0.17986  0.00657  0.31453  1.0000
  F   F242      1.0  0.18582  0.00219  0.82669  1.0000
  F   F243      1.0  0.17966  0.49309  0.33873  1.0000
  F   F244      1.0  0.18319  0.51913  0.81072  1.0000
  F   F245      1.0  0.43617  0.01800  0.32240  1.0000
  F   F246      1.0  0.43070  0.01585  0.82658  1.0000
  F   F247      1.0  0.42090  0.51409  0.33130  1.0000
  F   F248      1.0  0.43056  0.51952  0.80970  1.0000
  F   F249      1.0  0.67937  0.02285  0.31734  1.0000
  F   F250      1.0  0.67754  0.02692  0.82486  1.0000
  F   F251      1.0  0.68951  0.52312  0.31132  1.0000
  F   F252      1.0  0.68126  0.51766  0.82975  1.0000
  F   F253      1.0  0.93678  0.01179  0.32381  1.0000
  F   F254      1.0  0.93258  0.02713  0.81756  1.0000
  F   F255      1.0  0.93550  0.50974  0.32885  1.0000
  F   F256      1.0  0.91927  0.51071  0.84985  1.0000
  F   F257      1.0  0.99295  0.23885  0.01428  1.0000
  F   F258      1.0  0.00457  0.25742  0.49650  1.0000
  F   F259      1.0  0.00606  0.76300  0.98623  1.0000
  F   F260      1.0  0.00215  0.74256  0.50626  1.0000
  F   F261      1.0  0.24789  0.22906  0.01330  1.0000
  F   F262      1.0  0.24763  0.23859  0.50915  1.0000
  F   F263      1.0  0.24958  0.73447  0.99977  1.0000
  F   F264      1.0  0.25122  0.75828  0.49321  1.0000
  F   F265      1.0  0.49819  0.25658  0.98738  1.0000
  F   F266      1.0  0.49903  0.25182  0.50037  1.0000
  F   F267      1.0  0.49905  0.74304  0.01377  1.0000
  F   F268      1.0  0.50946  0.76427  0.48051  1.0000
  F   F269      1.0  0.75529  0.26961  0.99933  1.0000
  F   F270      1.0  0.75704  0.26442  0.49121  1.0000
  F   F271      1.0  0.75482  0.75175  0.00331  1.0000
  F   F272      1.0  0.74998  0.76008  0.49722  1.0000
  F   F273      1.0  0.11598  0.99006  0.26292  1.0000
  F   F274      1.0  0.12461  0.98785  0.76046  1.0000
  F   F275      1.0  0.11741  0.48677  0.26855  1.0000
  F   F276      1.0  0.12227  0.49237  0.74569  1.0000
  F   F277      1.0  0.37181  0.98485  0.25523  1.0000
  F   F278      1.0  0.37375  0.00122  0.75411  1.0000
  F   F279      1.0  0.37036  0.49576  0.25593  1.0000
  F   F280      1.0  0.36972  0.49101  0.76055  1.0000
  F   F281      1.0  0.62840  0.00825  0.24145  1.0000
  F   F282      1.0  0.62163  0.99798  0.75844  1.0000
  F   F283      1.0  0.62962  0.50354  0.24016  1.0000
  F   F284      1.0  0.62380  0.50893  0.74370  1.0000
  F   F285      1.0  0.88181  0.00591  0.24206  1.0000
  F   F286      1.0  0.87494  0.99650  0.75528  1.0000
  F   F287      1.0  0.87601  0.50584  0.26217  1.0000
  F   F288      1.0  0.87665  0.49714  0.75012  1.0000
  F   F289      1.0  0.04320  0.02482  0.01363  1.0000
  F   F290      1.0  0.03597  0.03592  0.52849  1.0000
  F   F291      1.0  0.04145  0.52184  0.02466  1.0000
  F   F292      1.0  0.04229  0.52599  0.52336  1.0000
  F   F293      1.0  0.29502  0.02818  0.00904  1.0000
  F   F294      1.0  0.28989  0.02930  0.52210  1.0000
  F   F295      1.0  0.29652  0.53285  0.01556  1.0000
  F   F296      1.0  0.29971  0.51489  0.51565  1.0000
  F   F297      1.0  0.54760  0.03119  0.01326  1.0000
  F   F298      1.0  0.54505  0.02939  0.51425  1.0000
  F   F299      1.0  0.54213  0.53533  0.02158  1.0000
  F   F300      1.0  0.53857  0.53859  0.52914  1.0000
  F   F301      1.0  0.79322  0.03758  0.03237  1.0000
  F   F302      1.0  0.79161  0.02737  0.51869  1.0000
  F   F303      1.0  0.79643  0.54076  0.01537  1.0000
  F   F304      1.0  0.79704  0.54131  0.51268  1.0000
  F   F305      1.0  0.23386  0.41457  0.22025  1.0000
  F   F306      1.0  0.23299  0.41814  0.71837  1.0000
  F   F307      1.0  0.23436  0.90842  0.22042  1.0000
  F   F308      1.0  0.24038  0.92121  0.73110  1.0000
  F   F309      1.0  0.48591  0.43170  0.20290  1.0000
  F   F310      1.0  0.48072  0.39064  0.73713  1.0000
  F   F311      1.0  0.48626  0.92486  0.21615  1.0000
  F   F312      1.0  0.47892  0.90270  0.73883  1.0000
  F   F313      1.0  0.73399  0.40763  0.22929  1.0000
  F   F314      1.0  0.72891  0.42992  0.71640  1.0000
  F   F315      1.0  0.73098  0.91528  0.22060  1.0000
  F   F316      1.0  0.73479  0.92623  0.70880  1.0000
  F   F317      1.0  0.98172  0.41378  0.23091  1.0000
  F   F318      1.0  0.98081  0.42257  0.72919  1.0000
  F   F319      1.0  0.98951  0.91565  0.22921  1.0000
  F   F320      1.0  0.98420  0.91780  0.72367  1.0000
  F   F321      1.0  0.20687  0.44781  0.48591  1.0000
  F   F322      1.0  0.19932  0.47000  0.99221  1.0000
  F   F323      1.0  0.20164  0.97518  0.47307  1.0000
  F   F324      1.0  0.20715  0.96615  0.97733  1.0000
  F   F325      1.0  0.46069  0.47344  0.46434  1.0000
  F   F326      1.0  0.45829  0.47201  0.97059  1.0000
  F   F327      1.0  0.46812  0.96120  0.46976  1.0000
  F   F328      1.0  0.45414  0.96863  0.98370  1.0000
  F   F329      1.0  0.70587  0.47621  0.49334  1.0000
  F   F330      1.0  0.69833  0.47646  0.97420  1.0000
  F   F331      1.0  0.70959  0.97541  0.47503  1.0000
  F   F332      1.0  0.71329  0.98824  0.96280  1.0000
  F   F333      1.0  0.95641  0.46172  0.48085  1.0000
  F   F334      1.0  0.95462  0.46385  0.98708  1.0000
  F   F335      1.0  0.95197  0.97769  0.48597  1.0000
  F   F336      1.0  0.96140  0.96797  0.96318  1.0000
  F   F337      1.0  0.01495  0.07445  0.28000  1.0000
  F   F338      1.0  0.02380  0.07949  0.77302  1.0000
  F   F339      1.0  0.01692  0.58575  0.27783  1.0000
  F   F340      1.0  0.01263  0.57362  0.78514  1.0000
  F   F341      1.0  0.26715  0.08658  0.27252  1.0000
  F   F342      1.0  0.26908  0.08257  0.77688  1.0000
  F   F343      1.0  0.26499  0.56686  0.28949  1.0000
  F   F344      1.0  0.26459  0.57942  0.77557  1.0000
  F   F345      1.0  0.51648  0.08566  0.27581  1.0000
  F   F346      1.0  0.51797  0.08590  0.77465  1.0000
  F   F347      1.0  0.50975  0.58755  0.26210  1.0000
  F   F348      1.0  0.52211  0.59234  0.75535  1.0000
  F   F349      1.0  0.76394  0.08003  0.28796  1.0000
  F   F350      1.0  0.76446  0.09557  0.77329  1.0000
  F   F351      1.0  0.77070  0.58274  0.29972  1.0000
  F   F352      1.0  0.76716  0.57703  0.78891  1.0000
  F   F353      1.0  0.10066  0.39257  0.46929  1.0000
  F   F354      1.0  0.09857  0.41007  0.95843  1.0000
  F   F355      1.0  0.10261  0.91236  0.46115  1.0000
  F   F356      1.0  0.10452  0.88465  0.96486  1.0000
  F   F357      1.0  0.35628  0.38762  0.45454  1.0000
  F   F358      1.0  0.34602  0.41787  0.95921  1.0000
  F   F359      1.0  0.35568  0.90608  0.45040  1.0000
  F   F360      1.0  0.34776  0.88812  0.95972  1.0000
  F   F361      1.0  0.59975  0.41109  0.45246  1.0000
  F   F362      1.0  0.59980  0.42661  0.94774  1.0000
  F   F363      1.0  0.59829  0.90517  0.46679  1.0000
  F   F364      1.0  0.60338  0.89848  0.96061  1.0000
  F   F365      1.0  0.85096  0.39632  0.47043  1.0000
  F   F366      1.0  0.84515  0.40643  0.96199  1.0000
  F   F367      1.0  0.85531  0.89097  0.45785  1.0000
  F   F368      1.0  0.85275  0.91173  0.96681  1.0000
  F   F369      1.0  0.04496  0.29697  0.29026  1.0000
  F   F370      1.0  0.03916  0.29699  0.79225  1.0000
  F   F371      1.0  0.04131  0.78920  0.28614  1.0000
  F   F372      1.0  0.04670  0.79352  0.79066  1.0000
  F   F373      1.0  0.29711  0.29217  0.27915  1.0000
  F   F374      1.0  0.28868  0.29185  0.79447  1.0000
  F   F375      1.0  0.29795  0.79611  0.28950  1.0000
  F   F376      1.0  0.29599  0.79410  0.78668  1.0000
  F   F377      1.0  0.54285  0.31075  0.26844  1.0000
  F   F378      1.0  0.55179  0.29741  0.78068  1.0000
  F   F379      1.0  0.55209  0.80439  0.27345  1.0000
  F   F380      1.0  0.54628  0.79864  0.79308  1.0000
  F   F381      1.0  0.80105  0.31500  0.28826  1.0000
  F   F382      1.0  0.79823  0.31581  0.78143  1.0000
  F   F383      1.0  0.79058  0.81802  0.28391  1.0000
  F   F384      1.0  0.79311  0.79445  0.79377  1.0000
