data_image0
_chemical_formula_structural       Hf96F384
_chemical_formula_sum              "Hf96 F384"
_cell_length_a       31.0549
_cell_length_b       15.5241
_cell_length_c       15.52
_cell_angle_alpha    63.342
_cell_angle_beta     63.342
_cell_angle_gamma    80.1625

_space_group_name_H-M_alt    "P 1"
_space_group_IT_number       1

loop_
  _space_group_symop_operation_xyz
  'x, y, z'

loop_
  _atom_site_type_symbol
  _atom_site_label
  _atom_site_symmetry_multiplicity
  _atom_site_fract_x
  _atom_site_fract_y
  _atom_site_fract_z
  _atom_site_occupancy
  Hf  Hf1       1.0  0.19561  0.09873  0.38039  1.0000
  Hf  Hf2       1.0  0.19597  0.10078  0.87866  1.0000
  Hf  Hf3       1.0  0.19329  0.60391  0.38219  1.0000
  Hf  Hf4       1.0  0.19496  0.61011  0.87872  1.0000
  Hf  Hf5       1.0  0.45043  0.11098  0.36921  1.0000
  Hf  Hf6       1.0  0.45373  0.10483  0.86137  1.0000
  Hf  Hf7       1.0  0.44547  0.61009  0.37240  1.0000
  Hf  Hf8       1.0  0.44731  0.59858  0.87770  1.0000
  Hf  Hf9       1.0  0.69365  0.10564  0.38253  1.0000
  Hf  Hf10      1.0  0.69742  0.10299  0.87216  1.0000
  Hf  Hf11      1.0  0.69293  0.61364  0.37622  1.0000
  Hf  Hf12      1.0  0.69563  0.60763  0.87896  1.0000
  Hf  Hf13      1.0  0.94666  0.11654  0.36635  1.0000
  Hf  Hf14      1.0  0.94132  0.11741  0.86822  1.0000
  Hf  Hf15      1.0  0.94605  0.60782  0.37497  1.0000
  Hf  Hf16      1.0  0.94508  0.60780  0.88254  1.0000
  Hf  Hf17      1.0  0.05439  0.39116  0.13603  1.0000
  Hf  Hf18      1.0  0.05641  0.39645  0.62054  1.0000
  Hf  Hf19      1.0  0.05087  0.89335  0.13406  1.0000
  Hf  Hf20      1.0  0.05593  0.90052  0.61485  1.0000
  Hf  Hf21      1.0  0.30268  0.38474  0.13190  1.0000
  Hf  Hf22      1.0  0.30361  0.39125  0.63120  1.0000
  Hf  Hf23      1.0  0.30111  0.88235  0.12432  1.0000
  Hf  Hf24      1.0  0.30342  0.89095  0.63119  1.0000
  Hf  Hf25      1.0  0.55541  0.40027  0.11123  1.0000
  Hf  Hf26      1.0  0.55403  0.39525  0.61695  1.0000
  Hf  Hf27      1.0  0.55648  0.89130  0.10824  1.0000
  Hf  Hf28      1.0  0.55577  0.89575  0.61452  1.0000
  Hf  Hf29      1.0  0.80046  0.39322  0.12493  1.0000
  Hf  Hf30      1.0  0.80216  0.39067  0.63027  1.0000
  Hf  Hf31      1.0  0.80145  0.89428  0.13339  1.0000
  Hf  Hf32      1.0  0.80279  0.89631  0.62226  1.0000
  Hf  Hf33      1.0  0.05507  0.18104  0.41703  1.0000
  Hf  Hf34      1.0  0.05900  0.18029  0.91797  1.0000
  Hf  Hf35      1.0  0.05503  0.69214  0.41498  1.0000
  Hf  Hf36      1.0  0.05327  0.68937  0.91956  1.0000
  Hf  Hf37      1.0  0.30559  0.18372  0.41380  1.0000
  Hf  Hf38      1.0  0.30850  0.17802  0.91699  1.0000
  Hf  Hf39      1.0  0.30261  0.67812  0.42198  1.0000
  Hf  Hf40      1.0  0.30609  0.68039  0.91703  1.0000
  Hf  Hf41      1.0  0.55893  0.18710  0.40830  1.0000
  Hf  Hf42      1.0  0.55800  0.17495  0.91816  1.0000
  Hf  Hf43      1.0  0.55350  0.68537  0.41370  1.0000
  Hf  Hf44      1.0  0.56020  0.69840  0.90587  1.0000
  Hf  Hf45      1.0  0.80527  0.18645  0.41795  1.0000
  Hf  Hf46      1.0  0.80189  0.18139  0.91752  1.0000
  Hf  Hf47      1.0  0.80165  0.67573  0.42599  1.0000
  Hf  Hf48      1.0  0.80468  0.68665  0.91711  1.0000
  Hf  Hf49      1.0  0.16034  0.38433  0.33343  1.0000
  Hf  Hf50      1.0  0.15918  0.39133  0.83042  1.0000
  Hf  Hf51      1.0  0.15986  0.89037  0.33236  1.0000
  Hf  Hf52      1.0  0.15838  0.88717  0.83745  1.0000
  Hf  Hf53      1.0  0.41063  0.38427  0.33260  1.0000
  Hf  Hf54      1.0  0.41225  0.37990  0.83116  1.0000
  Hf  Hf55      1.0  0.41529  0.89415  0.32443  1.0000
  Hf  Hf56      1.0  0.41109  0.88485  0.82927  1.0000
  Hf  Hf57      1.0  0.66234  0.39091  0.33807  1.0000
  Hf  Hf58      1.0  0.66089  0.38109  0.83218  1.0000
  Hf  Hf59      1.0  0.66298  0.89324  0.33195  1.0000
  Hf  Hf60      1.0  0.66494  0.88795  0.82835  1.0000
  Hf  Hf61      1.0  0.90467  0.39242  0.33524  1.0000
  Hf  Hf62      1.0  0.90522  0.39668  0.83478  1.0000
  Hf  Hf63      1.0  0.90954  0.89000  0.33159  1.0000
  Hf  Hf64      1.0  0.90906  0.89750  0.82956  1.0000
  Hf  Hf65      1.0  0.19583  0.30827  0.08350  1.0000
  Hf  Hf66      1.0  0.19227  0.31202  0.58742  1.0000
  Hf  Hf67      1.0  0.19519  0.81079  0.08679  1.0000
  Hf  Hf68      1.0  0.19251  0.80967  0.59270  1.0000
  Hf  Hf69      1.0  0.44677  0.31106  0.08491  1.0000
  Hf  Hf70      1.0  0.44320  0.31044  0.58503  1.0000
  Hf  Hf71      1.0  0.44143  0.81460  0.08497  1.0000
  Hf  Hf72      1.0  0.44564  0.81765  0.58135  1.0000
  Hf  Hf73      1.0  0.69431  0.31669  0.08671  1.0000
  Hf  Hf74      1.0  0.69253  0.32090  0.58848  1.0000
  Hf  Hf75      1.0  0.69256  0.81508  0.07942  1.0000
  Hf  Hf76      1.0  0.69369  0.81944  0.57732  1.0000
  Hf  Hf77      1.0  0.94248  0.32059  0.08149  1.0000
  Hf  Hf78      1.0  0.94516  0.32250  0.57972  1.0000
  Hf  Hf79      1.0  0.94079  0.82481  0.08040  1.0000
  Hf  Hf80      1.0  0.94299  0.81434  0.58654  1.0000
  Hf  Hf81      1.0  0.09350  0.11361  0.16049  1.0000
  Hf  Hf82      1.0  0.08746  0.11617  0.66815  1.0000
  Hf  Hf83      1.0  0.09024  0.60313  0.17704  1.0000
  Hf  Hf84      1.0  0.08648  0.60827  0.67316  1.0000
  Hf  Hf85      1.0  0.33460  0.10308  0.17397  1.0000
  Hf  Hf86      1.0  0.34330  0.11151  0.65863  1.0000
  Hf  Hf87      1.0  0.34105  0.59934  0.17296  1.0000
  Hf  Hf88      1.0  0.34253  0.61342  0.67063  1.0000
  Hf  Hf89      1.0  0.59676  0.11044  0.16004  1.0000
  Hf  Hf90      1.0  0.59527  0.10765  0.66834  1.0000
  Hf  Hf91      1.0  0.58940  0.60917  0.17060  1.0000
  Hf  Hf92      1.0  0.59055  0.61372  0.66847  1.0000
  Hf  Hf93      1.0  0.83595  0.11270  0.17092  1.0000
  Hf  Hf94      1.0  0.84303  0.11394  0.66112  1.0000
  Hf  Hf95      1.0  0.83911  0.61795  0.16800  1.0000
  Hf  Hf96      1.0  0.83877  0.61370  0.66486  1.0000
  F   F1        1.0  0.07986  0.13264  0.30906  1.0000
  F   F2        1.0  0.07688  0.11614  0.81194  1.0000
  F   F3        1.0  0.07880  0.62703  0.30916  1.0000
  F   F4        1.0  0.07110  0.61692  0.82832  1.0000
  F   F5        1.0  0.32478  0.12774  0.30424  1.0000
  F   F6        1.0  0.33512  0.13367  0.79782  1.0000
  F   F7        1.0  0.32759  0.63482  0.30827  1.0000
  F   F8        1.0  0.34179  0.64599  0.79262  1.0000
  F   F9        1.0  0.58715  0.13795  0.29312  1.0000
  F   F10       1.0  0.58079  0.14716  0.78560  1.0000
  F   F11       1.0  0.57895  0.61800  0.31242  1.0000
  F   F12       1.0  0.57811  0.63654  0.80249  1.0000
  F   F13       1.0  0.82230  0.15079  0.30121  1.0000
  F   F14       1.0  0.82698  0.13386  0.79453  1.0000
  F   F15       1.0  0.83292  0.62949  0.30343  1.0000
  F   F16       1.0  0.83109  0.64172  0.79176  1.0000
  F   F17       1.0  0.18708  0.32700  0.44403  1.0000
  F   F18       1.0  0.18380  0.34167  0.95012  1.0000
  F   F19       1.0  0.19337  0.84426  0.44855  1.0000
  F   F20       1.0  0.18801  0.84203  0.94789  1.0000
  F   F21       1.0  0.44210  0.34730  0.43926  1.0000
  F   F22       1.0  0.43930  0.32735  0.94944  1.0000
  F   F23       1.0  0.44653  0.85534  0.42716  1.0000
  F   F24       1.0  0.43311  0.82971  0.95556  1.0000
  F   F25       1.0  0.69589  0.34844  0.43648  1.0000
  F   F26       1.0  0.69077  0.34151  0.93317  1.0000
  F   F27       1.0  0.67991  0.82801  0.45823  1.0000
  F   F28       1.0  0.68676  0.83517  0.94106  1.0000
  F   F29       1.0  0.93403  0.35354  0.44305  1.0000
  F   F30       1.0  0.92527  0.33149  0.96164  1.0000
  F   F31       1.0  0.94343  0.86116  0.43568  1.0000
  F   F32       1.0  0.94923  0.86476  0.93135  1.0000
  F   F33       1.0  0.17318  0.37085  0.19208  1.0000
  F   F34       1.0  0.17587  0.38245  0.68906  1.0000
  F   F35       1.0  0.17491  0.86656  0.19858  1.0000
  F   F36       1.0  0.17185  0.87281  0.70458  1.0000
  F   F37       1.0  0.42785  0.37253  0.18293  1.0000
  F   F38       1.0  0.42293  0.36917  0.69227  1.0000
  F   F39       1.0  0.42057  0.87275  0.18805  1.0000
  F   F40       1.0  0.42858  0.88453  0.67979  1.0000
  F   F41       1.0  0.67405  0.37081  0.18924  1.0000
  F   F42       1.0  0.66644  0.38323  0.69173  1.0000
  F   F43       1.0  0.66613  0.84782  0.20626  1.0000
  F   F44       1.0  0.67109  0.86680  0.70298  1.0000
  F   F45       1.0  0.92061  0.36958  0.19285  1.0000
  F   F46       1.0  0.91269  0.37435  0.70438  1.0000
  F   F47       1.0  0.92393  0.86673  0.20341  1.0000
  F   F48       1.0  0.92207  0.87456  0.70156  1.0000
  F   F49       1.0  0.06463  0.15772  0.05755  1.0000
  F   F50       1.0  0.05745  0.15603  0.56438  1.0000
  F   F51       1.0  0.06758  0.66025  0.06348  1.0000
  F   F52       1.0  0.06643  0.66436  0.54915  1.0000
  F   F53       1.0  0.29754  0.16174  0.06850  1.0000
  F   F54       1.0  0.31005  0.15396  0.55209  1.0000
  F   F55       1.0  0.31185  0.64136  0.05913  1.0000
  F   F56       1.0  0.32336  0.66478  0.55185  1.0000
  F   F57       1.0  0.57158  0.16201  0.04486  1.0000
  F   F58       1.0  0.57759  0.17534  0.53633  1.0000
  F   F59       1.0  0.57363  0.67327  0.03518  1.0000
  F   F60       1.0  0.56519  0.65359  0.55424  1.0000
  F   F61       1.0  0.80577  0.15258  0.06436  1.0000
  F   F62       1.0  0.81341  0.15456  0.54719  1.0000
  F   F63       1.0  0.81425  0.65554  0.04666  1.0000
  F   F64       1.0  0.80848  0.67309  0.54851  1.0000
  F   F65       1.0  0.20356  0.18585  0.21004  1.0000
  F   F66       1.0  0.20542  0.21134  0.70662  1.0000
  F   F67       1.0  0.20371  0.70163  0.22414  1.0000
  F   F68       1.0  0.20658  0.69898  0.70095  1.0000
  F   F69       1.0  0.46866  0.19962  0.21623  1.0000
  F   F70       1.0  0.45573  0.19626  0.70786  1.0000
  F   F71       1.0  0.46252  0.71350  0.20204  1.0000
  F   F72       1.0  0.45437  0.70478  0.70815  1.0000
  F   F73       1.0  0.70005  0.19662  0.21440  1.0000
  F   F74       1.0  0.69324  0.20793  0.71638  1.0000
  F   F75       1.0  0.69955  0.68578  0.21071  1.0000
  F   F76       1.0  0.70644  0.69706  0.69755  1.0000
  F   F77       1.0  0.96087  0.19695  0.21153  1.0000
  F   F78       1.0  0.94435  0.20106  0.72295  1.0000
  F   F79       1.0  0.94637  0.70912  0.22461  1.0000
  F   F80       1.0  0.95114  0.69652  0.72203  1.0000
  F   F81       1.0  0.15095  0.09647  0.03197  1.0000
  F   F82       1.0  0.14381  0.10333  0.54563  1.0000
  F   F83       1.0  0.14712  0.58745  0.03511  1.0000
  F   F84       1.0  0.14470  0.58749  0.53964  1.0000
  F   F85       1.0  0.40053  0.11428  0.04994  1.0000
  F   F86       1.0  0.40315  0.08298  0.53795  1.0000
  F   F87       1.0  0.39850  0.59988  0.04122  1.0000
  F   F88       1.0  0.40291  0.58333  0.54962  1.0000
  F   F89       1.0  0.65246  0.07938  0.03099  1.0000
  F   F90       1.0  0.65125  0.07534  0.54556  1.0000
  F   F91       1.0  0.65059  0.58039  0.04238  1.0000
  F   F92       1.0  0.64470  0.60424  0.52751  1.0000
  F   F93       1.0  0.89097  0.12031  0.03925  1.0000
  F   F94       1.0  0.90004  0.09645  0.53133  1.0000
  F   F95       1.0  0.89844  0.59548  0.03785  1.0000
  F   F96       1.0  0.89267  0.58546  0.55027  1.0000
  F   F97       1.0  0.14926  0.18433  0.13301  1.0000
  F   F98       1.0  0.14750  0.19711  0.63383  1.0000
  F   F99       1.0  0.15376  0.68727  0.12139  1.0000
  F   F100      1.0  0.15385  0.68731  0.62570  1.0000
  F   F101      1.0  0.40480  0.19772  0.15206  1.0000
  F   F102      1.0  0.40009  0.20120  0.61518  1.0000
  F   F103      1.0  0.39791  0.70443  0.14355  1.0000
  F   F104      1.0  0.40432  0.70125  0.61095  1.0000
  F   F105      1.0  0.65698  0.19941  0.10785  1.0000
  F   F106      1.0  0.65183  0.19679  0.61670  1.0000
  F   F107      1.0  0.64800  0.68473  0.12779  1.0000
  F   F108      1.0  0.65077  0.68310  0.63103  1.0000
  F   F109      1.0  0.89735  0.20815  0.14532  1.0000
  F   F110      1.0  0.90520  0.19243  0.62068  1.0000
  F   F111      1.0  0.90090  0.71278  0.11246  1.0000
  F   F112      1.0  0.90208  0.70769  0.61157  1.0000
  F   F113      1.0  0.10114  0.30097  0.38535  1.0000
  F   F114      1.0  0.09719  0.29879  0.87479  1.0000
  F   F115      1.0  0.09542  0.81267  0.37312  1.0000
  F   F116      1.0  0.09073  0.80333  0.89887  1.0000
  F   F117      1.0  0.34943  0.29762  0.37919  1.0000
  F   F118      1.0  0.35064  0.28979  0.86738  1.0000
  F   F119      1.0  0.34092  0.79372  0.37184  1.0000
  F   F120      1.0  0.35258  0.78745  0.86534  1.0000
  F   F121      1.0  0.60288  0.30105  0.36935  1.0000
  F   F122      1.0  0.60542  0.28767  0.88199  1.0000
  F   F123      1.0  0.60639  0.79912  0.41201  1.0000
  F   F124      1.0  0.60051  0.81327  0.87612  1.0000
  F   F125      1.0  0.84538  0.31322  0.37021  1.0000
  F   F126      1.0  0.84197  0.31091  0.86035  1.0000
  F   F127      1.0  0.85147  0.80278  0.37394  1.0000
  F   F128      1.0  0.84679  0.80022  0.87821  1.0000
  F   F129      1.0  0.06718  0.25436  0.14384  1.0000
  F   F130      1.0  0.06087  0.25478  0.64395  1.0000
  F   F131      1.0  0.05771  0.75780  0.15567  1.0000
  F   F132      1.0  0.06766  0.75136  0.65608  1.0000
  F   F133      1.0  0.31976  0.24539  0.14404  1.0000
  F   F134      1.0  0.32011  0.25282  0.63793  1.0000
  F   F135      1.0  0.31715  0.74065  0.14390  1.0000
  F   F136      1.0  0.31482  0.75508  0.64514  1.0000
  F   F137      1.0  0.57032  0.25499  0.13159  1.0000
  F   F138      1.0  0.55966  0.25020  0.65759  1.0000
  F   F139      1.0  0.56063  0.74692  0.15669  1.0000
  F   F140      1.0  0.55871  0.75369  0.65092  1.0000
  F   F141      1.0  0.82705  0.25784  0.11507  1.0000
  F   F142      1.0  0.82317  0.25263  0.62701  1.0000
  F   F143      1.0  0.81292  0.75406  0.14292  1.0000
  F   F144      1.0  0.80995  0.75788  0.64026  1.0000
  F   F145      1.0  0.12586  0.36597  0.10647  1.0000
  F   F146      1.0  0.12707  0.37390  0.61408  1.0000
  F   F147      1.0  0.12769  0.86520  0.11404  1.0000
  F   F148      1.0  0.12248  0.86924  0.62397  1.0000
  F   F149      1.0  0.37658  0.37147  0.10431  1.0000
  F   F150      1.0  0.37641  0.38184  0.58722  1.0000
  F   F151      1.0  0.36899  0.87767  0.10303  1.0000
  F   F152      1.0  0.37682  0.86799  0.61212  1.0000
  F   F153      1.0  0.62124  0.35901  0.11604  1.0000
  F   F154      1.0  0.62185  0.36178  0.61306  1.0000
  F   F155      1.0  0.62373  0.85539  0.10753  1.0000
  F   F156      1.0  0.62751  0.87046  0.60670  1.0000
  F   F157      1.0  0.86694  0.38628  0.11277  1.0000
  F   F158      1.0  0.87433  0.36738  0.62109  1.0000
  F   F159      1.0  0.86839  0.86408  0.12481  1.0000
  F   F160      1.0  0.86942  0.86012  0.61347  1.0000
  F   F161      1.0  0.19064  0.23705  0.34331  1.0000
  F   F162      1.0  0.19008  0.25359  0.84905  1.0000
  F   F163      1.0  0.17667  0.74626  0.37680  1.0000
  F   F164      1.0  0.19492  0.75230  0.84518  1.0000
  F   F165      1.0  0.42845  0.24646  0.36847  1.0000
  F   F166      1.0  0.44258  0.24683  0.84953  1.0000
  F   F167      1.0  0.42277  0.74392  0.38517  1.0000
  F   F168      1.0  0.43376  0.74798  0.85417  1.0000
  F   F169      1.0  0.69410  0.25367  0.34152  1.0000
  F   F170      1.0  0.69462  0.24631  0.84968  1.0000
  F   F171      1.0  0.69106  0.76080  0.33900  1.0000
  F   F172      1.0  0.68708  0.74638  0.84784  1.0000
  F   F173      1.0  0.92588  0.25325  0.36681  1.0000
  F   F174      1.0  0.93032  0.25914  0.85922  1.0000
  F   F175      1.0  0.93420  0.75106  0.37221  1.0000
  F   F176      1.0  0.93051  0.75807  0.87308  1.0000
  F   F177      1.0  0.12474  0.11180  0.40702  1.0000
  F   F178      1.0  0.12934  0.13041  0.89343  1.0000
  F   F179      1.0  0.12745  0.63590  0.38696  1.0000
  F   F180      1.0  0.12811  0.66022  0.87889  1.0000
  F   F181      1.0  0.38219  0.12856  0.38131  1.0000
  F   F182      1.0  0.37868  0.11889  0.91273  1.0000
  F   F183      1.0  0.37833  0.62100  0.39746  1.0000
  F   F184      1.0  0.38118  0.59558  0.89621  1.0000
  F   F185      1.0  0.62988  0.12663  0.38662  1.0000
  F   F186      1.0  0.62423  0.11617  0.89832  1.0000
  F   F187      1.0  0.62577  0.66524  0.36724  1.0000
  F   F188      1.0  0.62850  0.62465  0.88912  1.0000
  F   F189      1.0  0.87700  0.13341  0.38109  1.0000
  F   F190      1.0  0.86647  0.12900  0.90271  1.0000
  F   F191      1.0  0.87187  0.62653  0.40619  1.0000
  F   F192      1.0  0.87712  0.62527  0.89034  1.0000
  F   F193      1.0  0.00357  0.35969  0.07978  1.0000
  F   F194      1.0  0.00316  0.36406  0.57036  1.0000
  F   F195      1.0  0.00264  0.86678  0.06315  1.0000
  F   F196      1.0  0.00679  0.87746  0.56151  1.0000
  F   F197      1.0  0.25758  0.33884  0.08592  1.0000
  F   F198      1.0  0.25589  0.36461  0.58737  1.0000
  F   F199      1.0  0.25695  0.85140  0.06775  1.0000
  F   F200      1.0  0.25855  0.85462  0.57734  1.0000
  F   F201      1.0  0.51392  0.35060  0.06797  1.0000
  F   F202      1.0  0.50920  0.35540  0.56677  1.0000
  F   F203      1.0  0.51519  0.87925  0.04216  1.0000
  F   F204      1.0  0.51550  0.87894  0.54520  1.0000
  F   F205      1.0  0.75922  0.34876  0.08308  1.0000
  F   F206      1.0  0.75636  0.35200  0.59545  1.0000
  F   F207      1.0  0.75242  0.86825  0.07778  1.0000
  F   F208      1.0  0.75978  0.86538  0.55938  1.0000
  F   F209      1.0  0.06731  0.47903  0.19356  1.0000
  F   F210      1.0  0.07023  0.48749  0.66849  1.0000
  F   F211      1.0  0.06745  0.97881  0.17905  1.0000
  F   F212      1.0  0.07109  0.99223  0.67354  1.0000
  F   F213      1.0  0.31451  0.47524  0.19319  1.0000
  F   F214      1.0  0.31275  0.49332  0.68659  1.0000
  F   F215      1.0  0.32032  0.98826  0.15425  1.0000
  F   F216      1.0  0.31471  0.99395  0.67073  1.0000
  F   F217      1.0  0.56377  0.49786  0.16451  1.0000
  F   F218      1.0  0.56766  0.48837  0.66849  1.0000
  F   F219      1.0  0.57711  0.98365  0.15031  1.0000
  F   F220      1.0  0.56689  0.00467  0.65458  1.0000
  F   F221      1.0  0.81432  0.50180  0.16245  1.0000
  F   F222      1.0  0.81519  0.49055  0.67598  1.0000
  F   F223      1.0  0.81851  0.97606  0.18935  1.0000
  F   F224      1.0  0.81410  0.98328  0.67876  1.0000
  F   F225      1.0  0.24147  0.12928  0.43125  1.0000
  F   F226      1.0  0.24108  0.14429  0.92050  1.0000
  F   F227      1.0  0.23469  0.63304  0.44427  1.0000
  F   F228      1.0  0.23995  0.63377  0.94335  1.0000
  F   F229      1.0  0.49833  0.14962  0.39955  1.0000
  F   F230      1.0  0.49304  0.13197  0.90634  1.0000
  F   F231      1.0  0.49218  0.64301  0.42708  1.0000
  F   F232      1.0  0.49535  0.65444  0.90847  1.0000
  F   F233      1.0  0.73748  0.13663  0.44094  1.0000
  F   F234      1.0  0.74238  0.10325  0.95207  1.0000
  F   F235      1.0  0.73973  0.63022  0.42574  1.0000
  F   F236      1.0  0.73964  0.64048  0.93106  1.0000
  F   F237      1.0  0.98920  0.14390  0.42475  1.0000
  F   F238      1.0  0.98970  0.13590  0.91801  1.0000
  F   F239      1.0  0.98407  0.62758  0.44478  1.0000
  F   F240      1.0  0.98759  0.63764  0.93690  1.0000
  F   F241      1.0  0.18066  0.01058  0.32051  1.0000
  F   F242      1.0  0.18421  0.01548  0.82042  1.0000
  F   F243      1.0  0.18735  0.50936  0.32195  1.0000
  F   F244      1.0  0.17323  0.52528  0.83766  1.0000
  F   F245      1.0  0.44521  0.01414  0.28617  1.0000
  F   F246      1.0  0.43037  0.01594  0.81817  1.0000
  F   F247      1.0  0.43496  0.51919  0.31438  1.0000
  F   F248      1.0  0.44268  0.50013  0.81218  1.0000
  F   F249      1.0  0.68362  0.01777  0.32913  1.0000
  F   F250      1.0  0.68446  0.01907  0.81181  1.0000
  F   F251      1.0  0.67411  0.51546  0.34978  1.0000
  F   F252      1.0  0.68275  0.50755  0.82878  1.0000
  F   F253      1.0  0.93664  0.01782  0.32265  1.0000
  F   F254      1.0  0.92469  0.02117  0.81633  1.0000
  F   F255      1.0  0.93350  0.52007  0.31866  1.0000
  F   F256      1.0  0.93598  0.51032  0.83627  1.0000
  F   F257      1.0  0.99686  0.23280  0.01249  1.0000
  F   F258      1.0  0.00460  0.25845  0.48470  1.0000
  F   F259      1.0  0.99670  0.73427  0.00888  1.0000
  F   F260      1.0  0.00352  0.75062  0.50338  1.0000
  F   F261      1.0  0.24896  0.25560  0.98556  1.0000
  F   F262      1.0  0.24714  0.24698  0.50737  1.0000
  F   F263      1.0  0.24680  0.73102  0.02137  1.0000
  F   F264      1.0  0.24901  0.73583  0.51106  1.0000
  F   F265      1.0  0.49857  0.21738  0.02220  1.0000
  F   F266      1.0  0.50051  0.23746  0.51055  1.0000
  F   F267      1.0  0.50246  0.76171  0.00339  1.0000
  F   F268      1.0  0.50166  0.75088  0.50383  1.0000
  F   F269      1.0  0.75180  0.25964  0.98463  1.0000
  F   F270      1.0  0.74931  0.24811  0.51171  1.0000
  F   F271      1.0  0.75415  0.76654  0.99336  1.0000
  F   F272      1.0  0.74610  0.75407  0.49549  1.0000
  F   F273      1.0  0.12225  0.00386  0.24939  1.0000
  F   F274      1.0  0.12507  0.99935  0.76153  1.0000
  F   F275      1.0  0.13204  0.50330  0.23872  1.0000
  F   F276      1.0  0.12193  0.49628  0.74679  1.0000
  F   F277      1.0  0.36887  0.98872  0.26568  1.0000
  F   F278      1.0  0.37239  0.00072  0.75242  1.0000
  F   F279      1.0  0.38489  0.49781  0.22786  1.0000
  F   F280      1.0  0.37818  0.49980  0.76296  1.0000
  F   F281      1.0  0.62376  0.99795  0.25483  1.0000
  F   F282      1.0  0.62625  0.99959  0.74699  1.0000
  F   F283      1.0  0.62920  0.49483  0.24200  1.0000
  F   F284      1.0  0.61871  0.50289  0.75513  1.0000
  F   F285      1.0  0.87798  0.01129  0.24240  1.0000
  F   F286      1.0  0.86685  0.99956  0.75353  1.0000
  F   F287      1.0  0.87622  0.50487  0.23426  1.0000
  F   F288      1.0  0.87885  0.52026  0.74733  1.0000
  F   F289      1.0  0.04797  0.03727  0.01385  1.0000
  F   F290      1.0  0.04531  0.03227  0.51449  1.0000
  F   F291      1.0  0.05029  0.53569  0.03851  1.0000
  F   F292      1.0  0.04501  0.54347  0.51829  1.0000
  F   F293      1.0  0.28836  0.02665  0.01135  1.0000
  F   F294      1.0  0.30611  0.02067  0.50707  1.0000
  F   F295      1.0  0.29097  0.51387  0.03644  1.0000
  F   F296      1.0  0.29487  0.53197  0.52680  1.0000
  F   F297      1.0  0.53208  0.03622  0.02887  1.0000
  F   F298      1.0  0.54049  0.04823  0.50813  1.0000
  F   F299      1.0  0.54302  0.53900  0.01668  1.0000
  F   F300      1.0  0.54097  0.52339  0.52053  1.0000
  F   F301      1.0  0.80198  0.02687  0.02283  1.0000
  F   F302      1.0  0.80395  0.03693  0.51244  1.0000
  F   F303      1.0  0.79125  0.52795  0.01037  1.0000
  F   F304      1.0  0.78083  0.53273  0.54132  1.0000
  F   F305      1.0  0.23275  0.41001  0.22985  1.0000
  F   F306      1.0  0.23031  0.43806  0.71936  1.0000
  F   F307      1.0  0.23513  0.92401  0.22076  1.0000
  F   F308      1.0  0.23898  0.91972  0.72534  1.0000
  F   F309      1.0  0.48444  0.40749  0.22409  1.0000
  F   F310      1.0  0.49055  0.40234  0.72196  1.0000
  F   F311      1.0  0.48976  0.88164  0.23036  1.0000
  F   F312      1.0  0.48655  0.90976  0.71379  1.0000
  F   F313      1.0  0.72968  0.43419  0.22831  1.0000
  F   F314      1.0  0.73337  0.41587  0.73401  1.0000
  F   F315      1.0  0.73421  0.93246  0.22315  1.0000
  F   F316      1.0  0.73536  0.93679  0.70775  1.0000
  F   F317      1.0  0.98215  0.41346  0.22704  1.0000
  F   F318      1.0  0.98267  0.41235  0.71451  1.0000
  F   F319      1.0  0.98689  0.92698  0.21417  1.0000
  F   F320      1.0  0.98853  0.91684  0.71684  1.0000
  F   F321      1.0  0.20468  0.45663  0.47996  1.0000
  F   F322      1.0  0.20696  0.47575  0.98250  1.0000
  F   F323      1.0  0.20254  0.96518  0.49958  1.0000
  F   F324      1.0  0.20801  0.96846  0.97429  1.0000
  F   F325      1.0  0.45396  0.46659  0.46997  1.0000
  F   F326      1.0  0.45414  0.47038  0.97650  1.0000
  F   F327      1.0  0.45708  0.97323  0.47428  1.0000
  F   F328      1.0  0.44797  0.97550  0.98400  1.0000
  F   F329      1.0  0.70263  0.46899  0.48837  1.0000
  F   F330      1.0  0.71349  0.46354  0.97369  1.0000
  F   F331      1.0  0.70758  0.96729  0.48376  1.0000
  F   F332      1.0  0.70288  0.95710  0.97111  1.0000
  F   F333      1.0  0.95412  0.46730  0.48454  1.0000
  F   F334      1.0  0.95682  0.46485  0.97818  1.0000
  F   F335      1.0  0.94778  0.97144  0.49362  1.0000
  F   F336      1.0  0.94150  0.98976  0.98748  1.0000
  F   F337      1.0  0.02085  0.09036  0.27926  1.0000
  F   F338      1.0  0.01065  0.10162  0.76576  1.0000
  F   F339      1.0  0.01470  0.58385  0.27944  1.0000
  F   F340      1.0  0.01372  0.57800  0.78198  1.0000
  F   F341      1.0  0.26458  0.06960  0.28901  1.0000
  F   F342      1.0  0.26397  0.09529  0.77175  1.0000
  F   F343      1.0  0.26862  0.57127  0.29361  1.0000
  F   F344      1.0  0.26671  0.59867  0.79044  1.0000
  F   F345      1.0  0.52640  0.07074  0.27117  1.0000
  F   F346      1.0  0.52010  0.07228  0.77636  1.0000
  F   F347      1.0  0.51748  0.58717  0.27623  1.0000
  F   F348      1.0  0.51736  0.58785  0.77265  1.0000
  F   F349      1.0  0.76321  0.09104  0.27763  1.0000
  F   F350      1.0  0.76322  0.09134  0.75555  1.0000
  F   F351      1.0  0.76770  0.58882  0.27234  1.0000
  F   F352      1.0  0.76424  0.58396  0.77575  1.0000
  F   F353      1.0  0.09862  0.41330  0.46293  1.0000
  F   F354      1.0  0.10290  0.40670  0.96186  1.0000
  F   F355      1.0  0.10373  0.90668  0.46728  1.0000
  F   F356      1.0  0.10210  0.89367  0.97061  1.0000
  F   F357      1.0  0.35383  0.42002  0.44482  1.0000
  F   F358      1.0  0.35130  0.39187  0.96223  1.0000
  F   F359      1.0  0.36150  0.88528  0.46589  1.0000
  F   F360      1.0  0.35144  0.88718  0.94832  1.0000
  F   F361      1.0  0.60172  0.40368  0.46190  1.0000
  F   F362      1.0  0.60467  0.41360  0.95518  1.0000
  F   F363      1.0  0.60530  0.92934  0.45932  1.0000
  F   F364      1.0  0.60037  0.92434  0.95428  1.0000
  F   F365      1.0  0.84488  0.42165  0.45897  1.0000
  F   F366      1.0  0.84982  0.41859  0.95103  1.0000
  F   F367      1.0  0.85487  0.91165  0.44954  1.0000
  F   F368      1.0  0.85565  0.88594  0.97801  1.0000
  F   F369      1.0  0.05518  0.30582  0.28121  1.0000
  F   F370      1.0  0.05185  0.28765  0.78032  1.0000
  F   F371      1.0  0.04087  0.80447  0.29695  1.0000
  F   F372      1.0  0.04683  0.80102  0.79173  1.0000
  F   F373      1.0  0.29232  0.29492  0.29650  1.0000
  F   F374      1.0  0.28830  0.30945  0.79039  1.0000
  F   F375      1.0  0.28127  0.79258  0.28706  1.0000
  F   F376      1.0  0.29480  0.79948  0.80393  1.0000
  F   F377      1.0  0.54868  0.30701  0.28845  1.0000
  F   F378      1.0  0.54569  0.30098  0.80307  1.0000
  F   F379      1.0  0.55564  0.80429  0.30028  1.0000
  F   F380      1.0  0.55139  0.81951  0.77451  1.0000
  F   F381      1.0  0.78632  0.29856  0.29335  1.0000
  F   F382      1.0  0.79115  0.29535  0.77650  1.0000
  F   F383      1.0  0.78976  0.79924  0.28784  1.0000
  F   F384      1.0  0.78628  0.80047  0.79358  1.0000
