data_image0
_chemical_formula_structural       Hf96F384
_chemical_formula_sum              "Hf96 F384"
_cell_length_a       31.0556
_cell_length_b       15.525
_cell_length_c       15.5196
_cell_angle_alpha    63.342
_cell_angle_beta     63.342
_cell_angle_gamma    80.1625

_space_group_name_H-M_alt    "P 1"
_space_group_IT_number       1

loop_
  _space_group_symop_operation_xyz
  'x, y, z'

loop_
  _atom_site_type_symbol
  _atom_site_label
  _atom_site_symmetry_multiplicity
  _atom_site_fract_x
  _atom_site_fract_y
  _atom_site_fract_z
  _atom_site_occupancy
  Hf  Hf1       1.0  0.19585  0.11856  0.36682  1.0000
  Hf  Hf2       1.0  0.19428  0.10345  0.87850  1.0000
  Hf  Hf3       1.0  0.19514  0.60788  0.37172  1.0000
  Hf  Hf4       1.0  0.19727  0.60679  0.86599  1.0000
  Hf  Hf5       1.0  0.44676  0.10708  0.37670  1.0000
  Hf  Hf6       1.0  0.44668  0.11174  0.86708  1.0000
  Hf  Hf7       1.0  0.44755  0.61750  0.37062  1.0000
  Hf  Hf8       1.0  0.44959  0.61168  0.86366  1.0000
  Hf  Hf9       1.0  0.69200  0.10411  0.37568  1.0000
  Hf  Hf10      1.0  0.69498  0.11289  0.87995  1.0000
  Hf  Hf11      1.0  0.69603  0.60436  0.37229  1.0000
  Hf  Hf12      1.0  0.69917  0.61172  0.87574  1.0000
  Hf  Hf13      1.0  0.94719  0.10379  0.37493  1.0000
  Hf  Hf14      1.0  0.94690  0.10016  0.89010  1.0000
  Hf  Hf15      1.0  0.94710  0.60495  0.37693  1.0000
  Hf  Hf16      1.0  0.94866  0.60723  0.86729  1.0000
  Hf  Hf17      1.0  0.05163  0.38768  0.13167  1.0000
  Hf  Hf18      1.0  0.05766  0.38895  0.62270  1.0000
  Hf  Hf19      1.0  0.05294  0.89617  0.12046  1.0000
  Hf  Hf20      1.0  0.04970  0.88746  0.63862  1.0000
  Hf  Hf21      1.0  0.30334  0.39558  0.11903  1.0000
  Hf  Hf22      1.0  0.30379  0.38762  0.62598  1.0000
  Hf  Hf23      1.0  0.30175  0.89170  0.13271  1.0000
  Hf  Hf24      1.0  0.30373  0.89180  0.61916  1.0000
  Hf  Hf25      1.0  0.55127  0.39153  0.13664  1.0000
  Hf  Hf26      1.0  0.55583  0.39241  0.62549  1.0000
  Hf  Hf27      1.0  0.55034  0.90259  0.12532  1.0000
  Hf  Hf28      1.0  0.55273  0.88473  0.63328  1.0000
  Hf  Hf29      1.0  0.80586  0.38888  0.11883  1.0000
  Hf  Hf30      1.0  0.80149  0.39367  0.63364  1.0000
  Hf  Hf31      1.0  0.80076  0.89395  0.12676  1.0000
  Hf  Hf32      1.0  0.80396  0.89569  0.62618  1.0000
  Hf  Hf33      1.0  0.05665  0.19122  0.40860  1.0000
  Hf  Hf34      1.0  0.05826  0.18483  0.91449  1.0000
  Hf  Hf35      1.0  0.05571  0.68207  0.40969  1.0000
  Hf  Hf36      1.0  0.05547  0.67548  0.92207  1.0000
  Hf  Hf37      1.0  0.30935  0.18522  0.41251  1.0000
  Hf  Hf38      1.0  0.30318  0.18672  0.92001  1.0000
  Hf  Hf39      1.0  0.30452  0.67834  0.41478  1.0000
  Hf  Hf40      1.0  0.30511  0.68738  0.90808  1.0000
  Hf  Hf41      1.0  0.55289  0.17557  0.42177  1.0000
  Hf  Hf42      1.0  0.55610  0.18886  0.90886  1.0000
  Hf  Hf43      1.0  0.55803  0.67862  0.41563  1.0000
  Hf  Hf44      1.0  0.55429  0.67288  0.92323  1.0000
  Hf  Hf45      1.0  0.80775  0.18473  0.41551  1.0000
  Hf  Hf46      1.0  0.81073  0.18798  0.91332  1.0000
  Hf  Hf47      1.0  0.80607  0.68177  0.41704  1.0000
  Hf  Hf48      1.0  0.80450  0.68590  0.91484  1.0000
  Hf  Hf49      1.0  0.15551  0.39587  0.33027  1.0000
  Hf  Hf50      1.0  0.16054  0.38408  0.83096  1.0000
  Hf  Hf51      1.0  0.16077  0.89003  0.32359  1.0000
  Hf  Hf52      1.0  0.16225  0.88653  0.82291  1.0000
  Hf  Hf53      1.0  0.40552  0.39316  0.33309  1.0000
  Hf  Hf54      1.0  0.40846  0.39029  0.82446  1.0000
  Hf  Hf55      1.0  0.40648  0.88387  0.33957  1.0000
  Hf  Hf56      1.0  0.40577  0.88245  0.84018  1.0000
  Hf  Hf57      1.0  0.66310  0.38753  0.33088  1.0000
  Hf  Hf58      1.0  0.65699  0.38856  0.83748  1.0000
  Hf  Hf59      1.0  0.65501  0.87793  0.35019  1.0000
  Hf  Hf60      1.0  0.65697  0.89001  0.83551  1.0000
  Hf  Hf61      1.0  0.90978  0.38187  0.34170  1.0000
  Hf  Hf62      1.0  0.91266  0.37936  0.83532  1.0000
  Hf  Hf63      1.0  0.90890  0.88437  0.33639  1.0000
  Hf  Hf64      1.0  0.90616  0.89061  0.84087  1.0000
  Hf  Hf65      1.0  0.19336  0.32218  0.08314  1.0000
  Hf  Hf66      1.0  0.19920  0.31966  0.56882  1.0000
  Hf  Hf67      1.0  0.19256  0.81811  0.08526  1.0000
  Hf  Hf68      1.0  0.19395  0.82445  0.57238  1.0000
  Hf  Hf69      1.0  0.44219  0.32619  0.07682  1.0000
  Hf  Hf70      1.0  0.44534  0.32579  0.57171  1.0000
  Hf  Hf71      1.0  0.44697  0.82252  0.08678  1.0000
  Hf  Hf72      1.0  0.44594  0.81913  0.58036  1.0000
  Hf  Hf73      1.0  0.69818  0.32177  0.07489  1.0000
  Hf  Hf74      1.0  0.69443  0.31364  0.58766  1.0000
  Hf  Hf75      1.0  0.68995  0.81763  0.08904  1.0000
  Hf  Hf76      1.0  0.69255  0.81326  0.59136  1.0000
  Hf  Hf77      1.0  0.94193  0.31815  0.08695  1.0000
  Hf  Hf78      1.0  0.94548  0.31200  0.59069  1.0000
  Hf  Hf79      1.0  0.94142  0.81648  0.08712  1.0000
  Hf  Hf80      1.0  0.94519  0.81874  0.57945  1.0000
  Hf  Hf81      1.0  0.08807  0.10922  0.17642  1.0000
  Hf  Hf82      1.0  0.09072  0.10766  0.67168  1.0000
  Hf  Hf83      1.0  0.09597  0.61320  0.15767  1.0000
  Hf  Hf84      1.0  0.09425  0.60498  0.65832  1.0000
  Hf  Hf85      1.0  0.34348  0.11512  0.16275  1.0000
  Hf  Hf86      1.0  0.34192  0.10225  0.67078  1.0000
  Hf  Hf87      1.0  0.33986  0.60912  0.16479  1.0000
  Hf  Hf88      1.0  0.34389  0.61271  0.66366  1.0000
  Hf  Hf89      1.0  0.58746  0.11376  0.16640  1.0000
  Hf  Hf90      1.0  0.59366  0.10967  0.66239  1.0000
  Hf  Hf91      1.0  0.58991  0.61905  0.17077  1.0000
  Hf  Hf92      1.0  0.59331  0.61258  0.66292  1.0000
  Hf  Hf93      1.0  0.83960  0.10715  0.17320  1.0000
  Hf  Hf94      1.0  0.83766  0.11459  0.66968  1.0000
  Hf  Hf95      1.0  0.83969  0.60809  0.17536  1.0000
  Hf  Hf96      1.0  0.84185  0.61291  0.66805  1.0000
  F   F1        1.0  0.07709  0.12353  0.31064  1.0000
  F   F2        1.0  0.07660  0.12379  0.81187  1.0000
  F   F3        1.0  0.06594  0.62686  0.31252  1.0000
  F   F4        1.0  0.08101  0.61569  0.81395  1.0000
  F   F5        1.0  0.32730  0.11131  0.30165  1.0000
  F   F6        1.0  0.33331  0.14039  0.80352  1.0000
  F   F7        1.0  0.33399  0.62416  0.30520  1.0000
  F   F8        1.0  0.32406  0.63156  0.80029  1.0000
  F   F9        1.0  0.57222  0.13423  0.29747  1.0000
  F   F10       1.0  0.58024  0.12310  0.80134  1.0000
  F   F11       1.0  0.58264  0.62460  0.30693  1.0000
  F   F12       1.0  0.57587  0.61824  0.80885  1.0000
  F   F13       1.0  0.82129  0.12119  0.31519  1.0000
  F   F14       1.0  0.83486  0.14063  0.80267  1.0000
  F   F15       1.0  0.83747  0.62598  0.30551  1.0000
  F   F16       1.0  0.82766  0.63638  0.79974  1.0000
  F   F17       1.0  0.17870  0.34269  0.45259  1.0000
  F   F18       1.0  0.18547  0.34121  0.95323  1.0000
  F   F19       1.0  0.19044  0.84355  0.43233  1.0000
  F   F20       1.0  0.17806  0.82453  0.95595  1.0000
  F   F21       1.0  0.43705  0.33040  0.45223  1.0000
  F   F22       1.0  0.43450  0.33756  0.94538  1.0000
  F   F23       1.0  0.43270  0.84698  0.44880  1.0000
  F   F24       1.0  0.43121  0.84988  0.95497  1.0000
  F   F25       1.0  0.69190  0.34454  0.43965  1.0000
  F   F26       1.0  0.68624  0.34409  0.95153  1.0000
  F   F27       1.0  0.68133  0.82306  0.46269  1.0000
  F   F28       1.0  0.68358  0.83240  0.96084  1.0000
  F   F29       1.0  0.93875  0.35482  0.44188  1.0000
  F   F30       1.0  0.93017  0.31626  0.96492  1.0000
  F   F31       1.0  0.93005  0.83553  0.45480  1.0000
  F   F32       1.0  0.93264  0.84644  0.94789  1.0000
  F   F33       1.0  0.17232  0.39159  0.18190  1.0000
  F   F34       1.0  0.17780  0.36825  0.68941  1.0000
  F   F35       1.0  0.17363  0.88213  0.18558  1.0000
  F   F36       1.0  0.16874  0.87903  0.68629  1.0000
  F   F37       1.0  0.41370  0.36385  0.20753  1.0000
  F   F38       1.0  0.42340  0.38821  0.68118  1.0000
  F   F39       1.0  0.41366  0.84532  0.21353  1.0000
  F   F40       1.0  0.42345  0.86845  0.69735  1.0000
  F   F41       1.0  0.67928  0.36543  0.19924  1.0000
  F   F42       1.0  0.67417  0.36184  0.69913  1.0000
  F   F43       1.0  0.65960  0.84918  0.22193  1.0000
  F   F44       1.0  0.67236  0.85281  0.70159  1.0000
  F   F45       1.0  0.92151  0.34933  0.21119  1.0000
  F   F46       1.0  0.92147  0.36643  0.70088  1.0000
  F   F47       1.0  0.92627  0.88441  0.18503  1.0000
  F   F48       1.0  0.92071  0.86928  0.70244  1.0000
  F   F49       1.0  0.06447  0.16718  0.05611  1.0000
  F   F50       1.0  0.06280  0.13995  0.56950  1.0000
  F   F51       1.0  0.05680  0.65322  0.05182  1.0000
  F   F52       1.0  0.06446  0.65855  0.54848  1.0000
  F   F53       1.0  0.31784  0.16873  0.05141  1.0000
  F   F54       1.0  0.31917  0.15602  0.55434  1.0000
  F   F55       1.0  0.30767  0.65089  0.06059  1.0000
  F   F56       1.0  0.31401  0.66446  0.55243  1.0000
  F   F57       1.0  0.56683  0.16619  0.03701  1.0000
  F   F58       1.0  0.56676  0.15310  0.55494  1.0000
  F   F59       1.0  0.56391  0.66574  0.05214  1.0000
  F   F60       1.0  0.55760  0.64742  0.56756  1.0000
  F   F61       1.0  0.81969  0.16477  0.03971  1.0000
  F   F62       1.0  0.81829  0.15801  0.55339  1.0000
  F   F63       1.0  0.81467  0.65738  0.04642  1.0000
  F   F64       1.0  0.81634  0.67462  0.56010  1.0000
  F   F65       1.0  0.18313  0.20369  0.22255  1.0000
  F   F66       1.0  0.20384  0.20670  0.73274  1.0000
  F   F67       1.0  0.20663  0.70640  0.21579  1.0000
  F   F68       1.0  0.20664  0.71563  0.69285  1.0000
  F   F69       1.0  0.45619  0.20420  0.21188  1.0000
  F   F70       1.0  0.44807  0.21049  0.70385  1.0000
  F   F71       1.0  0.46651  0.70088  0.20916  1.0000
  F   F72       1.0  0.46383  0.70447  0.70460  1.0000
  F   F73       1.0  0.71519  0.19788  0.21663  1.0000
  F   F74       1.0  0.70729  0.19352  0.71040  1.0000
  F   F75       1.0  0.70884  0.69562  0.20835  1.0000
  F   F76       1.0  0.70699  0.69220  0.71772  1.0000
  F   F77       1.0  0.95971  0.19900  0.22065  1.0000
  F   F78       1.0  0.94660  0.19154  0.70998  1.0000
  F   F79       1.0  0.94093  0.70333  0.22444  1.0000
  F   F80       1.0  0.97009  0.70887  0.69303  1.0000
  F   F81       1.0  0.14582  0.07101  0.04358  1.0000
  F   F82       1.0  0.15214  0.10409  0.53161  1.0000
  F   F83       1.0  0.15162  0.59577  0.03042  1.0000
  F   F84       1.0  0.15260  0.58376  0.53664  1.0000
  F   F85       1.0  0.39882  0.08575  0.04462  1.0000
  F   F86       1.0  0.39767  0.08985  0.53016  1.0000
  F   F87       1.0  0.39438  0.62252  0.03064  1.0000
  F   F88       1.0  0.40133  0.61067  0.52669  1.0000
  F   F89       1.0  0.64526  0.10514  0.02951  1.0000
  F   F90       1.0  0.65283  0.08756  0.53970  1.0000
  F   F91       1.0  0.64450  0.61035  0.04205  1.0000
  F   F92       1.0  0.65140  0.61365  0.53474  1.0000
  F   F93       1.0  0.89981  0.08867  0.05020  1.0000
  F   F94       1.0  0.90146  0.08464  0.53450  1.0000
  F   F95       1.0  0.89858  0.58443  0.03034  1.0000
  F   F96       1.0  0.89990  0.59650  0.54765  1.0000
  F   F97       1.0  0.14239  0.19729  0.12416  1.0000
  F   F98       1.0  0.15923  0.18947  0.63218  1.0000
  F   F99       1.0  0.15415  0.68419  0.14662  1.0000
  F   F100      1.0  0.15185  0.68960  0.62691  1.0000
  F   F101      1.0  0.39817  0.20692  0.12422  1.0000
  F   F102      1.0  0.40108  0.18078  0.61868  1.0000
  F   F103      1.0  0.41356  0.70028  0.12630  1.0000
  F   F104      1.0  0.39734  0.71183  0.62259  1.0000
  F   F105      1.0  0.65316  0.20376  0.13447  1.0000
  F   F106      1.0  0.65504  0.20547  0.61626  1.0000
  F   F107      1.0  0.64967  0.69736  0.14593  1.0000
  F   F108      1.0  0.64820  0.70099  0.64119  1.0000
  F   F109      1.0  0.89897  0.19805  0.15291  1.0000
  F   F110      1.0  0.89621  0.20265  0.61524  1.0000
  F   F111      1.0  0.90191  0.69708  0.10543  1.0000
  F   F112      1.0  0.90655  0.70111  0.62904  1.0000
  F   F113      1.0  0.09384  0.30943  0.38052  1.0000
  F   F114      1.0  0.09770  0.31477  0.85412  1.0000
  F   F115      1.0  0.10369  0.78961  0.33552  1.0000
  F   F116      1.0  0.10057  0.79275  0.87045  1.0000
  F   F117      1.0  0.34399  0.30951  0.38826  1.0000
  F   F118      1.0  0.35158  0.30703  0.87352  1.0000
  F   F119      1.0  0.35178  0.80501  0.37411  1.0000
  F   F120      1.0  0.34368  0.81229  0.88249  1.0000
  F   F121      1.0  0.59842  0.28569  0.35381  1.0000
  F   F122      1.0  0.59952  0.31680  0.86472  1.0000
  F   F123      1.0  0.59451  0.79541  0.39773  1.0000
  F   F124      1.0  0.59406  0.81234  0.89545  1.0000
  F   F125      1.0  0.85081  0.29334  0.38983  1.0000
  F   F126      1.0  0.84772  0.30992  0.87718  1.0000
  F   F127      1.0  0.85047  0.80788  0.36035  1.0000
  F   F128      1.0  0.84806  0.80802  0.87478  1.0000
  F   F129      1.0  0.05752  0.23517  0.17075  1.0000
  F   F130      1.0  0.07602  0.25459  0.62080  1.0000
  F   F131      1.0  0.08333  0.74983  0.10539  1.0000
  F   F132      1.0  0.06649  0.74225  0.64464  1.0000
  F   F133      1.0  0.31677  0.26307  0.13331  1.0000
  F   F134      1.0  0.30863  0.24923  0.66167  1.0000
  F   F135      1.0  0.32574  0.75383  0.12580  1.0000
  F   F136      1.0  0.31469  0.74784  0.64557  1.0000
  F   F137      1.0  0.56682  0.25255  0.13604  1.0000
  F   F138      1.0  0.56764  0.25221  0.63993  1.0000
  F   F139      1.0  0.55856  0.75153  0.15841  1.0000
  F   F140      1.0  0.56660  0.74288  0.62778  1.0000
  F   F141      1.0  0.82076  0.25347  0.14126  1.0000
  F   F142      1.0  0.80347  0.24590  0.67174  1.0000
  F   F143      1.0  0.81580  0.75297  0.13125  1.0000
  F   F144      1.0  0.81743  0.75360  0.65345  1.0000
  F   F145      1.0  0.12644  0.38038  0.10234  1.0000
  F   F146      1.0  0.12806  0.37085  0.61365  1.0000
  F   F147      1.0  0.12807  0.87296  0.10661  1.0000
  F   F148      1.0  0.12761  0.87954  0.59541  1.0000
  F   F149      1.0  0.37853  0.39934  0.09251  1.0000
  F   F150      1.0  0.37559  0.35922  0.61945  1.0000
  F   F151      1.0  0.37230  0.88172  0.10203  1.0000
  F   F152      1.0  0.37699  0.88480  0.59465  1.0000
  F   F153      1.0  0.62169  0.36795  0.12483  1.0000
  F   F154      1.0  0.62711  0.38219  0.58792  1.0000
  F   F155      1.0  0.61608  0.87213  0.12125  1.0000
  F   F156      1.0  0.62073  0.86727  0.61580  1.0000
  F   F157      1.0  0.87669  0.38685  0.09666  1.0000
  F   F158      1.0  0.87160  0.36292  0.60930  1.0000
  F   F159      1.0  0.87234  0.85634  0.12304  1.0000
  F   F160      1.0  0.87573  0.87583  0.61513  1.0000
  F   F161      1.0  0.17811  0.25800  0.35351  1.0000
  F   F162      1.0  0.17264  0.23988  0.88900  1.0000
  F   F163      1.0  0.17304  0.74118  0.38020  1.0000
  F   F164      1.0  0.19247  0.75291  0.83522  1.0000
  F   F165      1.0  0.43352  0.25427  0.35792  1.0000
  F   F166      1.0  0.43917  0.25764  0.84213  1.0000
  F   F167      1.0  0.44629  0.75381  0.35519  1.0000
  F   F168      1.0  0.44202  0.75702  0.84440  1.0000
  F   F169      1.0  0.67509  0.24738  0.36929  1.0000
  F   F170      1.0  0.69142  0.25643  0.85047  1.0000
  F   F171      1.0  0.68261  0.74363  0.36356  1.0000
  F   F172      1.0  0.68639  0.74645  0.86096  1.0000
  F   F173      1.0  0.93793  0.24499  0.37090  1.0000
  F   F174      1.0  0.94706  0.24647  0.84713  1.0000
  F   F175      1.0  0.94007  0.74453  0.36226  1.0000
  F   F176      1.0  0.93339  0.74162  0.86537  1.0000
  F   F177      1.0  0.12682  0.13914  0.39452  1.0000
  F   F178      1.0  0.12378  0.13221  0.88587  1.0000
  F   F179      1.0  0.12795  0.62261  0.37956  1.0000
  F   F180      1.0  0.12858  0.62970  0.88946  1.0000
  F   F181      1.0  0.37537  0.13812  0.37946  1.0000
  F   F182      1.0  0.37347  0.13952  0.90542  1.0000
  F   F183      1.0  0.37808  0.64895  0.38894  1.0000
  F   F184      1.0  0.37880  0.63898  0.87485  1.0000
  F   F185      1.0  0.62275  0.12256  0.39262  1.0000
  F   F186      1.0  0.63085  0.15960  0.86370  1.0000
  F   F187      1.0  0.62609  0.61677  0.39978  1.0000
  F   F188      1.0  0.62477  0.61873  0.89636  1.0000
  F   F189      1.0  0.87446  0.12000  0.39024  1.0000
  F   F190      1.0  0.88158  0.13792  0.89866  1.0000
  F   F191      1.0  0.87387  0.62367  0.41833  1.0000
  F   F192      1.0  0.87503  0.63024  0.87824  1.0000
  F   F193      1.0  0.00975  0.35814  0.07825  1.0000
  F   F194      1.0  0.00881  0.34532  0.59258  1.0000
  F   F195      1.0  0.01349  0.83768  0.08560  1.0000
  F   F196      1.0  0.00712  0.87030  0.58146  1.0000
  F   F197      1.0  0.25846  0.34894  0.06757  1.0000
  F   F198      1.0  0.26131  0.36003  0.56679  1.0000
  F   F199      1.0  0.25743  0.85079  0.09239  1.0000
  F   F200      1.0  0.25995  0.88101  0.56268  1.0000
  F   F201      1.0  0.50406  0.34880  0.08565  1.0000
  F   F202      1.0  0.50631  0.37139  0.56372  1.0000
  F   F203      1.0  0.50788  0.87509  0.06739  1.0000
  F   F204      1.0  0.51278  0.87185  0.56497  1.0000
  F   F205      1.0  0.76743  0.36731  0.04024  1.0000
  F   F206      1.0  0.75988  0.36164  0.57272  1.0000
  F   F207      1.0  0.75464  0.87038  0.08076  1.0000
  F   F208      1.0  0.75536  0.86570  0.57808  1.0000
  F   F209      1.0  0.06819  0.48535  0.18772  1.0000
  F   F210      1.0  0.07164  0.48064  0.67262  1.0000
  F   F211      1.0  0.06125  0.97758  0.18754  1.0000
  F   F212      1.0  0.06144  0.98278  0.70231  1.0000
  F   F213      1.0  0.31629  0.48661  0.17423  1.0000
  F   F214      1.0  0.32513  0.48706  0.66309  1.0000
  F   F215      1.0  0.30869  0.98596  0.19574  1.0000
  F   F216      1.0  0.32250  0.97892  0.66687  1.0000
  F   F217      1.0  0.56674  0.48327  0.17463  1.0000
  F   F218      1.0  0.57265  0.47074  0.69055  1.0000
  F   F219      1.0  0.55826  0.98478  0.18697  1.0000
  F   F220      1.0  0.56703  0.98809  0.67305  1.0000
  F   F221      1.0  0.81378  0.48678  0.17232  1.0000
  F   F222      1.0  0.81728  0.48478  0.68131  1.0000
  F   F223      1.0  0.81974  0.98957  0.16577  1.0000
  F   F224      1.0  0.81803  0.98444  0.68250  1.0000
  F   F225      1.0  0.24660  0.15275  0.40754  1.0000
  F   F226      1.0  0.24307  0.14445  0.91356  1.0000
  F   F227      1.0  0.23576  0.64001  0.43336  1.0000
  F   F228      1.0  0.24258  0.63930  0.91983  1.0000
  F   F229      1.0  0.48681  0.12742  0.44120  1.0000
  F   F230      1.0  0.49576  0.15214  0.91123  1.0000
  F   F231      1.0  0.49394  0.62948  0.42607  1.0000
  F   F232      1.0  0.48870  0.64048  0.92263  1.0000
  F   F233      1.0  0.73966  0.14452  0.41741  1.0000
  F   F234      1.0  0.73741  0.13709  0.93460  1.0000
  F   F235      1.0  0.74757  0.63484  0.41042  1.0000
  F   F236      1.0  0.73787  0.62881  0.93995  1.0000
  F   F237      1.0  0.99414  0.13112  0.43146  1.0000
  F   F238      1.0  0.99290  0.12359  0.92970  1.0000
  F   F239      1.0  0.98657  0.62287  0.44961  1.0000
  F   F240      1.0  0.99016  0.63628  0.93281  1.0000
  F   F241      1.0  0.17834  0.02274  0.31771  1.0000
  F   F242      1.0  0.18009  0.01050  0.83130  1.0000
  F   F243      1.0  0.18750  0.51347  0.30364  1.0000
  F   F244      1.0  0.18778  0.50780  0.81878  1.0000
  F   F245      1.0  0.43349  0.01477  0.32511  1.0000
  F   F246      1.0  0.43128  0.01845  0.81861  1.0000
  F   F247      1.0  0.42861  0.52045  0.32741  1.0000
  F   F248      1.0  0.43923  0.51937  0.80861  1.0000
  F   F249      1.0  0.68282  0.00505  0.31875  1.0000
  F   F250      1.0  0.68283  0.02006  0.82931  1.0000
  F   F251      1.0  0.69372  0.51744  0.29318  1.0000
  F   F252      1.0  0.68826  0.51339  0.82273  1.0000
  F   F253      1.0  0.93205  0.00916  0.32369  1.0000
  F   F254      1.0  0.93246  0.01077  0.83410  1.0000
  F   F255      1.0  0.93208  0.52530  0.30852  1.0000
  F   F256      1.0  0.93439  0.52262  0.81172  1.0000
  F   F257      1.0  0.99626  0.24529  0.00793  1.0000
  F   F258      1.0  0.99998  0.25343  0.50338  1.0000
  F   F259      1.0  0.99869  0.76720  0.98135  1.0000
  F   F260      1.0  0.00500  0.78222  0.47009  1.0000
  F   F261      1.0  0.24659  0.22445  0.02286  1.0000
  F   F262      1.0  0.25079  0.23816  0.50184  1.0000
  F   F263      1.0  0.24728  0.75774  0.99241  1.0000
  F   F264      1.0  0.25235  0.76373  0.47975  1.0000
  F   F265      1.0  0.50311  0.26719  0.98241  1.0000
  F   F266      1.0  0.50198  0.24139  0.50536  1.0000
  F   F267      1.0  0.50217  0.74755  0.99826  1.0000
  F   F268      1.0  0.49446  0.74966  0.50451  1.0000
  F   F269      1.0  0.74806  0.23853  0.01267  1.0000
  F   F270      1.0  0.74872  0.23460  0.51580  1.0000
  F   F271      1.0  0.75271  0.76036  0.00470  1.0000
  F   F272      1.0  0.74468  0.74233  0.50758  1.0000
  F   F273      1.0  0.11748  0.99560  0.25452  1.0000
  F   F274      1.0  0.13385  0.00360  0.73441  1.0000
  F   F275      1.0  0.12162  0.50305  0.25325  1.0000
  F   F276      1.0  0.12631  0.49705  0.74712  1.0000
  F   F277      1.0  0.38222  0.99912  0.24277  1.0000
  F   F278      1.0  0.37816  0.99724  0.73342  1.0000
  F   F279      1.0  0.37494  0.49947  0.24486  1.0000
  F   F280      1.0  0.37478  0.50307  0.74438  1.0000
  F   F281      1.0  0.61520  0.99683  0.25257  1.0000
  F   F282      1.0  0.62173  0.99045  0.75719  1.0000
  F   F283      1.0  0.61902  0.49151  0.25663  1.0000
  F   F284      1.0  0.62835  0.50109  0.74844  1.0000
  F   F285      1.0  0.87505  0.00268  0.25629  1.0000
  F   F286      1.0  0.86931  0.00191  0.75563  1.0000
  F   F287      1.0  0.87363  0.48256  0.24513  1.0000
  F   F288      1.0  0.87398  0.48978  0.76680  1.0000
  F   F289      1.0  0.04257  0.04106  0.02103  1.0000
  F   F290      1.0  0.04827  0.02130  0.52371  1.0000
  F   F291      1.0  0.04441  0.52354  0.02928  1.0000
  F   F292      1.0  0.04098  0.52936  0.53342  1.0000
  F   F293      1.0  0.29429  0.03613  0.03229  1.0000
  F   F294      1.0  0.29793  0.04115  0.51728  1.0000
  F   F295      1.0  0.28827  0.52062  0.01533  1.0000
  F   F296      1.0  0.30004  0.53790  0.51214  1.0000
  F   F297      1.0  0.54262  0.03902  0.01517  1.0000
  F   F298      1.0  0.54121  0.02896  0.52350  1.0000
  F   F299      1.0  0.53958  0.53252  0.02792  1.0000
  F   F300      1.0  0.54411  0.53237  0.52807  1.0000
  F   F301      1.0  0.78796  0.04571  0.02533  1.0000
  F   F302      1.0  0.78459  0.02754  0.54504  1.0000
  F   F303      1.0  0.79461  0.52423  0.01123  1.0000
  F   F304      1.0  0.78915  0.55365  0.53898  1.0000
  F   F305      1.0  0.23552  0.39137  0.22819  1.0000
  F   F306      1.0  0.23185  0.40335  0.72194  1.0000
  F   F307      1.0  0.23634  0.91020  0.23176  1.0000
  F   F308      1.0  0.23423  0.90350  0.73091  1.0000
  F   F309      1.0  0.48030  0.41845  0.22323  1.0000
  F   F310      1.0  0.48643  0.40681  0.73170  1.0000
  F   F311      1.0  0.48231  0.90436  0.22778  1.0000
  F   F312      1.0  0.48687  0.92068  0.73100  1.0000
  F   F313      1.0  0.74047  0.38350  0.24349  1.0000
  F   F314      1.0  0.73383  0.42471  0.72293  1.0000
  F   F315      1.0  0.73347  0.90644  0.23693  1.0000
  F   F316      1.0  0.73054  0.92389  0.72388  1.0000
  F   F317      1.0  0.98632  0.40682  0.23619  1.0000
  F   F318      1.0  0.98478  0.41050  0.73084  1.0000
  F   F319      1.0  0.98111  0.91599  0.23240  1.0000
  F   F320      1.0  0.98411  0.90843  0.74049  1.0000
  F   F321      1.0  0.20555  0.47422  0.46579  1.0000
  F   F322      1.0  0.20369  0.47385  0.98197  1.0000
  F   F323      1.0  0.20679  0.97586  0.46936  1.0000
  F   F324      1.0  0.20792  0.96005  0.97441  1.0000
  F   F325      1.0  0.45573  0.46834  0.47399  1.0000
  F   F326      1.0  0.45740  0.46526  0.96741  1.0000
  F   F327      1.0  0.46411  0.96478  0.47267  1.0000
  F   F328      1.0  0.46320  0.97346  0.97283  1.0000
  F   F329      1.0  0.70000  0.47374  0.47868  1.0000
  F   F330      1.0  0.70203  0.47604  0.98497  1.0000
  F   F331      1.0  0.70050  0.96385  0.46770  1.0000
  F   F332      1.0  0.70311  0.96266  0.98641  1.0000
  F   F333      1.0  0.95789  0.46722  0.48283  1.0000
  F   F334      1.0  0.95984  0.46325  0.96236  1.0000
  F   F335      1.0  0.95730  0.96326  0.48343  1.0000
  F   F336      1.0  0.95890  0.95902  0.98797  1.0000
  F   F337      1.0  0.01370  0.07176  0.28509  1.0000
  F   F338      1.0  0.00847  0.10049  0.77193  1.0000
  F   F339      1.0  0.01299  0.59978  0.26313  1.0000
  F   F340      1.0  0.02306  0.58354  0.77641  1.0000
  F   F341      1.0  0.25852  0.12991  0.25019  1.0000
  F   F342      1.0  0.27041  0.07389  0.77750  1.0000
  F   F343      1.0  0.26670  0.59903  0.27181  1.0000
  F   F344      1.0  0.26444  0.58697  0.76687  1.0000
  F   F345      1.0  0.51477  0.09151  0.26496  1.0000
  F   F346      1.0  0.51412  0.09906  0.76327  1.0000
  F   F347      1.0  0.51814  0.57636  0.28173  1.0000
  F   F348      1.0  0.51259  0.58268  0.77761  1.0000
  F   F349      1.0  0.76762  0.06721  0.27163  1.0000
  F   F350      1.0  0.76420  0.07636  0.78623  1.0000
  F   F351      1.0  0.76826  0.57778  0.28035  1.0000
  F   F352      1.0  0.76499  0.57306  0.78529  1.0000
  F   F353      1.0  0.09893  0.42303  0.45359  1.0000
  F   F354      1.0  0.10051  0.39385  0.95845  1.0000
  F   F355      1.0  0.10191  0.89233  0.44741  1.0000
  F   F356      1.0  0.10104  0.91655  0.95526  1.0000
  F   F357      1.0  0.35412  0.40203  0.46972  1.0000
  F   F358      1.0  0.35407  0.41992  0.95051  1.0000
  F   F359      1.0  0.35046  0.91165  0.45729  1.0000
  F   F360      1.0  0.34732  0.91003  0.96525  1.0000
  F   F361      1.0  0.59999  0.40129  0.45645  1.0000
  F   F362      1.0  0.60309  0.40765  0.96765  1.0000
  F   F363      1.0  0.60357  0.91737  0.46849  1.0000
  F   F364      1.0  0.60173  0.92333  0.96169  1.0000
  F   F365      1.0  0.85227  0.42295  0.45564  1.0000
  F   F366      1.0  0.86096  0.41163  0.95740  1.0000
  F   F367      1.0  0.84644  0.90023  0.46181  1.0000
  F   F368      1.0  0.85164  0.92478  0.95489  1.0000
  F   F369      1.0  0.04889  0.30278  0.28570  1.0000
  F   F370      1.0  0.04283  0.29691  0.77723  1.0000
  F   F371      1.0  0.03744  0.78947  0.28190  1.0000
  F   F372      1.0  0.04704  0.79857  0.78089  1.0000
  F   F373      1.0  0.30758  0.30224  0.27355  1.0000
  F   F374      1.0  0.28711  0.29972  0.80065  1.0000
  F   F375      1.0  0.29713  0.78406  0.28262  1.0000
  F   F376      1.0  0.29958  0.80454  0.78104  1.0000
  F   F377      1.0  0.53853  0.29164  0.28767  1.0000
  F   F378      1.0  0.55371  0.29494  0.77605  1.0000
  F   F379      1.0  0.54558  0.79624  0.30351  1.0000
  F   F380      1.0  0.54406  0.78789  0.79935  1.0000
  F   F381      1.0  0.80882  0.30418  0.28044  1.0000
  F   F382      1.0  0.79792  0.31296  0.79363  1.0000
  F   F383      1.0  0.79878  0.79735  0.27984  1.0000
  F   F384      1.0  0.78881  0.80233  0.79536  1.0000
