data_image0
_chemical_formula_structural       Hf96F384
_chemical_formula_sum              "Hf96 F384"
_cell_length_a       31.0548
_cell_length_b       15.5303
_cell_length_c       15.5155
_cell_angle_alpha    63.342
_cell_angle_beta     63.342
_cell_angle_gamma    80.1625

_space_group_name_H-M_alt    "P 1"
_space_group_IT_number       1

loop_
  _space_group_symop_operation_xyz
  'x, y, z'

loop_
  _atom_site_type_symbol
  _atom_site_label
  _atom_site_symmetry_multiplicity
  _atom_site_fract_x
  _atom_site_fract_y
  _atom_site_fract_z
  _atom_site_occupancy
  Hf  Hf1       1.0  0.19235  0.11098  0.37567  1.0000
  Hf  Hf2       1.0  0.19553  0.09721  0.88410  1.0000
  Hf  Hf3       1.0  0.19910  0.60332  0.38027  1.0000
  Hf  Hf4       1.0  0.19392  0.60293  0.88657  1.0000
  Hf  Hf5       1.0  0.44959  0.10797  0.37245  1.0000
  Hf  Hf6       1.0  0.45055  0.10486  0.87043  1.0000
  Hf  Hf7       1.0  0.44638  0.61207  0.37098  1.0000
  Hf  Hf8       1.0  0.44596  0.60413  0.87137  1.0000
  Hf  Hf9       1.0  0.70388  0.11220  0.36427  1.0000
  Hf  Hf10      1.0  0.69778  0.12155  0.86683  1.0000
  Hf  Hf11      1.0  0.68930  0.61259  0.37701  1.0000
  Hf  Hf12      1.0  0.69587  0.61358  0.87756  1.0000
  Hf  Hf13      1.0  0.94766  0.10583  0.37340  1.0000
  Hf  Hf14      1.0  0.94822  0.10174  0.88376  1.0000
  Hf  Hf15      1.0  0.94663  0.61015  0.37094  1.0000
  Hf  Hf16      1.0  0.94206  0.60861  0.87906  1.0000
  Hf  Hf17      1.0  0.05776  0.39944  0.11139  1.0000
  Hf  Hf18      1.0  0.05207  0.38362  0.63303  1.0000
  Hf  Hf19      1.0  0.05232  0.88153  0.13710  1.0000
  Hf  Hf20      1.0  0.05407  0.89830  0.61902  1.0000
  Hf  Hf21      1.0  0.30527  0.38815  0.12350  1.0000
  Hf  Hf22      1.0  0.30216  0.38214  0.63381  1.0000
  Hf  Hf23      1.0  0.30380  0.88536  0.12961  1.0000
  Hf  Hf24      1.0  0.29737  0.88444  0.64212  1.0000
  Hf  Hf25      1.0  0.55340  0.39311  0.11949  1.0000
  Hf  Hf26      1.0  0.55585  0.39336  0.61719  1.0000
  Hf  Hf27      1.0  0.55548  0.89397  0.11916  1.0000
  Hf  Hf28      1.0  0.55492  0.89881  0.61609  1.0000
  Hf  Hf29      1.0  0.80660  0.39233  0.11051  1.0000
  Hf  Hf30      1.0  0.80380  0.39652  0.62425  1.0000
  Hf  Hf31      1.0  0.80674  0.89338  0.11725  1.0000
  Hf  Hf32      1.0  0.80557  0.89865  0.61519  1.0000
  Hf  Hf33      1.0  0.05250  0.18530  0.41813  1.0000
  Hf  Hf34      1.0  0.05664  0.17776  0.91898  1.0000
  Hf  Hf35      1.0  0.05734  0.68292  0.41452  1.0000
  Hf  Hf36      1.0  0.05177  0.67760  0.91640  1.0000
  Hf  Hf37      1.0  0.30721  0.17778  0.41676  1.0000
  Hf  Hf38      1.0  0.30731  0.17180  0.92398  1.0000
  Hf  Hf39      1.0  0.30187  0.68375  0.42373  1.0000
  Hf  Hf40      1.0  0.30538  0.67072  0.92854  1.0000
  Hf  Hf41      1.0  0.55598  0.18366  0.41654  1.0000
  Hf  Hf42      1.0  0.55885  0.18958  0.91435  1.0000
  Hf  Hf43      1.0  0.55237  0.68918  0.40565  1.0000
  Hf  Hf44      1.0  0.55707  0.69810  0.90453  1.0000
  Hf  Hf45      1.0  0.80571  0.18945  0.40382  1.0000
  Hf  Hf46      1.0  0.80611  0.18291  0.91265  1.0000
  Hf  Hf47      1.0  0.80549  0.68697  0.41248  1.0000
  Hf  Hf48      1.0  0.80353  0.69137  0.91712  1.0000
  Hf  Hf49      1.0  0.15812  0.38439  0.33698  1.0000
  Hf  Hf50      1.0  0.15828  0.38717  0.82834  1.0000
  Hf  Hf51      1.0  0.15937  0.89715  0.32107  1.0000
  Hf  Hf52      1.0  0.15257  0.87714  0.84729  1.0000
  Hf  Hf53      1.0  0.40634  0.37646  0.34364  1.0000
  Hf  Hf54      1.0  0.40812  0.37762  0.84002  1.0000
  Hf  Hf55      1.0  0.40791  0.88485  0.33674  1.0000
  Hf  Hf56      1.0  0.40832  0.87833  0.83718  1.0000
  Hf  Hf57      1.0  0.66314  0.38962  0.32690  1.0000
  Hf  Hf58      1.0  0.66116  0.40272  0.82519  1.0000
  Hf  Hf59      1.0  0.66251  0.90043  0.32502  1.0000
  Hf  Hf60      1.0  0.66328  0.90334  0.83490  1.0000
  Hf  Hf61      1.0  0.91308  0.38854  0.32442  1.0000
  Hf  Hf62      1.0  0.90754  0.38660  0.83689  1.0000
  Hf  Hf63      1.0  0.90837  0.89223  0.32986  1.0000
  Hf  Hf64      1.0  0.91363  0.89426  0.83365  1.0000
  Hf  Hf65      1.0  0.19671  0.31273  0.07640  1.0000
  Hf  Hf66      1.0  0.19179  0.31469  0.58429  1.0000
  Hf  Hf67      1.0  0.19487  0.80792  0.08846  1.0000
  Hf  Hf68      1.0  0.19276  0.82618  0.57762  1.0000
  Hf  Hf69      1.0  0.44270  0.31748  0.08423  1.0000
  Hf  Hf70      1.0  0.44245  0.31383  0.58271  1.0000
  Hf  Hf71      1.0  0.44619  0.82139  0.08265  1.0000
  Hf  Hf72      1.0  0.44645  0.81710  0.58605  1.0000
  Hf  Hf73      1.0  0.69156  0.31703  0.08205  1.0000
  Hf  Hf74      1.0  0.69585  0.32991  0.58125  1.0000
  Hf  Hf75      1.0  0.69399  0.82913  0.07827  1.0000
  Hf  Hf76      1.0  0.69507  0.80822  0.58176  1.0000
  Hf  Hf77      1.0  0.94615  0.32521  0.07505  1.0000
  Hf  Hf78      1.0  0.94187  0.32200  0.58645  1.0000
  Hf  Hf79      1.0  0.94558  0.80864  0.09206  1.0000
  Hf  Hf80      1.0  0.94512  0.82119  0.58228  1.0000
  Hf  Hf81      1.0  0.09095  0.10418  0.16765  1.0000
  Hf  Hf82      1.0  0.09076  0.10640  0.67463  1.0000
  Hf  Hf83      1.0  0.09117  0.61907  0.16067  1.0000
  Hf  Hf84      1.0  0.08542  0.60943  0.66792  1.0000
  Hf  Hf85      1.0  0.33720  0.10343  0.17539  1.0000
  Hf  Hf86      1.0  0.33454  0.09818  0.67668  1.0000
  Hf  Hf87      1.0  0.34107  0.60341  0.17606  1.0000
  Hf  Hf88      1.0  0.33971  0.60880  0.67429  1.0000
  Hf  Hf89      1.0  0.58654  0.11109  0.17123  1.0000
  Hf  Hf90      1.0  0.59813  0.11608  0.66710  1.0000
  Hf  Hf91      1.0  0.58625  0.60581  0.17391  1.0000
  Hf  Hf92      1.0  0.58926  0.61748  0.66099  1.0000
  Hf  Hf93      1.0  0.84341  0.11253  0.16080  1.0000
  Hf  Hf94      1.0  0.84311  0.11174  0.66130  1.0000
  Hf  Hf95      1.0  0.83526  0.60318  0.17865  1.0000
  Hf  Hf96      1.0  0.84219  0.61812  0.66589  1.0000
  F   F1        1.0  0.07304  0.12524  0.30718  1.0000
  F   F2        1.0  0.08240  0.12804  0.80850  1.0000
  F   F3        1.0  0.08189  0.63701  0.29111  1.0000
  F   F4        1.0  0.07534  0.61464  0.80797  1.0000
  F   F5        1.0  0.33104  0.12419  0.30596  1.0000
  F   F6        1.0  0.32397  0.11413  0.81424  1.0000
  F   F7        1.0  0.33048  0.62885  0.31096  1.0000
  F   F8        1.0  0.32581  0.61409  0.81776  1.0000
  F   F9        1.0  0.57982  0.13859  0.30279  1.0000
  F   F10       1.0  0.58685  0.12888  0.80311  1.0000
  F   F11       1.0  0.58440  0.62310  0.29515  1.0000
  F   F12       1.0  0.57798  0.65500  0.79338  1.0000
  F   F13       1.0  0.83185  0.11327  0.30668  1.0000
  F   F14       1.0  0.83112  0.13889  0.79494  1.0000
  F   F15       1.0  0.82335  0.59872  0.32432  1.0000
  F   F16       1.0  0.83309  0.64510  0.80115  1.0000
  F   F17       1.0  0.18769  0.33220  0.45775  1.0000
  F   F18       1.0  0.18907  0.33668  0.93829  1.0000
  F   F19       1.0  0.18064  0.84224  0.44714  1.0000
  F   F20       1.0  0.18948  0.84737  0.94006  1.0000
  F   F21       1.0  0.43973  0.34929  0.43732  1.0000
  F   F22       1.0  0.42926  0.33575  0.96047  1.0000
  F   F23       1.0  0.44649  0.85270  0.44758  1.0000
  F   F24       1.0  0.43076  0.82797  0.96065  1.0000
  F   F25       1.0  0.69330  0.34764  0.44328  1.0000
  F   F26       1.0  0.69218  0.33193  0.94389  1.0000
  F   F27       1.0  0.68741  0.82867  0.45366  1.0000
  F   F28       1.0  0.69785  0.86640  0.93172  1.0000
  F   F29       1.0  0.93009  0.35860  0.44312  1.0000
  F   F30       1.0  0.93807  0.34602  0.94286  1.0000
  F   F31       1.0  0.93864  0.84663  0.44887  1.0000
  F   F32       1.0  0.93522  0.84154  0.95019  1.0000
  F   F33       1.0  0.17171  0.37158  0.19134  1.0000
  F   F34       1.0  0.17381  0.36792  0.70551  1.0000
  F   F35       1.0  0.17865  0.87204  0.19281  1.0000
  F   F36       1.0  0.17453  0.88574  0.69171  1.0000
  F   F37       1.0  0.40959  0.34885  0.21394  1.0000
  F   F38       1.0  0.41941  0.34568  0.70495  1.0000
  F   F39       1.0  0.41940  0.86052  0.20186  1.0000
  F   F40       1.0  0.41885  0.86262  0.71109  1.0000
  F   F41       1.0  0.67560  0.37009  0.18792  1.0000
  F   F42       1.0  0.66645  0.39479  0.68988  1.0000
  F   F43       1.0  0.66831  0.88418  0.18674  1.0000
  F   F44       1.0  0.67393  0.85219  0.69881  1.0000
  F   F45       1.0  0.92037  0.38080  0.18655  1.0000
  F   F46       1.0  0.92209  0.37387  0.69163  1.0000
  F   F47       1.0  0.91544  0.84629  0.21403  1.0000
  F   F48       1.0  0.92786  0.87462  0.69556  1.0000
  F   F49       1.0  0.06041  0.15002  0.06627  1.0000
  F   F50       1.0  0.05554  0.15704  0.56126  1.0000
  F   F51       1.0  0.06493  0.65242  0.05331  1.0000
  F   F52       1.0  0.06207  0.66549  0.55109  1.0000
  F   F53       1.0  0.30786  0.14258  0.06281  1.0000
  F   F54       1.0  0.31046  0.15796  0.55937  1.0000
  F   F55       1.0  0.30320  0.65014  0.07480  1.0000
  F   F56       1.0  0.30480  0.66753  0.55803  1.0000
  F   F57       1.0  0.55631  0.15467  0.06447  1.0000
  F   F58       1.0  0.57082  0.16647  0.54673  1.0000
  F   F59       1.0  0.55728  0.65761  0.05534  1.0000
  F   F60       1.0  0.56062  0.66160  0.55047  1.0000
  F   F61       1.0  0.82227  0.16608  0.04340  1.0000
  F   F62       1.0  0.82559  0.17915  0.53611  1.0000
  F   F63       1.0  0.81035  0.65144  0.05834  1.0000
  F   F64       1.0  0.81735  0.66525  0.55141  1.0000
  F   F65       1.0  0.20412  0.19887  0.21838  1.0000
  F   F66       1.0  0.19621  0.19154  0.70900  1.0000
  F   F67       1.0  0.20061  0.69357  0.21530  1.0000
  F   F68       1.0  0.19188  0.70954  0.70952  1.0000
  F   F69       1.0  0.45623  0.19561  0.21396  1.0000
  F   F70       1.0  0.45942  0.17418  0.71937  1.0000
  F   F71       1.0  0.46745  0.71287  0.21033  1.0000
  F   F72       1.0  0.45271  0.70153  0.71066  1.0000
  F   F73       1.0  0.70651  0.20330  0.20009  1.0000
  F   F74       1.0  0.71069  0.21342  0.69829  1.0000
  F   F75       1.0  0.70934  0.70979  0.21768  1.0000
  F   F76       1.0  0.70444  0.69322  0.69387  1.0000
  F   F77       1.0  0.95552  0.20727  0.20057  1.0000
  F   F78       1.0  0.95881  0.20521  0.69567  1.0000
  F   F79       1.0  0.95507  0.69807  0.21270  1.0000
  F   F80       1.0  0.94727  0.71298  0.71477  1.0000
  F   F81       1.0  0.14418  0.08345  0.04799  1.0000
  F   F82       1.0  0.14863  0.08883  0.52947  1.0000
  F   F83       1.0  0.15145  0.56716  0.04705  1.0000
  F   F84       1.0  0.14670  0.58116  0.55047  1.0000
  F   F85       1.0  0.39485  0.08377  0.04929  1.0000
  F   F86       1.0  0.39495  0.08963  0.54682  1.0000
  F   F87       1.0  0.39564  0.60625  0.05139  1.0000
  F   F88       1.0  0.39278  0.58423  0.54954  1.0000
  F   F89       1.0  0.64552  0.11818  0.02945  1.0000
  F   F90       1.0  0.65975  0.12216  0.53627  1.0000
  F   F91       1.0  0.64702  0.60250  0.04837  1.0000
  F   F92       1.0  0.64492  0.57853  0.53495  1.0000
  F   F93       1.0  0.90402  0.06784  0.04988  1.0000
  F   F94       1.0  0.90153  0.09640  0.53060  1.0000
  F   F95       1.0  0.89547  0.61077  0.03902  1.0000
  F   F96       1.0  0.90145  0.59307  0.52848  1.0000
  F   F97       1.0  0.15159  0.18425  0.13249  1.0000
  F   F98       1.0  0.15272  0.17255  0.62447  1.0000
  F   F99       1.0  0.15565  0.69405  0.10884  1.0000
  F   F100      1.0  0.14259  0.69637  0.62532  1.0000
  F   F101      1.0  0.40594  0.19768  0.12596  1.0000
  F   F102      1.0  0.40353  0.20145  0.62502  1.0000
  F   F103      1.0  0.40638  0.70128  0.14665  1.0000
  F   F104      1.0  0.40036  0.70542  0.61589  1.0000
  F   F105      1.0  0.64979  0.19472  0.14121  1.0000
  F   F106      1.0  0.65301  0.21546  0.62965  1.0000
  F   F107      1.0  0.65947  0.70416  0.12839  1.0000
  F   F108      1.0  0.65275  0.69214  0.60777  1.0000
  F   F109      1.0  0.90270  0.18984  0.11400  1.0000
  F   F110      1.0  0.89778  0.19887  0.62273  1.0000
  F   F111      1.0  0.89179  0.69636  0.15385  1.0000
  F   F112      1.0  0.90203  0.69409  0.61853  1.0000
  F   F113      1.0  0.09670  0.30936  0.38532  1.0000
  F   F114      1.0  0.10235  0.29196  0.87424  1.0000
  F   F115      1.0  0.09886  0.81818  0.35407  1.0000
  F   F116      1.0  0.09551  0.79645  0.88353  1.0000
  F   F117      1.0  0.34394  0.30120  0.39008  1.0000
  F   F118      1.0  0.35064  0.28118  0.88449  1.0000
  F   F119      1.0  0.34703  0.81134  0.37452  1.0000
  F   F120      1.0  0.35293  0.78576  0.87562  1.0000
  F   F121      1.0  0.60143  0.30959  0.34813  1.0000
  F   F122      1.0  0.60196  0.30643  0.87802  1.0000
  F   F123      1.0  0.58683  0.81667  0.35925  1.0000
  F   F124      1.0  0.60015  0.82500  0.87473  1.0000
  F   F125      1.0  0.85188  0.30839  0.35838  1.0000
  F   F126      1.0  0.84891  0.30466  0.86169  1.0000
  F   F127      1.0  0.84122  0.81874  0.37585  1.0000
  F   F128      1.0  0.84317  0.81323  0.87642  1.0000
  F   F129      1.0  0.06067  0.25562  0.14804  1.0000
  F   F130      1.0  0.06979  0.24498  0.63794  1.0000
  F   F131      1.0  0.06276  0.74940  0.13306  1.0000
  F   F132      1.0  0.05986  0.75718  0.64580  1.0000
  F   F133      1.0  0.32214  0.24439  0.11953  1.0000
  F   F134      1.0  0.31676  0.24389  0.63646  1.0000
  F   F135      1.0  0.32795  0.74790  0.12391  1.0000
  F   F136      1.0  0.31039  0.74099  0.65391  1.0000
  F   F137      1.0  0.56742  0.25386  0.12588  1.0000
  F   F138      1.0  0.56625  0.25030  0.64887  1.0000
  F   F139      1.0  0.58251  0.75321  0.11487  1.0000
  F   F140      1.0  0.55426  0.75424  0.64884  1.0000
  F   F141      1.0  0.81156  0.24044  0.14428  1.0000
  F   F142      1.0  0.80920  0.25612  0.65898  1.0000
  F   F143      1.0  0.81625  0.75009  0.13650  1.0000
  F   F144      1.0  0.81942  0.75370  0.63571  1.0000
  F   F145      1.0  0.12638  0.36627  0.10124  1.0000
  F   F146      1.0  0.12161  0.35040  0.63310  1.0000
  F   F147      1.0  0.12326  0.84866  0.12944  1.0000
  F   F148      1.0  0.12064  0.87573  0.61178  1.0000
  F   F149      1.0  0.37163  0.36694  0.11023  1.0000
  F   F150      1.0  0.37615  0.37534  0.59995  1.0000
  F   F151      1.0  0.37362  0.87532  0.10359  1.0000
  F   F152      1.0  0.37554  0.85466  0.63022  1.0000
  F   F153      1.0  0.62371  0.36879  0.11025  1.0000
  F   F154      1.0  0.62277  0.36950  0.61225  1.0000
  F   F155      1.0  0.62425  0.86388  0.11125  1.0000
  F   F156      1.0  0.62156  0.85456  0.61794  1.0000
  F   F157      1.0  0.87811  0.36777  0.10270  1.0000
  F   F158      1.0  0.87409  0.36992  0.61490  1.0000
  F   F159      1.0  0.87641  0.87960  0.09865  1.0000
  F   F160      1.0  0.87151  0.87607  0.61271  1.0000
  F   F161      1.0  0.17995  0.24846  0.36932  1.0000
  F   F162      1.0  0.18176  0.24663  0.86418  1.0000
  F   F163      1.0  0.18671  0.74811  0.35893  1.0000
  F   F164      1.0  0.19172  0.74228  0.85471  1.0000
  F   F165      1.0  0.43219  0.24662  0.36861  1.0000
  F   F166      1.0  0.43447  0.24543  0.85470  1.0000
  F   F167      1.0  0.43269  0.75282  0.37957  1.0000
  F   F168      1.0  0.43364  0.74184  0.85947  1.0000
  F   F169      1.0  0.69153  0.24795  0.35204  1.0000
  F   F170      1.0  0.68713  0.26480  0.83307  1.0000
  F   F171      1.0  0.67149  0.75643  0.35846  1.0000
  F   F172      1.0  0.69069  0.75920  0.85544  1.0000
  F   F173      1.0  0.94406  0.25830  0.34150  1.0000
  F   F174      1.0  0.93093  0.24496  0.86803  1.0000
  F   F175      1.0  0.93560  0.74485  0.36242  1.0000
  F   F176      1.0  0.93993  0.75462  0.85341  1.0000
  F   F177      1.0  0.12178  0.13514  0.39033  1.0000
  F   F178      1.0  0.12587  0.11627  0.89989  1.0000
  F   F179      1.0  0.12908  0.62210  0.39579  1.0000
  F   F180      1.0  0.12523  0.62590  0.89420  1.0000
  F   F181      1.0  0.37975  0.13067  0.39341  1.0000
  F   F182      1.0  0.37888  0.12582  0.89358  1.0000
  F   F183      1.0  0.37555  0.63961  0.38940  1.0000
  F   F184      1.0  0.37323  0.59741  0.92302  1.0000
  F   F185      1.0  0.63333  0.10794  0.39291  1.0000
  F   F186      1.0  0.63071  0.14431  0.87820  1.0000
  F   F187      1.0  0.62179  0.63456  0.38532  1.0000
  F   F188      1.0  0.62441  0.64023  0.90160  1.0000
  F   F189      1.0  0.88429  0.15627  0.35491  1.0000
  F   F190      1.0  0.87468  0.12452  0.89703  1.0000
  F   F191      1.0  0.87408  0.65742  0.36856  1.0000
  F   F192      1.0  0.87321  0.63669  0.90150  1.0000
  F   F193      1.0  0.00487  0.37330  0.07526  1.0000
  F   F194      1.0  0.01014  0.35560  0.58786  1.0000
  F   F195      1.0  0.00547  0.85841  0.08432  1.0000
  F   F196      1.0  0.01023  0.86532  0.55406  1.0000
  F   F197      1.0  0.26309  0.35663  0.06521  1.0000
  F   F198      1.0  0.25317  0.34357  0.59667  1.0000
  F   F199      1.0  0.25672  0.83420  0.10573  1.0000
  F   F200      1.0  0.25917  0.86335  0.57574  1.0000
  F   F201      1.0  0.50950  0.36910  0.05994  1.0000
  F   F202      1.0  0.50690  0.34534  0.59197  1.0000
  F   F203      1.0  0.51126  0.86636  0.07239  1.0000
  F   F204      1.0  0.50888  0.86895  0.56372  1.0000
  F   F205      1.0  0.75827  0.36786  0.06659  1.0000
  F   F206      1.0  0.75417  0.37469  0.57979  1.0000
  F   F207      1.0  0.75708  0.88121  0.07258  1.0000
  F   F208      1.0  0.76325  0.87075  0.55511  1.0000
  F   F209      1.0  0.06734  0.48434  0.17167  1.0000
  F   F210      1.0  0.06712  0.48467  0.67334  1.0000
  F   F211      1.0  0.06986  0.95595  0.19447  1.0000
  F   F212      1.0  0.06635  0.99160  0.67908  1.0000
  F   F213      1.0  0.32321  0.47609  0.18094  1.0000
  F   F214      1.0  0.32043  0.48228  0.68240  1.0000
  F   F215      1.0  0.31236  0.97105  0.20948  1.0000
  F   F216      1.0  0.32145  0.96375  0.69553  1.0000
  F   F217      1.0  0.56772  0.48297  0.17754  1.0000
  F   F218      1.0  0.56363  0.48432  0.68296  1.0000
  F   F219      1.0  0.57080  0.98419  0.17356  1.0000
  F   F220      1.0  0.57607  0.99612  0.64774  1.0000
  F   F221      1.0  0.82673  0.47809  0.16664  1.0000
  F   F222      1.0  0.81533  0.49390  0.67990  1.0000
  F   F223      1.0  0.82182  0.97649  0.17214  1.0000
  F   F224      1.0  0.81436  0.98390  0.68106  1.0000
  F   F225      1.0  0.24436  0.13538  0.43943  1.0000
  F   F226      1.0  0.24303  0.12575  0.92934  1.0000
  F   F227      1.0  0.24507  0.63440  0.42788  1.0000
  F   F228      1.0  0.24406  0.63437  0.93007  1.0000
  F   F229      1.0  0.48853  0.15203  0.41829  1.0000
  F   F230      1.0  0.49429  0.14794  0.91449  1.0000
  F   F231      1.0  0.49739  0.63767  0.40081  1.0000
  F   F232      1.0  0.49610  0.63337  0.93002  1.0000
  F   F233      1.0  0.74415  0.13075  0.42464  1.0000
  F   F234      1.0  0.74698  0.14407  0.91484  1.0000
  F   F235      1.0  0.74031  0.65586  0.40939  1.0000
  F   F236      1.0  0.73562  0.62856  0.94944  1.0000
  F   F237      1.0  0.98773  0.14303  0.43001  1.0000
  F   F238      1.0  0.99211  0.12810  0.94120  1.0000
  F   F239      1.0  0.99582  0.63309  0.42531  1.0000
  F   F240      1.0  0.99075  0.63096  0.93901  1.0000
  F   F241      1.0  0.18298  0.01479  0.31512  1.0000
  F   F242      1.0  0.17868  0.01420  0.83074  1.0000
  F   F243      1.0  0.18120  0.51052  0.32633  1.0000
  F   F244      1.0  0.18013  0.51424  0.83085  1.0000
  F   F245      1.0  0.42698  0.00878  0.33772  1.0000
  F   F246      1.0  0.43298  0.00620  0.82174  1.0000
  F   F247      1.0  0.43455  0.52531  0.32891  1.0000
  F   F248      1.0  0.44380  0.50490  0.81503  1.0000
  F   F249      1.0  0.68834  0.01855  0.29703  1.0000
  F   F250      1.0  0.68863  0.02380  0.81200  1.0000
  F   F251      1.0  0.67276  0.51586  0.32893  1.0000
  F   F252      1.0  0.67753  0.51806  0.83313  1.0000
  F   F253      1.0  0.93711  0.00976  0.32697  1.0000
  F   F254      1.0  0.94190  0.02811  0.80510  1.0000
  F   F255      1.0  0.92631  0.52586  0.32819  1.0000
  F   F256      1.0  0.93034  0.51632  0.82639  1.0000
  F   F257      1.0  0.99883  0.25392  0.99660  1.0000
  F   F258      1.0  0.00137  0.27531  0.48610  1.0000
  F   F259      1.0  0.00267  0.74644  0.00508  1.0000
  F   F260      1.0  0.99692  0.74354  0.50176  1.0000
  F   F261      1.0  0.25345  0.24537  0.99687  1.0000
  F   F262      1.0  0.25210  0.25939  0.50148  1.0000
  F   F263      1.0  0.25073  0.75748  0.99517  1.0000
  F   F264      1.0  0.24652  0.75279  0.50345  1.0000
  F   F265      1.0  0.50230  0.25815  0.98503  1.0000
  F   F266      1.0  0.50425  0.24799  0.50470  1.0000
  F   F267      1.0  0.50057  0.77250  0.98176  1.0000
  F   F268      1.0  0.49401  0.72756  0.51325  1.0000
  F   F269      1.0  0.75149  0.24214  0.00485  1.0000
  F   F270      1.0  0.75661  0.25506  0.49110  1.0000
  F   F271      1.0  0.75327  0.76459  0.00134  1.0000
  F   F272      1.0  0.75429  0.74315  0.50459  1.0000
  F   F273      1.0  0.12566  0.00046  0.24117  1.0000
  F   F274      1.0  0.11845  0.99198  0.77219  1.0000
  F   F275      1.0  0.12448  0.50084  0.24848  1.0000
  F   F276      1.0  0.12459  0.49612  0.74669  1.0000
  F   F277      1.0  0.38458  0.00461  0.24075  1.0000
  F   F278      1.0  0.37970  0.00048  0.73579  1.0000
  F   F279      1.0  0.37782  0.49528  0.25297  1.0000
  F   F280      1.0  0.38445  0.50208  0.73716  1.0000
  F   F281      1.0  0.62231  0.00536  0.25260  1.0000
  F   F282      1.0  0.62895  0.99550  0.74259  1.0000
  F   F283      1.0  0.62676  0.49779  0.24535  1.0000
  F   F284      1.0  0.62115  0.51119  0.75811  1.0000
  F   F285      1.0  0.88646  0.00481  0.23844  1.0000
  F   F286      1.0  0.87652  0.00474  0.75544  1.0000
  F   F287      1.0  0.87833  0.50724  0.24580  1.0000
  F   F288      1.0  0.87679  0.50787  0.75003  1.0000
  F   F289      1.0  0.04167  0.03349  0.03240  1.0000
  F   F290      1.0  0.04292  0.04220  0.51289  1.0000
  F   F291      1.0  0.04207  0.53433  0.01865  1.0000
  F   F292      1.0  0.05013  0.53381  0.52262  1.0000
  F   F293      1.0  0.29376  0.01914  0.02815  1.0000
  F   F294      1.0  0.30001  0.02282  0.52646  1.0000
  F   F295      1.0  0.28968  0.51710  0.03681  1.0000
  F   F296      1.0  0.28902  0.52236  0.53848  1.0000
  F   F297      1.0  0.53869  0.03342  0.03442  1.0000
  F   F298      1.0  0.53597  0.03908  0.52532  1.0000
  F   F299      1.0  0.54010  0.53038  0.03052  1.0000
  F   F300      1.0  0.54034  0.52947  0.51384  1.0000
  F   F301      1.0  0.79152  0.04008  0.02603  1.0000
  F   F302      1.0  0.79416  0.03641  0.51392  1.0000
  F   F303      1.0  0.79905  0.53060  0.01229  1.0000
  F   F304      1.0  0.79729  0.53166  0.52270  1.0000
  F   F305      1.0  0.23610  0.40862  0.23241  1.0000
  F   F306      1.0  0.23581  0.41031  0.72974  1.0000
  F   F307      1.0  0.23641  0.92703  0.21396  1.0000
  F   F308      1.0  0.23462  0.91453  0.73776  1.0000
  F   F309      1.0  0.47269  0.41208  0.22844  1.0000
  F   F310      1.0  0.48017  0.39302  0.74491  1.0000
  F   F311      1.0  0.48600  0.91745  0.23048  1.0000
  F   F312      1.0  0.48629  0.89216  0.73199  1.0000
  F   F313      1.0  0.73579  0.41073  0.23638  1.0000
  F   F314      1.0  0.73165  0.43921  0.70939  1.0000
  F   F315      1.0  0.73577  0.90005  0.24517  1.0000
  F   F316      1.0  0.73493  0.92592  0.71281  1.0000
  F   F317      1.0  0.98243  0.43020  0.22997  1.0000
  F   F318      1.0  0.98318  0.41639  0.72518  1.0000
  F   F319      1.0  0.98515  0.92276  0.21417  1.0000
  F   F320      1.0  0.98468  0.93235  0.72005  1.0000
  F   F321      1.0  0.19879  0.47018  0.48852  1.0000
  F   F322      1.0  0.20689  0.45294  0.97646  1.0000
  F   F323      1.0  0.20901  0.97070  0.46497  1.0000
  F   F324      1.0  0.20566  0.95718  0.99015  1.0000
  F   F325      1.0  0.45797  0.46660  0.48395  1.0000
  F   F326      1.0  0.44428  0.48236  0.99799  1.0000
  F   F327      1.0  0.45834  0.98013  0.48311  1.0000
  F   F328      1.0  0.45927  0.96710  0.97686  1.0000
  F   F329      1.0  0.70907  0.47020  0.47696  1.0000
  F   F330      1.0  0.70275  0.48185  0.97586  1.0000
  F   F331      1.0  0.69960  0.97114  0.47295  1.0000
  F   F332      1.0  0.70235  0.99074  0.97675  1.0000
  F   F333      1.0  0.95880  0.47620  0.47100  1.0000
  F   F334      1.0  0.95153  0.47632  0.97782  1.0000
  F   F335      1.0  0.95423  0.97152  0.48076  1.0000
  F   F336      1.0  0.96345  0.96392  0.96446  1.0000
  F   F337      1.0  0.01555  0.07622  0.27893  1.0000
  F   F338      1.0  0.01787  0.10774  0.78495  1.0000
  F   F339      1.0  0.01521  0.58572  0.26453  1.0000
  F   F340      1.0  0.01104  0.59805  0.76437  1.0000
  F   F341      1.0  0.26141  0.09968  0.28171  1.0000
  F   F342      1.0  0.25806  0.07993  0.77078  1.0000
  F   F343      1.0  0.26636  0.58327  0.27473  1.0000
  F   F344      1.0  0.26321  0.58115  0.78093  1.0000
  F   F345      1.0  0.51649  0.07644  0.28261  1.0000
  F   F346      1.0  0.52388  0.07734  0.77405  1.0000
  F   F347      1.0  0.51588  0.59083  0.27021  1.0000
  F   F348      1.0  0.51857  0.59200  0.77129  1.0000
  F   F349      1.0  0.77151  0.07444  0.27797  1.0000
  F   F350      1.0  0.76846  0.08729  0.76783  1.0000
  F   F351      1.0  0.76201  0.57010  0.27555  1.0000
  F   F352      1.0  0.76796  0.59590  0.76365  1.0000
  F   F353      1.0  0.10349  0.40563  0.46990  1.0000
  F   F354      1.0  0.09741  0.40165  0.95796  1.0000
  F   F355      1.0  0.09736  0.91219  0.45338  1.0000
  F   F356      1.0  0.09661  0.89520  0.97214  1.0000
  F   F357      1.0  0.35160  0.41083  0.46632  1.0000
  F   F358      1.0  0.35203  0.42108  0.95571  1.0000
  F   F359      1.0  0.35338  0.89460  0.48011  1.0000
  F   F360      1.0  0.35083  0.90626  0.95055  1.0000
  F   F361      1.0  0.59895  0.40209  0.45830  1.0000
  F   F362      1.0  0.60442  0.41379  0.95905  1.0000
  F   F363      1.0  0.60332  0.92390  0.45299  1.0000
  F   F364      1.0  0.60903  0.93456  0.95933  1.0000
  F   F365      1.0  0.85307  0.38752  0.47604  1.0000
  F   F366      1.0  0.84948  0.41576  0.95245  1.0000
  F   F367      1.0  0.85328  0.91430  0.45703  1.0000
  F   F368      1.0  0.85040  0.92359  0.96120  1.0000
  F   F369      1.0  0.04830  0.30239  0.28873  1.0000
  F   F370      1.0  0.03901  0.28788  0.78638  1.0000
  F   F371      1.0  0.03692  0.79553  0.28807  1.0000
  F   F372      1.0  0.04168  0.79399  0.79721  1.0000
  F   F373      1.0  0.29863  0.29205  0.28541  1.0000
  F   F374      1.0  0.29733  0.29993  0.78662  1.0000
  F   F375      1.0  0.28566  0.78194  0.29995  1.0000
  F   F376      1.0  0.29294  0.79187  0.79994  1.0000
  F   F377      1.0  0.54284  0.30892  0.27585  1.0000
  F   F378      1.0  0.55088  0.30525  0.79125  1.0000
  F   F379      1.0  0.54307  0.78932  0.27591  1.0000
  F   F380      1.0  0.54710  0.81688  0.78785  1.0000
  F   F381      1.0  0.78888  0.29194  0.28609  1.0000
  F   F382      1.0  0.79521  0.30862  0.79142  1.0000
  F   F383      1.0  0.80420  0.79377  0.27398  1.0000
  F   F384      1.0  0.79210  0.80457  0.78864  1.0000
