data_image0
_chemical_formula_structural       Hf96F384
_chemical_formula_sum              "Hf96 F384"
_cell_length_a       31.0285
_cell_length_b       15.5147
_cell_length_c       15.5056
_cell_angle_alpha    63.342
_cell_angle_beta     63.342
_cell_angle_gamma    80.1625

_space_group_name_H-M_alt    "P 1"
_space_group_IT_number       1

loop_
  _space_group_symop_operation_xyz
  'x, y, z'

loop_
  _atom_site_type_symbol
  _atom_site_label
  _atom_site_symmetry_multiplicity
  _atom_site_fract_x
  _atom_site_fract_y
  _atom_site_fract_z
  _atom_site_occupancy
  Hf  Hf1       1.0  0.19477  0.09973  0.38272  1.0000
  Hf  Hf2       1.0  0.19832  0.10304  0.87023  1.0000
  Hf  Hf3       1.0  0.19311  0.59852  0.38826  1.0000
  Hf  Hf4       1.0  0.19414  0.59619  0.88052  1.0000
  Hf  Hf5       1.0  0.44559  0.11317  0.37120  1.0000
  Hf  Hf6       1.0  0.44561  0.10411  0.87410  1.0000
  Hf  Hf7       1.0  0.44531  0.61349  0.36688  1.0000
  Hf  Hf8       1.0  0.44657  0.61274  0.87254  1.0000
  Hf  Hf9       1.0  0.69603  0.10520  0.37766  1.0000
  Hf  Hf10      1.0  0.69554  0.11629  0.87988  1.0000
  Hf  Hf11      1.0  0.69894  0.60905  0.37408  1.0000
  Hf  Hf12      1.0  0.69277  0.61135  0.88378  1.0000
  Hf  Hf13      1.0  0.94521  0.10858  0.37639  1.0000
  Hf  Hf14      1.0  0.94427  0.10335  0.87584  1.0000
  Hf  Hf15      1.0  0.94586  0.60474  0.37531  1.0000
  Hf  Hf16      1.0  0.94631  0.61771  0.87452  1.0000
  Hf  Hf17      1.0  0.05663  0.38727  0.12348  1.0000
  Hf  Hf18      1.0  0.05629  0.39053  0.63010  1.0000
  Hf  Hf19      1.0  0.05726  0.88073  0.12564  1.0000
  Hf  Hf20      1.0  0.05437  0.89388  0.62165  1.0000
  Hf  Hf21      1.0  0.30485  0.38709  0.12528  1.0000
  Hf  Hf22      1.0  0.30380  0.38776  0.62523  1.0000
  Hf  Hf23      1.0  0.30073  0.88597  0.12450  1.0000
  Hf  Hf24      1.0  0.30161  0.89496  0.62764  1.0000
  Hf  Hf25      1.0  0.55569  0.39751  0.11508  1.0000
  Hf  Hf26      1.0  0.55176  0.39406  0.62840  1.0000
  Hf  Hf27      1.0  0.55011  0.89641  0.12854  1.0000
  Hf  Hf28      1.0  0.55146  0.89661  0.62501  1.0000
  Hf  Hf29      1.0  0.80855  0.38968  0.12630  1.0000
  Hf  Hf30      1.0  0.80715  0.39928  0.62225  1.0000
  Hf  Hf31      1.0  0.80004  0.89815  0.12585  1.0000
  Hf  Hf32      1.0  0.80151  0.89797  0.62861  1.0000
  Hf  Hf33      1.0  0.05483  0.17829  0.41279  1.0000
  Hf  Hf34      1.0  0.05782  0.17273  0.92007  1.0000
  Hf  Hf35      1.0  0.05577  0.68067  0.42207  1.0000
  Hf  Hf36      1.0  0.05486  0.68370  0.91695  1.0000
  Hf  Hf37      1.0  0.30621  0.17893  0.41331  1.0000
  Hf  Hf38      1.0  0.30696  0.16987  0.92159  1.0000
  Hf  Hf39      1.0  0.30415  0.67947  0.41683  1.0000
  Hf  Hf40      1.0  0.30769  0.67405  0.91980  1.0000
  Hf  Hf41      1.0  0.55768  0.18637  0.41146  1.0000
  Hf  Hf42      1.0  0.55636  0.18672  0.91288  1.0000
  Hf  Hf43      1.0  0.55415  0.68501  0.41830  1.0000
  Hf  Hf44      1.0  0.55494  0.69268  0.91284  1.0000
  Hf  Hf45      1.0  0.80368  0.17535  0.42747  1.0000
  Hf  Hf46      1.0  0.80989  0.18721  0.91313  1.0000
  Hf  Hf47      1.0  0.80934  0.68718  0.41274  1.0000
  Hf  Hf48      1.0  0.80210  0.67415  0.93122  1.0000
  Hf  Hf49      1.0  0.16149  0.38282  0.33314  1.0000
  Hf  Hf50      1.0  0.15544  0.37498  0.84760  1.0000
  Hf  Hf51      1.0  0.15819  0.88671  0.33139  1.0000
  Hf  Hf52      1.0  0.15772  0.88198  0.83117  1.0000
  Hf  Hf53      1.0  0.41080  0.39174  0.32696  1.0000
  Hf  Hf54      1.0  0.41030  0.38469  0.83099  1.0000
  Hf  Hf55      1.0  0.40652  0.88810  0.33706  1.0000
  Hf  Hf56      1.0  0.40386  0.89189  0.82924  1.0000
  Hf  Hf57      1.0  0.66103  0.38641  0.33217  1.0000
  Hf  Hf58      1.0  0.66014  0.39824  0.82339  1.0000
  Hf  Hf59      1.0  0.65934  0.89229  0.32693  1.0000
  Hf  Hf60      1.0  0.65442  0.89714  0.82893  1.0000
  Hf  Hf61      1.0  0.90926  0.39013  0.33218  1.0000
  Hf  Hf62      1.0  0.91236  0.39601  0.82551  1.0000
  Hf  Hf63      1.0  0.91374  0.88837  0.33439  1.0000
  Hf  Hf64      1.0  0.90350  0.88887  0.83168  1.0000
  Hf  Hf65      1.0  0.19789  0.30939  0.08353  1.0000
  Hf  Hf66      1.0  0.19451  0.31159  0.58803  1.0000
  Hf  Hf67      1.0  0.19652  0.80716  0.08026  1.0000
  Hf  Hf68      1.0  0.19292  0.81698  0.57737  1.0000
  Hf  Hf69      1.0  0.44781  0.32358  0.07464  1.0000
  Hf  Hf70      1.0  0.44364  0.32481  0.58384  1.0000
  Hf  Hf71      1.0  0.43980  0.82062  0.09190  1.0000
  Hf  Hf72      1.0  0.44306  0.81384  0.58385  1.0000
  Hf  Hf73      1.0  0.69923  0.32784  0.07510  1.0000
  Hf  Hf74      1.0  0.69914  0.32938  0.57343  1.0000
  Hf  Hf75      1.0  0.69320  0.82527  0.07538  1.0000
  Hf  Hf76      1.0  0.69542  0.82131  0.57258  1.0000
  Hf  Hf77      1.0  0.94641  0.31532  0.08308  1.0000
  Hf  Hf78      1.0  0.94714  0.31504  0.58254  1.0000
  Hf  Hf79      1.0  0.94597  0.81477  0.08722  1.0000
  Hf  Hf80      1.0  0.94128  0.81474  0.58810  1.0000
  Hf  Hf81      1.0  0.09315  0.10969  0.16629  1.0000
  Hf  Hf82      1.0  0.08933  0.11114  0.66751  1.0000
  Hf  Hf83      1.0  0.09348  0.60496  0.17407  1.0000
  Hf  Hf84      1.0  0.09086  0.61013  0.67321  1.0000
  Hf  Hf85      1.0  0.34526  0.11123  0.16436  1.0000
  Hf  Hf86      1.0  0.34284  0.12143  0.65430  1.0000
  Hf  Hf87      1.0  0.34028  0.60568  0.16813  1.0000
  Hf  Hf88      1.0  0.33849  0.61087  0.66835  1.0000
  Hf  Hf89      1.0  0.59105  0.11566  0.16135  1.0000
  Hf  Hf90      1.0  0.58979  0.11231  0.66532  1.0000
  Hf  Hf91      1.0  0.58753  0.61548  0.16664  1.0000
  Hf  Hf92      1.0  0.59193  0.62119  0.66267  1.0000
  Hf  Hf93      1.0  0.84434  0.11062  0.16799  1.0000
  Hf  Hf94      1.0  0.84206  0.11249  0.66890  1.0000
  Hf  Hf95      1.0  0.84187  0.61527  0.17318  1.0000
  Hf  Hf96      1.0  0.83801  0.62487  0.67149  1.0000
  F   F1        1.0  0.08109  0.10892  0.30705  1.0000
  F   F2        1.0  0.07014  0.13057  0.80619  1.0000
  F   F3        1.0  0.08626  0.62002  0.31031  1.0000
  F   F4        1.0  0.08088  0.63418  0.80626  1.0000
  F   F5        1.0  0.33185  0.11756  0.30866  1.0000
  F   F6        1.0  0.32883  0.13199  0.79981  1.0000
  F   F7        1.0  0.32152  0.62934  0.30321  1.0000
  F   F8        1.0  0.32706  0.61345  0.80614  1.0000
  F   F9        1.0  0.58322  0.12877  0.30553  1.0000
  F   F10       1.0  0.58104  0.14257  0.79256  1.0000
  F   F11       1.0  0.57446  0.62031  0.31166  1.0000
  F   F12       1.0  0.57132  0.64387  0.80318  1.0000
  F   F13       1.0  0.82784  0.11903  0.31432  1.0000
  F   F14       1.0  0.82941  0.12907  0.80521  1.0000
  F   F15       1.0  0.82475  0.61523  0.32038  1.0000
  F   F16       1.0  0.83016  0.63194  0.80855  1.0000
  F   F17       1.0  0.18363  0.31915  0.45547  1.0000
  F   F18       1.0  0.17943  0.32218  0.96076  1.0000
  F   F19       1.0  0.17650  0.83690  0.45091  1.0000
  F   F20       1.0  0.19840  0.83053  0.94074  1.0000
  F   F21       1.0  0.44080  0.35196  0.44060  1.0000
  F   F22       1.0  0.44064  0.35527  0.93679  1.0000
  F   F23       1.0  0.44660  0.84973  0.42605  1.0000
  F   F24       1.0  0.42915  0.84277  0.95378  1.0000
  F   F25       1.0  0.68398  0.34478  0.44963  1.0000
  F   F26       1.0  0.69161  0.34362  0.94371  1.0000
  F   F27       1.0  0.67573  0.84895  0.45143  1.0000
  F   F28       1.0  0.68448  0.83882  0.93752  1.0000
  F   F29       1.0  0.93378  0.33603  0.45499  1.0000
  F   F30       1.0  0.93869  0.35324  0.94457  1.0000
  F   F31       1.0  0.93965  0.84247  0.44682  1.0000
  F   F32       1.0  0.92426  0.83689  0.95677  1.0000
  F   F33       1.0  0.17235  0.37377  0.19593  1.0000
  F   F34       1.0  0.16569  0.35117  0.70898  1.0000
  F   F35       1.0  0.16993  0.86685  0.18287  1.0000
  F   F36       1.0  0.17285  0.87706  0.68325  1.0000
  F   F37       1.0  0.41799  0.38574  0.18094  1.0000
  F   F38       1.0  0.42402  0.38077  0.69193  1.0000
  F   F39       1.0  0.42682  0.88977  0.18735  1.0000
  F   F40       1.0  0.41100  0.86112  0.70154  1.0000
  F   F41       1.0  0.67594  0.36994  0.19125  1.0000
  F   F42       1.0  0.67128  0.39281  0.68968  1.0000
  F   F43       1.0  0.66525  0.87108  0.19752  1.0000
  F   F44       1.0  0.66731  0.88607  0.68794  1.0000
  F   F45       1.0  0.92295  0.37061  0.19475  1.0000
  F   F46       1.0  0.92854  0.35209  0.70937  1.0000
  F   F47       1.0  0.92495  0.85927  0.19709  1.0000
  F   F48       1.0  0.91501  0.88672  0.69330  1.0000
  F   F49       1.0  0.06181  0.14202  0.06609  1.0000
  F   F50       1.0  0.05587  0.15461  0.56784  1.0000
  F   F51       1.0  0.06859  0.65755  0.05697  1.0000
  F   F52       1.0  0.06925  0.66033  0.54798  1.0000
  F   F53       1.0  0.32180  0.16282  0.04999  1.0000
  F   F54       1.0  0.30991  0.15309  0.55601  1.0000
  F   F55       1.0  0.30955  0.64878  0.06283  1.0000
  F   F56       1.0  0.31206  0.66771  0.55572  1.0000
  F   F57       1.0  0.57200  0.16937  0.03533  1.0000
  F   F58       1.0  0.57034  0.16730  0.53606  1.0000
  F   F59       1.0  0.55900  0.65196  0.06142  1.0000
  F   F60       1.0  0.56268  0.65406  0.56003  1.0000
  F   F61       1.0  0.82678  0.16308  0.04714  1.0000
  F   F62       1.0  0.80907  0.15476  0.57057  1.0000
  F   F63       1.0  0.81381  0.66273  0.04614  1.0000
  F   F64       1.0  0.81526  0.67030  0.54501  1.0000
  F   F65       1.0  0.19838  0.19633  0.21133  1.0000
  F   F66       1.0  0.21591  0.20366  0.69801  1.0000
  F   F67       1.0  0.20283  0.69835  0.20782  1.0000
  F   F68       1.0  0.20649  0.70772  0.71572  1.0000
  F   F69       1.0  0.45462  0.20938  0.20371  1.0000
  F   F70       1.0  0.45257  0.20057  0.71159  1.0000
  F   F71       1.0  0.45676  0.70861  0.21796  1.0000
  F   F72       1.0  0.45079  0.70658  0.70081  1.0000
  F   F73       1.0  0.69830  0.20398  0.19697  1.0000
  F   F74       1.0  0.69830  0.21255  0.70455  1.0000
  F   F75       1.0  0.70567  0.71281  0.19723  1.0000
  F   F76       1.0  0.70033  0.70600  0.70741  1.0000
  F   F77       1.0  0.96017  0.20637  0.20931  1.0000
  F   F78       1.0  0.95339  0.20544  0.72011  1.0000
  F   F79       1.0  0.95956  0.69811  0.20979  1.0000
  F   F80       1.0  0.95112  0.70233  0.71448  1.0000
  F   F81       1.0  0.15161  0.10220  0.01999  1.0000
  F   F82       1.0  0.15102  0.09167  0.53599  1.0000
  F   F83       1.0  0.14965  0.58752  0.04504  1.0000
  F   F84       1.0  0.15237  0.58164  0.55255  1.0000
  F   F85       1.0  0.40245  0.08346  0.03324  1.0000
  F   F86       1.0  0.39696  0.08242  0.53535  1.0000
  F   F87       1.0  0.39130  0.58183  0.03951  1.0000
  F   F88       1.0  0.39482  0.58941  0.53905  1.0000
  F   F89       1.0  0.65053  0.07348  0.04228  1.0000
  F   F90       1.0  0.64540  0.06403  0.54561  1.0000
  F   F91       1.0  0.64425  0.59568  0.04709  1.0000
  F   F92       1.0  0.65488  0.59217  0.53663  1.0000
  F   F93       1.0  0.90090  0.08189  0.04442  1.0000
  F   F94       1.0  0.90169  0.10723  0.53781  1.0000
  F   F95       1.0  0.89908  0.61102  0.03995  1.0000
  F   F96       1.0  0.89693  0.59268  0.54039  1.0000
  F   F97       1.0  0.15177  0.18695  0.12945  1.0000
  F   F98       1.0  0.14791  0.18094  0.65215  1.0000
  F   F99       1.0  0.15025  0.69685  0.12456  1.0000
  F   F100      1.0  0.15094  0.70143  0.62809  1.0000
  F   F101      1.0  0.40061  0.19726  0.12090  1.0000
  F   F102      1.0  0.40254  0.19605  0.61075  1.0000
  F   F103      1.0  0.40381  0.67093  0.13062  1.0000
  F   F104      1.0  0.39653  0.70395  0.62228  1.0000
  F   F105      1.0  0.65091  0.19198  0.10283  1.0000
  F   F106      1.0  0.64709  0.19686  0.60084  1.0000
  F   F107      1.0  0.64486  0.70383  0.12701  1.0000
  F   F108      1.0  0.65173  0.69924  0.62593  1.0000
  F   F109      1.0  0.89836  0.20468  0.13818  1.0000
  F   F110      1.0  0.91025  0.19606  0.62201  1.0000
  F   F111      1.0  0.90569  0.70124  0.12963  1.0000
  F   F112      1.0  0.90232  0.68810  0.62570  1.0000
  F   F113      1.0  0.09678  0.29729  0.38152  1.0000
  F   F114      1.0  0.09750  0.30019  0.89039  1.0000
  F   F115      1.0  0.10161  0.79726  0.37652  1.0000
  F   F116      1.0  0.10130  0.79648  0.85167  1.0000
  F   F117      1.0  0.34939  0.30649  0.37810  1.0000
  F   F118      1.0  0.35890  0.28938  0.86256  1.0000
  F   F119      1.0  0.35009  0.79469  0.35797  1.0000
  F   F120      1.0  0.34551  0.80269  0.88640  1.0000
  F   F121      1.0  0.60095  0.32077  0.36233  1.0000
  F   F122      1.0  0.59466  0.31556  0.86117  1.0000
  F   F123      1.0  0.59744  0.80332  0.38180  1.0000
  F   F124      1.0  0.59192  0.81173  0.87302  1.0000
  F   F125      1.0  0.84836  0.31512  0.38334  1.0000
  F   F126      1.0  0.84786  0.31568  0.87614  1.0000
  F   F127      1.0  0.85136  0.81521  0.37148  1.0000
  F   F128      1.0  0.84478  0.81245  0.88500  1.0000
  F   F129      1.0  0.06167  0.24756  0.16187  1.0000
  F   F130      1.0  0.06506  0.25655  0.63988  1.0000
  F   F131      1.0  0.05525  0.73968  0.16882  1.0000
  F   F132      1.0  0.06963  0.76088  0.62590  1.0000
  F   F133      1.0  0.31533  0.25127  0.13497  1.0000
  F   F134      1.0  0.31462  0.24756  0.63935  1.0000
  F   F135      1.0  0.31728  0.74640  0.13315  1.0000
  F   F136      1.0  0.31187  0.74615  0.66546  1.0000
  F   F137      1.0  0.56635  0.25496  0.14859  1.0000
  F   F138      1.0  0.56158  0.25334  0.64316  1.0000
  F   F139      1.0  0.55920  0.75296  0.15133  1.0000
  F   F140      1.0  0.56063  0.75679  0.63885  1.0000
  F   F141      1.0  0.81513  0.24716  0.14553  1.0000
  F   F142      1.0  0.82253  0.25778  0.63438  1.0000
  F   F143      1.0  0.80750  0.75013  0.15137  1.0000
  F   F144      1.0  0.81395  0.76016  0.63755  1.0000
  F   F145      1.0  0.12746  0.35896  0.11411  1.0000
  F   F146      1.0  0.12503  0.36970  0.61490  1.0000
  F   F147      1.0  0.12462  0.85852  0.10176  1.0000
  F   F148      1.0  0.12372  0.86966  0.60646  1.0000
  F   F149      1.0  0.37457  0.36954  0.09740  1.0000
  F   F150      1.0  0.37523  0.35041  0.61481  1.0000
  F   F151      1.0  0.37005  0.84171  0.13566  1.0000
  F   F152      1.0  0.37544  0.87415  0.60030  1.0000
  F   F153      1.0  0.62604  0.37539  0.10393  1.0000
  F   F154      1.0  0.62949  0.37636  0.60037  1.0000
  F   F155      1.0  0.62125  0.87543  0.10706  1.0000
  F   F156      1.0  0.62136  0.85956  0.61746  1.0000
  F   F157      1.0  0.87484  0.37835  0.10987  1.0000
  F   F158      1.0  0.87578  0.36428  0.63429  1.0000
  F   F159      1.0  0.87120  0.87216  0.11685  1.0000
  F   F160      1.0  0.87352  0.86434  0.61368  1.0000
  F   F161      1.0  0.18705  0.24153  0.34613  1.0000
  F   F162      1.0  0.19033  0.24233  0.85192  1.0000
  F   F163      1.0  0.18445  0.73807  0.36841  1.0000
  F   F164      1.0  0.17549  0.74972  0.86164  1.0000
  F   F165      1.0  0.43858  0.25410  0.34976  1.0000
  F   F166      1.0  0.44156  0.24354  0.85364  1.0000
  F   F167      1.0  0.43038  0.75445  0.35938  1.0000
  F   F168      1.0  0.43605  0.76135  0.84958  1.0000
  F   F169      1.0  0.68960  0.24730  0.35541  1.0000
  F   F170      1.0  0.67745  0.24416  0.87305  1.0000
  F   F171      1.0  0.68270  0.75312  0.35010  1.0000
  F   F172      1.0  0.68250  0.75052  0.85048  1.0000
  F   F173      1.0  0.93411  0.24720  0.35323  1.0000
  F   F174      1.0  0.93063  0.24113  0.87559  1.0000
  F   F175      1.0  0.93700  0.74558  0.36030  1.0000
  F   F176      1.0  0.93251  0.75630  0.85268  1.0000
  F   F177      1.0  0.12207  0.11876  0.41546  1.0000
  F   F178      1.0  0.12671  0.13123  0.87173  1.0000
  F   F179      1.0  0.12606  0.62985  0.39304  1.0000
  F   F180      1.0  0.12266  0.60910  0.90314  1.0000
  F   F181      1.0  0.37562  0.12623  0.39275  1.0000
  F   F182      1.0  0.37637  0.11888  0.89151  1.0000
  F   F183      1.0  0.37643  0.63405  0.37863  1.0000
  F   F184      1.0  0.37373  0.63128  0.89822  1.0000
  F   F185      1.0  0.62896  0.14797  0.37266  1.0000
  F   F186      1.0  0.62577  0.12440  0.89571  1.0000
  F   F187      1.0  0.62549  0.62262  0.39678  1.0000
  F   F188      1.0  0.62262  0.62101  0.90155  1.0000
  F   F189      1.0  0.87351  0.11763  0.40529  1.0000
  F   F190      1.0  0.87667  0.12715  0.88818  1.0000
  F   F191      1.0  0.87694  0.63832  0.37341  1.0000
  F   F192      1.0  0.87237  0.60878  0.91973  1.0000
  F   F193      1.0  0.00890  0.36264  0.07192  1.0000
  F   F194      1.0  0.00948  0.35640  0.58484  1.0000
  F   F195      1.0  0.01075  0.85886  0.06475  1.0000
  F   F196      1.0  0.00307  0.86862  0.56797  1.0000
  F   F197      1.0  0.26040  0.35940  0.06116  1.0000
  F   F198      1.0  0.26003  0.37432  0.56150  1.0000
  F   F199      1.0  0.26187  0.85697  0.06064  1.0000
  F   F200      1.0  0.25492  0.85857  0.57526  1.0000
  F   F201      1.0  0.50743  0.35215  0.07421  1.0000
  F   F202      1.0  0.50303  0.36514  0.58015  1.0000
  F   F203      1.0  0.50774  0.86586  0.07710  1.0000
  F   F204      1.0  0.50079  0.86170  0.58757  1.0000
  F   F205      1.0  0.76329  0.36102  0.06918  1.0000
  F   F206      1.0  0.76259  0.36517  0.57371  1.0000
  F   F207      1.0  0.75544  0.87965  0.07202  1.0000
  F   F208      1.0  0.75229  0.86247  0.58812  1.0000
  F   F209      1.0  0.07166  0.48038  0.17872  1.0000
  F   F210      1.0  0.06591  0.47698  0.69300  1.0000
  F   F211      1.0  0.07052  0.97549  0.17138  1.0000
  F   F212      1.0  0.07165  0.98388  0.67493  1.0000
  F   F213      1.0  0.32045  0.48030  0.17815  1.0000
  F   F214      1.0  0.31928  0.47680  0.67149  1.0000
  F   F215      1.0  0.32087  0.98606  0.16427  1.0000
  F   F216      1.0  0.32127  0.98256  0.67288  1.0000
  F   F217      1.0  0.57146  0.49786  0.16599  1.0000
  F   F218      1.0  0.56679  0.48436  0.68785  1.0000
  F   F219      1.0  0.56741  0.99380  0.17700  1.0000
  F   F220      1.0  0.56057  0.99434  0.67045  1.0000
  F   F221      1.0  0.82297  0.48961  0.17198  1.0000
  F   F222      1.0  0.81913  0.50556  0.66619  1.0000
  F   F223      1.0  0.81589  0.99202  0.19229  1.0000
  F   F224      1.0  0.81811  0.99265  0.68194  1.0000
  F   F225      1.0  0.24246  0.14827  0.42432  1.0000
  F   F226      1.0  0.24431  0.12161  0.92622  1.0000
  F   F227      1.0  0.23791  0.62755  0.44592  1.0000
  F   F228      1.0  0.24437  0.65020  0.90444  1.0000
  F   F229      1.0  0.49190  0.14450  0.43000  1.0000
  F   F230      1.0  0.49366  0.12136  0.93652  1.0000
  F   F231      1.0  0.48559  0.64845  0.43636  1.0000
  F   F232      1.0  0.48573  0.64659  0.93814  1.0000
  F   F233      1.0  0.73955  0.13338  0.44046  1.0000
  F   F234      1.0  0.74526  0.14032  0.91827  1.0000
  F   F235      1.0  0.74337  0.64776  0.41818  1.0000
  F   F236      1.0  0.74184  0.64078  0.93611  1.0000
  F   F237      1.0  0.99156  0.13820  0.43236  1.0000
  F   F238      1.0  0.99186  0.11971  0.93423  1.0000
  F   F239      1.0  0.99447  0.63336  0.42437  1.0000
  F   F240      1.0  0.99157  0.64183  0.92039  1.0000
  F   F241      1.0  0.17530  0.01602  0.31794  1.0000
  F   F242      1.0  0.17479  0.99883  0.84314  1.0000
  F   F243      1.0  0.18363  0.50740  0.31450  1.0000
  F   F244      1.0  0.18419  0.49830  0.82757  1.0000
  F   F245      1.0  0.42172  0.01721  0.33348  1.0000
  F   F246      1.0  0.43056  0.01148  0.82122  1.0000
  F   F247      1.0  0.42875  0.52545  0.31400  1.0000
  F   F248      1.0  0.42943  0.52099  0.82984  1.0000
  F   F249      1.0  0.67657  0.01600  0.33896  1.0000
  F   F250      1.0  0.67782  0.02004  0.82675  1.0000
  F   F251      1.0  0.68346  0.51702  0.32372  1.0000
  F   F252      1.0  0.68155  0.51837  0.82512  1.0000
  F   F253      1.0  0.93280  0.01350  0.32472  1.0000
  F   F254      1.0  0.93236  0.01451  0.80730  1.0000
  F   F255      1.0  0.93479  0.52093  0.32014  1.0000
  F   F256      1.0  0.92944  0.52083  0.83133  1.0000
  F   F257      1.0  0.99430  0.23381  0.00665  1.0000
  F   F258      1.0  0.00222  0.24924  0.49879  1.0000
  F   F259      1.0  0.99827  0.74584  0.00312  1.0000
  F   F260      1.0  0.00109  0.74022  0.51093  1.0000
  F   F261      1.0  0.25153  0.24323  0.99735  1.0000
  F   F262      1.0  0.25294  0.25898  0.49124  1.0000
  F   F263      1.0  0.25297  0.73048  0.00832  1.0000
  F   F264      1.0  0.24624  0.76079  0.49054  1.0000
  F   F265      1.0  0.50158  0.24489  0.00374  1.0000
  F   F266      1.0  0.49884  0.24622  0.50815  1.0000
  F   F267      1.0  0.49637  0.75625  0.00559  1.0000
  F   F268      1.0  0.49975  0.74628  0.50397  1.0000
  F   F269      1.0  0.75686  0.24591  0.99395  1.0000
  F   F270      1.0  0.75143  0.25907  0.49323  1.0000
  F   F271      1.0  0.75001  0.75728  0.99406  1.0000
  F   F272      1.0  0.75313  0.76574  0.49159  1.0000
  F   F273      1.0  0.13010  0.99135  0.22960  1.0000
  F   F274      1.0  0.12533  0.99437  0.75082  1.0000
  F   F275      1.0  0.12904  0.49424  0.24480  1.0000
  F   F276      1.0  0.12964  0.49990  0.75462  1.0000
  F   F277      1.0  0.37481  0.99353  0.24796  1.0000
  F   F278      1.0  0.37876  0.01096  0.73316  1.0000
  F   F279      1.0  0.37103  0.50169  0.25684  1.0000
  F   F280      1.0  0.37274  0.49125  0.74080  1.0000
  F   F281      1.0  0.62625  0.00514  0.25024  1.0000
  F   F282      1.0  0.61551  0.00877  0.76054  1.0000
  F   F283      1.0  0.62623  0.50375  0.24920  1.0000
  F   F284      1.0  0.62287  0.51010  0.75824  1.0000
  F   F285      1.0  0.88491  0.00426  0.24854  1.0000
  F   F286      1.0  0.86760  0.00257  0.76037  1.0000
  F   F287      1.0  0.88229  0.50897  0.23393  1.0000
  F   F288      1.0  0.88081  0.51380  0.72901  1.0000
  F   F289      1.0  0.04693  0.02196  0.01552  1.0000
  F   F290      1.0  0.03814  0.03255  0.52593  1.0000
  F   F291      1.0  0.03558  0.53073  0.04326  1.0000
  F   F292      1.0  0.04154  0.52757  0.53209  1.0000
  F   F293      1.0  0.28802  0.03237  0.03487  1.0000
  F   F294      1.0  0.29835  0.02612  0.51231  1.0000
  F   F295      1.0  0.29503  0.51815  0.02938  1.0000
  F   F296      1.0  0.30119  0.53065  0.51352  1.0000
  F   F297      1.0  0.54617  0.03254  0.02661  1.0000
  F   F298      1.0  0.53863  0.03998  0.51547  1.0000
  F   F299      1.0  0.54350  0.52246  0.01126  1.0000
  F   F300      1.0  0.54183  0.53580  0.52796  1.0000
  F   F301      1.0  0.78080  0.04532  0.04027  1.0000
  F   F302      1.0  0.79005  0.03240  0.54094  1.0000
  F   F303      1.0  0.79325  0.52524  0.02496  1.0000
  F   F304      1.0  0.79615  0.52770  0.52519  1.0000
  F   F305      1.0  0.23574  0.39335  0.23322  1.0000
  F   F306      1.0  0.23442  0.40610  0.72560  1.0000
  F   F307      1.0  0.22898  0.90917  0.22003  1.0000
  F   F308      1.0  0.23219  0.91244  0.72334  1.0000
  F   F309      1.0  0.48729  0.41516  0.21436  1.0000
  F   F310      1.0  0.48656  0.41306  0.73465  1.0000
  F   F311      1.0  0.48539  0.92472  0.23053  1.0000
  F   F312      1.0  0.48030  0.91037  0.72120  1.0000
  F   F313      1.0  0.74146  0.41456  0.23678  1.0000
  F   F314      1.0  0.73686  0.42368  0.72547  1.0000
  F   F315      1.0  0.73159  0.90874  0.23338  1.0000
  F   F316      1.0  0.73073  0.90338  0.73389  1.0000
  F   F317      1.0  0.98634  0.40228  0.23841  1.0000
  F   F318      1.0  0.98556  0.41946  0.73351  1.0000
  F   F319      1.0  0.98934  0.90421  0.21741  1.0000
  F   F320      1.0  0.98689  0.90001  0.72434  1.0000
  F   F321      1.0  0.20582  0.46375  0.47763  1.0000
  F   F322      1.0  0.20626  0.45924  0.97930  1.0000
  F   F323      1.0  0.21022  0.95998  0.46534  1.0000
  F   F324      1.0  0.20922  0.97160  0.96723  1.0000
  F   F325      1.0  0.45892  0.47949  0.46977  1.0000
  F   F326      1.0  0.45654  0.47595  0.97532  1.0000
  F   F327      1.0  0.45487  0.97997  0.46043  1.0000
  F   F328      1.0  0.46187  0.95982  0.97498  1.0000
  F   F329      1.0  0.71723  0.47530  0.47103  1.0000
  F   F330      1.0  0.70278  0.47783  0.98510  1.0000
  F   F331      1.0  0.71589  0.96596  0.45367  1.0000
  F   F332      1.0  0.71127  0.97019  0.95546  1.0000
  F   F333      1.0  0.95241  0.46563  0.48087  1.0000
  F   F334      1.0  0.95668  0.47950  0.98028  1.0000
  F   F335      1.0  0.94836  0.97647  0.47984  1.0000
  F   F336      1.0  0.95499  0.96257  0.96696  1.0000
  F   F337      1.0  0.01341  0.08497  0.27832  1.0000
  F   F338      1.0  0.01264  0.07747  0.77307  1.0000
  F   F339      1.0  0.01708  0.57988  0.28317  1.0000
  F   F340      1.0  0.01618  0.59420  0.77063  1.0000
  F   F341      1.0  0.26401  0.10097  0.27660  1.0000
  F   F342      1.0  0.27061  0.07495  0.76402  1.0000
  F   F343      1.0  0.26021  0.58705  0.26841  1.0000
  F   F344      1.0  0.26436  0.57254  0.78752  1.0000
  F   F345      1.0  0.51621  0.09543  0.26949  1.0000
  F   F346      1.0  0.51333  0.08346  0.77500  1.0000
  F   F347      1.0  0.51174  0.58183  0.27639  1.0000
  F   F348      1.0  0.51116  0.60697  0.76829  1.0000
  F   F349      1.0  0.76282  0.10312  0.27424  1.0000
  F   F350      1.0  0.76545  0.09263  0.77063  1.0000
  F   F351      1.0  0.76183  0.58923  0.27129  1.0000
  F   F352      1.0  0.76328  0.58976  0.78577  1.0000
  F   F353      1.0  0.10502  0.41045  0.45091  1.0000
  F   F354      1.0  0.09903  0.40667  0.97124  1.0000
  F   F355      1.0  0.09811  0.92044  0.45521  1.0000
  F   F356      1.0  0.10034  0.87903  0.96700  1.0000
  F   F357      1.0  0.35292  0.40756  0.45948  1.0000
  F   F358      1.0  0.35019  0.40556  0.94130  1.0000
  F   F359      1.0  0.35018  0.89759  0.46646  1.0000
  F   F360      1.0  0.34574  0.90973  0.96785  1.0000
  F   F361      1.0  0.59999  0.41101  0.46315  1.0000
  F   F362      1.0  0.60325  0.39689  0.95597  1.0000
  F   F363      1.0  0.59712  0.91484  0.47017  1.0000
  F   F364      1.0  0.59705  0.90283  0.96290  1.0000
  F   F365      1.0  0.85907  0.41967  0.45996  1.0000
  F   F366      1.0  0.85829  0.39846  0.96199  1.0000
  F   F367      1.0  0.84732  0.92334  0.46342  1.0000
  F   F368      1.0  0.84181  0.91974  0.97432  1.0000
  F   F369      1.0  0.04625  0.29628  0.29875  1.0000
  F   F370      1.0  0.04862  0.29298  0.79767  1.0000
  F   F371      1.0  0.04553  0.79857  0.30093  1.0000
  F   F372      1.0  0.04218  0.79548  0.79098  1.0000
  F   F373      1.0  0.30201  0.28549  0.27735  1.0000
  F   F374      1.0  0.29391  0.29045  0.79237  1.0000
  F   F375      1.0  0.28135  0.79275  0.29871  1.0000
  F   F376      1.0  0.30214  0.79654  0.79349  1.0000
  F   F377      1.0  0.54742  0.31025  0.28067  1.0000
  F   F378      1.0  0.54722  0.30524  0.78124  1.0000
  F   F379      1.0  0.55184  0.79676  0.28566  1.0000
  F   F380      1.0  0.53935  0.79887  0.79335  1.0000
  F   F381      1.0  0.80431  0.29528  0.28881  1.0000
  F   F382      1.0  0.79411  0.30296  0.78874  1.0000
  F   F383      1.0  0.80141  0.80083  0.28625  1.0000
  F   F384      1.0  0.79681  0.80021  0.78902  1.0000
