data_image0
_chemical_formula_structural       Hf96F384
_chemical_formula_sum              "Hf96 F384"
_cell_length_a       31.0338
_cell_length_b       15.5206
_cell_length_c       15.5072
_cell_angle_alpha    63.342
_cell_angle_beta     63.342
_cell_angle_gamma    80.1625

_space_group_name_H-M_alt    "P 1"
_space_group_IT_number       1

loop_
  _space_group_symop_operation_xyz
  'x, y, z'

loop_
  _atom_site_type_symbol
  _atom_site_label
  _atom_site_symmetry_multiplicity
  _atom_site_fract_x
  _atom_site_fract_y
  _atom_site_fract_z
  _atom_site_occupancy
  Hf  Hf1       1.0  0.19756  0.10304  0.37703  1.0000
  Hf  Hf2       1.0  0.19456  0.10484  0.87991  1.0000
  Hf  Hf3       1.0  0.19666  0.60397  0.38157  1.0000
  Hf  Hf4       1.0  0.19763  0.60258  0.87297  1.0000
  Hf  Hf5       1.0  0.44227  0.10590  0.38288  1.0000
  Hf  Hf6       1.0  0.44540  0.10954  0.87361  1.0000
  Hf  Hf7       1.0  0.44724  0.60622  0.36865  1.0000
  Hf  Hf8       1.0  0.44550  0.60831  0.87026  1.0000
  Hf  Hf9       1.0  0.69605  0.11814  0.36329  1.0000
  Hf  Hf10      1.0  0.69664  0.10573  0.87496  1.0000
  Hf  Hf11      1.0  0.69788  0.60508  0.37033  1.0000
  Hf  Hf12      1.0  0.69559  0.61495  0.86140  1.0000
  Hf  Hf13      1.0  0.94284  0.11178  0.38074  1.0000
  Hf  Hf14      1.0  0.94919  0.11372  0.86704  1.0000
  Hf  Hf15      1.0  0.94703  0.61349  0.36961  1.0000
  Hf  Hf16      1.0  0.94665  0.60469  0.88016  1.0000
  Hf  Hf17      1.0  0.05244  0.39722  0.12690  1.0000
  Hf  Hf18      1.0  0.05491  0.39241  0.63173  1.0000
  Hf  Hf19      1.0  0.05395  0.89227  0.12902  1.0000
  Hf  Hf20      1.0  0.05785  0.88833  0.61452  1.0000
  Hf  Hf21      1.0  0.30267  0.38483  0.13105  1.0000
  Hf  Hf22      1.0  0.30665  0.39607  0.61870  1.0000
  Hf  Hf23      1.0  0.30622  0.89410  0.11991  1.0000
  Hf  Hf24      1.0  0.30220  0.87971  0.64393  1.0000
  Hf  Hf25      1.0  0.55072  0.39262  0.12767  1.0000
  Hf  Hf26      1.0  0.55196  0.39297  0.62697  1.0000
  Hf  Hf27      1.0  0.55638  0.89775  0.12057  1.0000
  Hf  Hf28      1.0  0.55273  0.89464  0.62640  1.0000
  Hf  Hf29      1.0  0.80296  0.39847  0.12481  1.0000
  Hf  Hf30      1.0  0.80060  0.38538  0.63569  1.0000
  Hf  Hf31      1.0  0.81115  0.89489  0.11844  1.0000
  Hf  Hf32      1.0  0.80767  0.90007  0.62109  1.0000
  Hf  Hf33      1.0  0.05569  0.18824  0.41678  1.0000
  Hf  Hf34      1.0  0.05417  0.17511  0.92115  1.0000
  Hf  Hf35      1.0  0.05614  0.67937  0.42115  1.0000
  Hf  Hf36      1.0  0.05747  0.68560  0.92157  1.0000
  Hf  Hf37      1.0  0.30363  0.17222  0.42285  1.0000
  Hf  Hf38      1.0  0.30352  0.18248  0.91876  1.0000
  Hf  Hf39      1.0  0.30795  0.68181  0.41195  1.0000
  Hf  Hf40      1.0  0.30453  0.67928  0.92019  1.0000
  Hf  Hf41      1.0  0.55799  0.18223  0.40950  1.0000
  Hf  Hf42      1.0  0.55497  0.17966  0.91796  1.0000
  Hf  Hf43      1.0  0.55919  0.68946  0.40967  1.0000
  Hf  Hf44      1.0  0.55171  0.68010  0.91687  1.0000
  Hf  Hf45      1.0  0.80604  0.19138  0.41005  1.0000
  Hf  Hf46      1.0  0.80543  0.17964  0.92107  1.0000
  Hf  Hf47      1.0  0.80881  0.68516  0.41035  1.0000
  Hf  Hf48      1.0  0.80434  0.68792  0.90797  1.0000
  Hf  Hf49      1.0  0.15693  0.38249  0.34486  1.0000
  Hf  Hf50      1.0  0.16112  0.38233  0.83560  1.0000
  Hf  Hf51      1.0  0.15953  0.88491  0.33053  1.0000
  Hf  Hf52      1.0  0.15721  0.88654  0.83946  1.0000
  Hf  Hf53      1.0  0.40751  0.38196  0.33392  1.0000
  Hf  Hf54      1.0  0.40623  0.38329  0.83765  1.0000
  Hf  Hf55      1.0  0.40985  0.88260  0.33779  1.0000
  Hf  Hf56      1.0  0.40487  0.89114  0.83715  1.0000
  Hf  Hf57      1.0  0.65707  0.39306  0.32798  1.0000
  Hf  Hf58      1.0  0.65623  0.38139  0.84165  1.0000
  Hf  Hf59      1.0  0.66156  0.88962  0.32463  1.0000
  Hf  Hf60      1.0  0.65566  0.89777  0.83042  1.0000
  Hf  Hf61      1.0  0.90435  0.39040  0.34366  1.0000
  Hf  Hf62      1.0  0.90855  0.38974  0.83221  1.0000
  Hf  Hf63      1.0  0.90758  0.89182  0.33430  1.0000
  Hf  Hf64      1.0  0.91188  0.88489  0.82470  1.0000
  Hf  Hf65      1.0  0.19375  0.31883  0.08655  1.0000
  Hf  Hf66      1.0  0.19369  0.31405  0.58672  1.0000
  Hf  Hf67      1.0  0.19428  0.81435  0.08365  1.0000
  Hf  Hf68      1.0  0.19683  0.81462  0.58163  1.0000
  Hf  Hf69      1.0  0.44424  0.31634  0.07675  1.0000
  Hf  Hf70      1.0  0.44545  0.32135  0.57346  1.0000
  Hf  Hf71      1.0  0.44470  0.82664  0.07951  1.0000
  Hf  Hf72      1.0  0.44595  0.81566  0.57796  1.0000
  Hf  Hf73      1.0  0.69034  0.32201  0.07750  1.0000
  Hf  Hf74      1.0  0.69390  0.30976  0.58195  1.0000
  Hf  Hf75      1.0  0.69278  0.81273  0.08141  1.0000
  Hf  Hf76      1.0  0.70025  0.83672  0.57168  1.0000
  Hf  Hf77      1.0  0.94064  0.31313  0.08960  1.0000
  Hf  Hf78      1.0  0.94605  0.32397  0.58150  1.0000
  Hf  Hf79      1.0  0.94581  0.82392  0.08150  1.0000
  Hf  Hf80      1.0  0.94580  0.81461  0.58534  1.0000
  Hf  Hf81      1.0  0.08854  0.11538  0.17598  1.0000
  Hf  Hf82      1.0  0.09134  0.10179  0.66983  1.0000
  Hf  Hf83      1.0  0.09017  0.60484  0.18052  1.0000
  Hf  Hf84      1.0  0.09753  0.61372  0.67019  1.0000
  Hf  Hf85      1.0  0.34503  0.10428  0.16869  1.0000
  Hf  Hf86      1.0  0.33694  0.11340  0.67145  1.0000
  Hf  Hf87      1.0  0.34246  0.60306  0.17094  1.0000
  Hf  Hf88      1.0  0.34319  0.60178  0.67270  1.0000
  Hf  Hf89      1.0  0.58988  0.11473  0.16295  1.0000
  Hf  Hf90      1.0  0.58993  0.11279  0.66354  1.0000
  Hf  Hf91      1.0  0.58951  0.61123  0.15701  1.0000
  Hf  Hf92      1.0  0.59377  0.61107  0.66733  1.0000
  Hf  Hf93      1.0  0.84139  0.12033  0.16423  1.0000
  Hf  Hf94      1.0  0.84091  0.11160  0.66176  1.0000
  Hf  Hf95      1.0  0.84408  0.60932  0.16630  1.0000
  Hf  Hf96      1.0  0.83934  0.61359  0.66503  1.0000
  F   F1        1.0  0.08147  0.13060  0.30733  1.0000
  F   F2        1.0  0.08105  0.13302  0.78918  1.0000
  F   F3        1.0  0.07995  0.64447  0.29798  1.0000
  F   F4        1.0  0.07740  0.62130  0.81404  1.0000
  F   F5        1.0  0.32756  0.10923  0.31257  1.0000
  F   F6        1.0  0.32910  0.12016  0.81366  1.0000
  F   F7        1.0  0.32465  0.60306  0.31666  1.0000
  F   F8        1.0  0.32609  0.61912  0.81116  1.0000
  F   F9        1.0  0.57625  0.11672  0.30989  1.0000
  F   F10       1.0  0.58148  0.14353  0.79377  1.0000
  F   F11       1.0  0.58724  0.64256  0.29545  1.0000
  F   F12       1.0  0.57908  0.61573  0.80487  1.0000
  F   F13       1.0  0.82113  0.11870  0.31016  1.0000
  F   F14       1.0  0.83215  0.12639  0.80133  1.0000
  F   F15       1.0  0.82361  0.61571  0.30670  1.0000
  F   F16       1.0  0.82576  0.61829  0.80213  1.0000
  F   F17       1.0  0.18643  0.35682  0.44540  1.0000
  F   F18       1.0  0.18692  0.34455  0.94546  1.0000
  F   F19       1.0  0.18965  0.83784  0.44445  1.0000
  F   F20       1.0  0.18541  0.84059  0.95080  1.0000
  F   F21       1.0  0.42300  0.34080  0.45631  1.0000
  F   F22       1.0  0.43491  0.33656  0.94388  1.0000
  F   F23       1.0  0.43790  0.84960  0.44499  1.0000
  F   F24       1.0  0.43168  0.82821  0.94416  1.0000
  F   F25       1.0  0.68390  0.34370  0.43580  1.0000
  F   F26       1.0  0.68570  0.32939  0.94283  1.0000
  F   F27       1.0  0.68954  0.84801  0.44117  1.0000
  F   F28       1.0  0.68372  0.84939  0.94109  1.0000
  F   F29       1.0  0.93772  0.34707  0.44826  1.0000
  F   F30       1.0  0.92331  0.32353  0.97212  1.0000
  F   F31       1.0  0.93871  0.83806  0.44960  1.0000
  F   F32       1.0  0.94695  0.84516  0.93469  1.0000
  F   F33       1.0  0.16612  0.37373  0.20050  1.0000
  F   F34       1.0  0.16181  0.36509  0.70642  1.0000
  F   F35       1.0  0.17399  0.88127  0.18518  1.0000
  F   F36       1.0  0.16469  0.86283  0.69573  1.0000
  F   F37       1.0  0.41830  0.36398  0.20248  1.0000
  F   F38       1.0  0.41914  0.35329  0.70036  1.0000
  F   F39       1.0  0.41479  0.86818  0.20318  1.0000
  F   F40       1.0  0.41718  0.86740  0.70156  1.0000
  F   F41       1.0  0.67057  0.37598  0.19341  1.0000
  F   F42       1.0  0.67617  0.37032  0.69442  1.0000
  F   F43       1.0  0.67568  0.86784  0.19455  1.0000
  F   F44       1.0  0.67190  0.88302  0.69088  1.0000
  F   F45       1.0  0.91906  0.37306  0.20184  1.0000
  F   F46       1.0  0.92421  0.38151  0.68879  1.0000
  F   F47       1.0  0.92502  0.86193  0.20326  1.0000
  F   F48       1.0  0.92619  0.87569  0.69230  1.0000
  F   F49       1.0  0.06106  0.15560  0.05455  1.0000
  F   F50       1.0  0.05862  0.14116  0.56680  1.0000
  F   F51       1.0  0.06258  0.65270  0.06921  1.0000
  F   F52       1.0  0.07423  0.65944  0.55233  1.0000
  F   F53       1.0  0.31443  0.16069  0.05578  1.0000
  F   F54       1.0  0.30656  0.14269  0.56987  1.0000
  F   F55       1.0  0.31164  0.65613  0.05601  1.0000
  F   F56       1.0  0.32492  0.65003  0.55139  1.0000
  F   F57       1.0  0.56140  0.16368  0.05489  1.0000
  F   F58       1.0  0.55514  0.14788  0.55632  1.0000
  F   F59       1.0  0.55131  0.65541  0.05604  1.0000
  F   F60       1.0  0.56982  0.67268  0.54820  1.0000
  F   F61       1.0  0.81011  0.16486  0.05166  1.0000
  F   F62       1.0  0.81586  0.16590  0.54336  1.0000
  F   F63       1.0  0.82060  0.66141  0.04675  1.0000
  F   F64       1.0  0.81491  0.66027  0.54812  1.0000
  F   F65       1.0  0.20656  0.20191  0.20436  1.0000
  F   F66       1.0  0.20171  0.19700  0.72643  1.0000
  F   F67       1.0  0.19278  0.69662  0.21981  1.0000
  F   F68       1.0  0.20676  0.69400  0.72349  1.0000
  F   F69       1.0  0.44994  0.20003  0.20871  1.0000
  F   F70       1.0  0.45568  0.18528  0.71559  1.0000
  F   F71       1.0  0.46207  0.71552  0.21372  1.0000
  F   F72       1.0  0.45204  0.69874  0.70131  1.0000
  F   F73       1.0  0.69403  0.21528  0.20210  1.0000
  F   F74       1.0  0.70726  0.20517  0.70742  1.0000
  F   F75       1.0  0.69302  0.69470  0.20645  1.0000
  F   F76       1.0  0.70667  0.71216  0.69867  1.0000
  F   F77       1.0  0.96028  0.20347  0.22003  1.0000
  F   F78       1.0  0.94281  0.20110  0.71623  1.0000
  F   F79       1.0  0.96320  0.70354  0.19373  1.0000
  F   F80       1.0  0.96296  0.71477  0.71518  1.0000
  F   F81       1.0  0.14658  0.08474  0.04402  1.0000
  F   F82       1.0  0.14485  0.08405  0.53706  1.0000
  F   F83       1.0  0.15192  0.59707  0.03415  1.0000
  F   F84       1.0  0.15795  0.60646  0.53613  1.0000
  F   F85       1.0  0.40238  0.09306  0.04138  1.0000
  F   F86       1.0  0.38947  0.10082  0.53967  1.0000
  F   F87       1.0  0.40659  0.60002  0.03047  1.0000
  F   F88       1.0  0.40938  0.57776  0.53029  1.0000
  F   F89       1.0  0.65263  0.09801  0.02650  1.0000
  F   F90       1.0  0.64196  0.09129  0.53406  1.0000
  F   F91       1.0  0.63731  0.60200  0.02254  1.0000
  F   F92       1.0  0.64894  0.58146  0.55122  1.0000
  F   F93       1.0  0.89593  0.10581  0.03831  1.0000
  F   F94       1.0  0.89101  0.07761  0.53939  1.0000
  F   F95       1.0  0.90228  0.59019  0.04264  1.0000
  F   F96       1.0  0.89588  0.61033  0.53187  1.0000
  F   F97       1.0  0.14383  0.20484  0.10751  1.0000
  F   F98       1.0  0.15474  0.19934  0.61383  1.0000
  F   F99       1.0  0.14775  0.69687  0.11799  1.0000
  F   F100      1.0  0.14965  0.69590  0.64783  1.0000
  F   F101      1.0  0.39930  0.20063  0.13353  1.0000
  F   F102      1.0  0.39940  0.20240  0.63161  1.0000
  F   F103      1.0  0.41146  0.70159  0.13802  1.0000
  F   F104      1.0  0.39962  0.70491  0.60669  1.0000
  F   F105      1.0  0.64963  0.19213  0.12697  1.0000
  F   F106      1.0  0.65512  0.19616  0.61630  1.0000
  F   F107      1.0  0.65067  0.69544  0.10569  1.0000
  F   F108      1.0  0.65605  0.69877  0.61228  1.0000
  F   F109      1.0  0.90696  0.17938  0.14692  1.0000
  F   F110      1.0  0.90179  0.18194  0.61060  1.0000
  F   F111      1.0  0.90543  0.70393  0.12729  1.0000
  F   F112      1.0  0.89718  0.70292  0.64862  1.0000
  F   F113      1.0  0.09485  0.31579  0.38243  1.0000
  F   F114      1.0  0.09982  0.29818  0.88027  1.0000
  F   F115      1.0  0.10193  0.80193  0.35703  1.0000
  F   F116      1.0  0.09633  0.81607  0.89037  1.0000
  F   F117      1.0  0.34644  0.30303  0.39604  1.0000
  F   F118      1.0  0.34563  0.29766  0.87936  1.0000
  F   F119      1.0  0.34210  0.79451  0.38258  1.0000
  F   F120      1.0  0.34810  0.79179  0.87746  1.0000
  F   F121      1.0  0.59485  0.30006  0.38147  1.0000
  F   F122      1.0  0.60084  0.28912  0.87021  1.0000
  F   F123      1.0  0.59956  0.81192  0.35882  1.0000
  F   F124      1.0  0.59640  0.81219  0.89025  1.0000
  F   F125      1.0  0.84194  0.32415  0.36014  1.0000
  F   F126      1.0  0.85056  0.30528  0.87052  1.0000
  F   F127      1.0  0.84949  0.80626  0.37989  1.0000
  F   F128      1.0  0.84466  0.80313  0.87362  1.0000
  F   F129      1.0  0.04951  0.24975  0.16721  1.0000
  F   F130      1.0  0.06736  0.25368  0.63062  1.0000
  F   F131      1.0  0.06034  0.75596  0.14770  1.0000
  F   F132      1.0  0.05716  0.74722  0.65930  1.0000
  F   F133      1.0  0.31614  0.25018  0.14518  1.0000
  F   F134      1.0  0.31762  0.26076  0.63310  1.0000
  F   F135      1.0  0.32761  0.74550  0.13936  1.0000
  F   F136      1.0  0.30475  0.73546  0.67137  1.0000
  F   F137      1.0  0.55830  0.25170  0.14638  1.0000
  F   F138      1.0  0.57022  0.25271  0.62795  1.0000
  F   F139      1.0  0.56134  0.74573  0.13877  1.0000
  F   F140      1.0  0.57073  0.75616  0.63764  1.0000
  F   F141      1.0  0.82926  0.26873  0.11033  1.0000
  F   F142      1.0  0.80587  0.23760  0.64930  1.0000
  F   F143      1.0  0.81356  0.75478  0.13573  1.0000
  F   F144      1.0  0.82161  0.76479  0.61161  1.0000
  F   F145      1.0  0.11840  0.34762  0.13055  1.0000
  F   F146      1.0  0.12227  0.36129  0.62052  1.0000
  F   F147      1.0  0.12298  0.85141  0.12632  1.0000
  F   F148      1.0  0.12722  0.86619  0.59178  1.0000
  F   F149      1.0  0.37768  0.38434  0.08597  1.0000
  F   F150      1.0  0.37821  0.39843  0.58673  1.0000
  F   F151      1.0  0.37616  0.88494  0.09251  1.0000
  F   F152      1.0  0.37548  0.87118  0.61192  1.0000
  F   F153      1.0  0.62347  0.37335  0.09165  1.0000
  F   F154      1.0  0.62577  0.37347  0.60566  1.0000
  F   F155      1.0  0.62424  0.86019  0.12189  1.0000
  F   F156      1.0  0.62814  0.88444  0.59861  1.0000
  F   F157      1.0  0.87432  0.38365  0.10797  1.0000
  F   F158      1.0  0.87051  0.34689  0.62040  1.0000
  F   F159      1.0  0.88163  0.88644  0.09029  1.0000
  F   F160      1.0  0.87700  0.86330  0.61959  1.0000
  F   F161      1.0  0.18772  0.25257  0.36167  1.0000
  F   F162      1.0  0.18889  0.24800  0.85353  1.0000
  F   F163      1.0  0.18308  0.75020  0.35636  1.0000
  F   F164      1.0  0.18737  0.74861  0.85883  1.0000
  F   F165      1.0  0.43827  0.24807  0.34998  1.0000
  F   F166      1.0  0.42520  0.23810  0.87979  1.0000
  F   F167      1.0  0.42050  0.73618  0.39055  1.0000
  F   F168      1.0  0.44063  0.74763  0.84458  1.0000
  F   F169      1.0  0.69176  0.25603  0.33874  1.0000
  F   F170      1.0  0.68217  0.24792  0.85245  1.0000
  F   F171      1.0  0.68329  0.74424  0.36265  1.0000
  F   F172      1.0  0.68863  0.74888  0.85067  1.0000
  F   F173      1.0  0.91922  0.24394  0.38602  1.0000
  F   F174      1.0  0.94243  0.25518  0.84880  1.0000
  F   F175      1.0  0.93750  0.75074  0.35858  1.0000
  F   F176      1.0  0.93140  0.74202  0.87004  1.0000
  F   F177      1.0  0.12748  0.16346  0.37691  1.0000
  F   F178      1.0  0.12330  0.12712  0.88918  1.0000
  F   F179      1.0  0.12647  0.62727  0.39675  1.0000
  F   F180      1.0  0.12458  0.63588  0.89871  1.0000
  F   F181      1.0  0.37704  0.14978  0.37607  1.0000
  F   F182      1.0  0.37687  0.12762  0.89012  1.0000
  F   F183      1.0  0.37783  0.62993  0.37098  1.0000
  F   F184      1.0  0.36996  0.61779  0.90240  1.0000
  F   F185      1.0  0.62868  0.14321  0.37060  1.0000
  F   F186      1.0  0.62167  0.11760  0.90509  1.0000
  F   F187      1.0  0.62518  0.62033  0.39906  1.0000
  F   F188      1.0  0.62511  0.66030  0.86171  1.0000
  F   F189      1.0  0.87484  0.14829  0.37334  1.0000
  F   F190      1.0  0.87297  0.11511  0.90659  1.0000
  F   F191      1.0  0.88091  0.64661  0.35556  1.0000
  F   F192      1.0  0.87429  0.62643  0.89165  1.0000
  F   F193      1.0  0.00796  0.37980  0.06699  1.0000
  F   F194      1.0  0.00565  0.37413  0.56297  1.0000
  F   F195      1.0  0.00524  0.87465  0.06880  1.0000
  F   F196      1.0  0.01075  0.87380  0.54980  1.0000
  F   F197      1.0  0.25804  0.36269  0.07230  1.0000
  F   F198      1.0  0.25594  0.36002  0.58079  1.0000
  F   F199      1.0  0.25894  0.84007  0.09029  1.0000
  F   F200      1.0  0.25681  0.85654  0.58296  1.0000
  F   F201      1.0  0.49899  0.37132  0.08575  1.0000
  F   F202      1.0  0.50603  0.35449  0.58185  1.0000
  F   F203      1.0  0.51070  0.86426  0.08167  1.0000
  F   F204      1.0  0.50644  0.85187  0.58356  1.0000
  F   F205      1.0  0.76234  0.36479  0.07792  1.0000
  F   F206      1.0  0.75742  0.37145  0.57559  1.0000
  F   F207      1.0  0.75381  0.84895  0.07450  1.0000
  F   F208      1.0  0.76018  0.87767  0.56685  1.0000
  F   F209      1.0  0.06758  0.48055  0.18996  1.0000
  F   F210      1.0  0.07449  0.48476  0.66783  1.0000
  F   F211      1.0  0.06685  0.98758  0.17024  1.0000
  F   F212      1.0  0.06923  0.97810  0.66715  1.0000
  F   F213      1.0  0.32335  0.48105  0.17811  1.0000
  F   F214      1.0  0.31576  0.47620  0.69397  1.0000
  F   F215      1.0  0.31774  0.98795  0.19088  1.0000
  F   F216      1.0  0.31660  0.97917  0.68788  1.0000
  F   F217      1.0  0.57089  0.47624  0.17819  1.0000
  F   F218      1.0  0.55883  0.48609  0.68787  1.0000
  F   F219      1.0  0.57230  0.98800  0.16909  1.0000
  F   F220      1.0  0.57143  0.98010  0.68418  1.0000
  F   F221      1.0  0.82097  0.49112  0.17898  1.0000
  F   F222      1.0  0.82221  0.47608  0.69598  1.0000
  F   F223      1.0  0.82054  0.99177  0.16779  1.0000
  F   F224      1.0  0.81899  0.98945  0.67226  1.0000
  F   F225      1.0  0.24293  0.13045  0.43105  1.0000
  F   F226      1.0  0.24392  0.13750  0.92812  1.0000
  F   F227      1.0  0.24423  0.63460  0.43448  1.0000
  F   F228      1.0  0.24122  0.63367  0.93647  1.0000
  F   F229      1.0  0.49265  0.14824  0.41488  1.0000
  F   F230      1.0  0.48738  0.13308  0.93905  1.0000
  F   F231      1.0  0.50017  0.64601  0.39823  1.0000
  F   F232      1.0  0.49287  0.62643  0.93413  1.0000
  F   F233      1.0  0.73528  0.15618  0.41502  1.0000
  F   F234      1.0  0.74093  0.14408  0.92408  1.0000
  F   F235      1.0  0.74480  0.63861  0.43018  1.0000
  F   F236      1.0  0.74093  0.64172  0.91354  1.0000
  F   F237      1.0  0.99433  0.14239  0.41559  1.0000
  F   F238      1.0  0.99254  0.13716  0.93524  1.0000
  F   F239      1.0  0.98981  0.63769  0.43135  1.0000
  F   F240      1.0  0.98769  0.63989  0.93540  1.0000
  F   F241      1.0  0.17298  0.02028  0.34080  1.0000
  F   F242      1.0  0.18268  0.01914  0.82794  1.0000
  F   F243      1.0  0.18329  0.51009  0.32420  1.0000
  F   F244      1.0  0.17347  0.52556  0.82732  1.0000
  F   F245      1.0  0.42473  0.01493  0.33272  1.0000
  F   F246      1.0  0.42774  0.01486  0.82112  1.0000
  F   F247      1.0  0.44008  0.51616  0.31594  1.0000
  F   F248      1.0  0.43050  0.51228  0.82094  1.0000
  F   F249      1.0  0.68837  0.02302  0.30851  1.0000
  F   F250      1.0  0.67965  0.02456  0.81686  1.0000
  F   F251      1.0  0.67733  0.51545  0.31920  1.0000
  F   F252      1.0  0.66810  0.50943  0.84945  1.0000
  F   F253      1.0  0.93651  0.02233  0.31355  1.0000
  F   F254      1.0  0.93879  0.01138  0.82037  1.0000
  F   F255      1.0  0.93371  0.50620  0.32710  1.0000
  F   F256      1.0  0.93102  0.51750  0.82124  1.0000
  F   F257      1.0  0.99995  0.26178  0.00351  1.0000
  F   F258      1.0  0.99909  0.24214  0.51534  1.0000
  F   F259      1.0  0.00615  0.75840  0.99712  1.0000
  F   F260      1.0  0.00168  0.73383  0.51291  1.0000
  F   F261      1.0  0.25025  0.25864  0.00292  1.0000
  F   F262      1.0  0.25115  0.24178  0.50262  1.0000
  F   F263      1.0  0.24461  0.74232  0.01078  1.0000
  F   F264      1.0  0.24955  0.73862  0.51342  1.0000
  F   F265      1.0  0.50010  0.25294  0.99413  1.0000
  F   F266      1.0  0.49652  0.25549  0.48704  1.0000
  F   F267      1.0  0.49777  0.76628  0.99115  1.0000
  F   F268      1.0  0.50548  0.76117  0.48044  1.0000
  F   F269      1.0  0.74639  0.24369  0.99967  1.0000
  F   F270      1.0  0.75080  0.26135  0.49694  1.0000
  F   F271      1.0  0.75100  0.75458  0.98083  1.0000
  F   F272      1.0  0.75212  0.76464  0.48920  1.0000
  F   F273      1.0  0.11415  0.99379  0.25207  1.0000
  F   F274      1.0  0.13274  0.00293  0.74281  1.0000
  F   F275      1.0  0.11919  0.49910  0.26803  1.0000
  F   F276      1.0  0.12030  0.49332  0.76157  1.0000
  F   F277      1.0  0.38079  0.99599  0.24910  1.0000
  F   F278      1.0  0.37042  0.99851  0.75037  1.0000
  F   F279      1.0  0.38782  0.50928  0.23477  1.0000
  F   F280      1.0  0.38341  0.50648  0.73548  1.0000
  F   F281      1.0  0.63111  0.00614  0.24019  1.0000
  F   F282      1.0  0.62151  0.00007  0.74977  1.0000
  F   F283      1.0  0.62420  0.50231  0.23266  1.0000
  F   F284      1.0  0.62265  0.48951  0.75234  1.0000
  F   F285      1.0  0.87080  0.98985  0.25763  1.0000
  F   F286      1.0  0.87281  0.99049  0.75982  1.0000
  F   F287      1.0  0.87910  0.50825  0.24858  1.0000
  F   F288      1.0  0.88474  0.51541  0.73427  1.0000
  F   F289      1.0  0.04267  0.03341  0.01867  1.0000
  F   F290      1.0  0.05049  0.02709  0.50736  1.0000
  F   F291      1.0  0.04299  0.53289  0.03226  1.0000
  F   F292      1.0  0.04181  0.53040  0.52554  1.0000
  F   F293      1.0  0.28969  0.02479  0.03178  1.0000
  F   F294      1.0  0.30045  0.02540  0.51790  1.0000
  F   F295      1.0  0.28776  0.51334  0.04444  1.0000
  F   F296      1.0  0.29411  0.53298  0.52660  1.0000
  F   F297      1.0  0.53891  0.03017  0.03385  1.0000
  F   F298      1.0  0.54616  0.02264  0.51798  1.0000
  F   F299      1.0  0.55325  0.52445  0.01073  1.0000
  F   F300      1.0  0.54696  0.53175  0.52034  1.0000
  F   F301      1.0  0.79107  0.01995  0.02086  1.0000
  F   F302      1.0  0.79220  0.04166  0.51474  1.0000
  F   F303      1.0  0.78666  0.53446  0.03584  1.0000
  F   F304      1.0  0.80898  0.52879  0.51522  1.0000
  F   F305      1.0  0.23691  0.40279  0.23905  1.0000
  F   F306      1.0  0.23421  0.42080  0.73151  1.0000
  F   F307      1.0  0.23332  0.92774  0.22332  1.0000
  F   F308      1.0  0.23098  0.91168  0.73989  1.0000
  F   F309      1.0  0.48359  0.41798  0.23131  1.0000
  F   F310      1.0  0.47871  0.39869  0.73299  1.0000
  F   F311      1.0  0.48174  0.89589  0.24488  1.0000
  F   F312      1.0  0.48218  0.92760  0.72152  1.0000
  F   F313      1.0  0.72887  0.41195  0.23760  1.0000
  F   F314      1.0  0.73465  0.42705  0.72383  1.0000
  F   F315      1.0  0.74121  0.90821  0.23105  1.0000
  F   F316      1.0  0.73875  0.91567  0.73161  1.0000
  F   F317      1.0  0.98278  0.39169  0.24709  1.0000
  F   F318      1.0  0.98254  0.42864  0.72541  1.0000
  F   F319      1.0  0.98583  0.91418  0.23644  1.0000
  F   F320      1.0  0.98780  0.90886  0.71230  1.0000
  F   F321      1.0  0.20071  0.47425  0.49704  1.0000
  F   F322      1.0  0.20259  0.47207  0.98375  1.0000
  F   F323      1.0  0.21167  0.96455  0.47555  1.0000
  F   F324      1.0  0.21370  0.96327  0.97519  1.0000
  F   F325      1.0  0.47273  0.45537  0.46433  1.0000
  F   F326      1.0  0.45808  0.46869  0.96457  1.0000
  F   F327      1.0  0.45254  0.98281  0.50594  1.0000
  F   F328      1.0  0.45992  0.97004  0.97038  1.0000
  F   F329      1.0  0.71119  0.47408  0.46473  1.0000
  F   F330      1.0  0.70665  0.47688  0.98077  1.0000
  F   F331      1.0  0.72041  0.98803  0.45316  1.0000
  F   F332      1.0  0.70077  0.96611  0.98295  1.0000
  F   F333      1.0  0.94728  0.47785  0.48340  1.0000
  F   F334      1.0  0.94933  0.46669  0.98258  1.0000
  F   F335      1.0  0.95203  0.96885  0.48993  1.0000
  F   F336      1.0  0.95980  0.99232  0.97039  1.0000
  F   F337      1.0  0.01463  0.07277  0.28451  1.0000
  F   F338      1.0  0.01765  0.08942  0.76805  1.0000
  F   F339      1.0  0.01534  0.57787  0.28514  1.0000
  F   F340      1.0  0.01281  0.58219  0.77602  1.0000
  F   F341      1.0  0.25979  0.08351  0.27622  1.0000
  F   F342      1.0  0.26576  0.08768  0.78626  1.0000
  F   F343      1.0  0.26331  0.59514  0.27439  1.0000
  F   F344      1.0  0.26544  0.56552  0.79057  1.0000
  F   F345      1.0  0.51122  0.07782  0.28258  1.0000
  F   F346      1.0  0.51389  0.09440  0.77382  1.0000
  F   F347      1.0  0.52203  0.58168  0.26504  1.0000
  F   F348      1.0  0.51298  0.59453  0.77269  1.0000
  F   F349      1.0  0.76599  0.11999  0.24435  1.0000
  F   F350      1.0  0.76524  0.07023  0.78703  1.0000
  F   F351      1.0  0.76242  0.59659  0.25740  1.0000
  F   F352      1.0  0.75745  0.57577  0.76312  1.0000
  F   F353      1.0  0.10289  0.41234  0.46720  1.0000
  F   F354      1.0  0.10331  0.39852  0.97724  1.0000
  F   F355      1.0  0.10077  0.89494  0.45947  1.0000
  F   F356      1.0  0.10512  0.91416  0.97179  1.0000
  F   F357      1.0  0.35208  0.43261  0.44401  1.0000
  F   F358      1.0  0.34635  0.41193  0.95702  1.0000
  F   F359      1.0  0.35011  0.87908  0.47744  1.0000
  F   F360      1.0  0.34774  0.90640  0.96024  1.0000
  F   F361      1.0  0.59732  0.41057  0.45591  1.0000
  F   F362      1.0  0.59481  0.38995  0.96184  1.0000
  F   F363      1.0  0.60452  0.90296  0.44779  1.0000
  F   F364      1.0  0.60175  0.92716  0.95868  1.0000
  F   F365      1.0  0.85214  0.40927  0.47952  1.0000
  F   F366      1.0  0.85101  0.43276  0.94136  1.0000
  F   F367      1.0  0.85609  0.91745  0.46432  1.0000
  F   F368      1.0  0.86023  0.88308  0.96027  1.0000
  F   F369      1.0  0.04307  0.30757  0.30452  1.0000
  F   F370      1.0  0.04496  0.29799  0.79069  1.0000
  F   F371      1.0  0.04118  0.79173  0.30514  1.0000
  F   F372      1.0  0.06127  0.79648  0.78245  1.0000
  F   F373      1.0  0.29759  0.28639  0.29959  1.0000
  F   F374      1.0  0.29765  0.29486  0.79048  1.0000
  F   F375      1.0  0.29192  0.80266  0.28950  1.0000
  F   F376      1.0  0.29711  0.80097  0.79668  1.0000
  F   F377      1.0  0.55402  0.29609  0.27298  1.0000
  F   F378      1.0  0.54129  0.29732  0.78641  1.0000
  F   F379      1.0  0.54848  0.80508  0.27714  1.0000
  F   F380      1.0  0.54268  0.79841  0.78927  1.0000
  F   F381      1.0  0.78608  0.30682  0.28878  1.0000
  F   F382      1.0  0.80102  0.29586  0.79056  1.0000
  F   F383      1.0  0.80672  0.80259  0.28120  1.0000
  F   F384      1.0  0.79504  0.79402  0.78094  1.0000
