data_image0
_chemical_formula_structural       Hf96F384
_chemical_formula_sum              "Hf96 F384"
_cell_length_a       31.051
_cell_length_b       15.5261
_cell_length_c       15.5164
_cell_angle_alpha    63.342
_cell_angle_beta     63.342
_cell_angle_gamma    80.1625

_space_group_name_H-M_alt    "P 1"
_space_group_IT_number       1

loop_
  _space_group_symop_operation_xyz
  'x, y, z'

loop_
  _atom_site_type_symbol
  _atom_site_label
  _atom_site_symmetry_multiplicity
  _atom_site_fract_x
  _atom_site_fract_y
  _atom_site_fract_z
  _atom_site_occupancy
  Hf  Hf1       1.0  0.19578  0.09346  0.38147  1.0000
  Hf  Hf2       1.0  0.19380  0.09347  0.89182  1.0000
  Hf  Hf3       1.0  0.19590  0.60736  0.37769  1.0000
  Hf  Hf4       1.0  0.19166  0.61057  0.87478  1.0000
  Hf  Hf5       1.0  0.44823  0.10781  0.36913  1.0000
  Hf  Hf6       1.0  0.44893  0.10235  0.87237  1.0000
  Hf  Hf7       1.0  0.45150  0.61189  0.36069  1.0000
  Hf  Hf8       1.0  0.44295  0.60965  0.87953  1.0000
  Hf  Hf9       1.0  0.69931  0.10862  0.37191  1.0000
  Hf  Hf10      1.0  0.69762  0.10733  0.87001  1.0000
  Hf  Hf11      1.0  0.69023  0.60669  0.37822  1.0000
  Hf  Hf12      1.0  0.69509  0.61246  0.87589  1.0000
  Hf  Hf13      1.0  0.94333  0.11186  0.37467  1.0000
  Hf  Hf14      1.0  0.94722  0.10450  0.87514  1.0000
  Hf  Hf15      1.0  0.94732  0.60341  0.37178  1.0000
  Hf  Hf16      1.0  0.94066  0.61192  0.88228  1.0000
  Hf  Hf17      1.0  0.05311  0.38272  0.13087  1.0000
  Hf  Hf18      1.0  0.05417  0.39277  0.62673  1.0000
  Hf  Hf19      1.0  0.05440  0.88714  0.12652  1.0000
  Hf  Hf20      1.0  0.04767  0.89052  0.63384  1.0000
  Hf  Hf21      1.0  0.30382  0.39918  0.12260  1.0000
  Hf  Hf22      1.0  0.30277  0.39364  0.62576  1.0000
  Hf  Hf23      1.0  0.30471  0.88757  0.13126  1.0000
  Hf  Hf24      1.0  0.30544  0.88990  0.62814  1.0000
  Hf  Hf25      1.0  0.55867  0.39447  0.12048  1.0000
  Hf  Hf26      1.0  0.55362  0.40044  0.62542  1.0000
  Hf  Hf27      1.0  0.55568  0.89707  0.12355  1.0000
  Hf  Hf28      1.0  0.55394  0.88948  0.62055  1.0000
  Hf  Hf29      1.0  0.80477  0.39812  0.12238  1.0000
  Hf  Hf30      1.0  0.80828  0.40091  0.61637  1.0000
  Hf  Hf31      1.0  0.80253  0.89310  0.12299  1.0000
  Hf  Hf32      1.0  0.80265  0.89842  0.62455  1.0000
  Hf  Hf33      1.0  0.05514  0.17276  0.41671  1.0000
  Hf  Hf34      1.0  0.05522  0.18031  0.91454  1.0000
  Hf  Hf35      1.0  0.05790  0.67968  0.41019  1.0000
  Hf  Hf36      1.0  0.05184  0.67487  0.92282  1.0000
  Hf  Hf37      1.0  0.30504  0.18242  0.41934  1.0000
  Hf  Hf38      1.0  0.30621  0.17474  0.91872  1.0000
  Hf  Hf39      1.0  0.30653  0.68307  0.42274  1.0000
  Hf  Hf40      1.0  0.30512  0.67485  0.91884  1.0000
  Hf  Hf41      1.0  0.55820  0.18930  0.41086  1.0000
  Hf  Hf42      1.0  0.56056  0.19049  0.90658  1.0000
  Hf  Hf43      1.0  0.55294  0.68263  0.41790  1.0000
  Hf  Hf44      1.0  0.55855  0.68669  0.90952  1.0000
  Hf  Hf45      1.0  0.80558  0.18994  0.40934  1.0000
  Hf  Hf46      1.0  0.80316  0.17698  0.91838  1.0000
  Hf  Hf47      1.0  0.81106  0.69095  0.40457  1.0000
  Hf  Hf48      1.0  0.80266  0.68339  0.91558  1.0000
  Hf  Hf49      1.0  0.15847  0.38470  0.32983  1.0000
  Hf  Hf50      1.0  0.16054  0.38064  0.83381  1.0000
  Hf  Hf51      1.0  0.16016  0.88762  0.33293  1.0000
  Hf  Hf52      1.0  0.15580  0.88368  0.83731  1.0000
  Hf  Hf53      1.0  0.40745  0.39093  0.33354  1.0000
  Hf  Hf54      1.0  0.40503  0.38252  0.84431  1.0000
  Hf  Hf55      1.0  0.41242  0.89272  0.33196  1.0000
  Hf  Hf56      1.0  0.41088  0.89431  0.83219  1.0000
  Hf  Hf57      1.0  0.66179  0.38780  0.32682  1.0000
  Hf  Hf58      1.0  0.66744  0.39579  0.82739  1.0000
  Hf  Hf59      1.0  0.65910  0.88923  0.33715  1.0000
  Hf  Hf60      1.0  0.65823  0.89012  0.83247  1.0000
  Hf  Hf61      1.0  0.90503  0.38878  0.33428  1.0000
  Hf  Hf62      1.0  0.90933  0.38873  0.83998  1.0000
  Hf  Hf63      1.0  0.90542  0.89100  0.32807  1.0000
  Hf  Hf64      1.0  0.90639  0.89779  0.82684  1.0000
  Hf  Hf65      1.0  0.19541  0.31696  0.08042  1.0000
  Hf  Hf66      1.0  0.19376  0.31254  0.58047  1.0000
  Hf  Hf67      1.0  0.19527  0.80864  0.08468  1.0000
  Hf  Hf68      1.0  0.19466  0.81234  0.58874  1.0000
  Hf  Hf69      1.0  0.44205  0.31144  0.08495  1.0000
  Hf  Hf70      1.0  0.44409  0.31864  0.59132  1.0000
  Hf  Hf71      1.0  0.44803  0.81790  0.08369  1.0000
  Hf  Hf72      1.0  0.44121  0.82094  0.58703  1.0000
  Hf  Hf73      1.0  0.69647  0.31425  0.08134  1.0000
  Hf  Hf74      1.0  0.69502  0.31796  0.58658  1.0000
  Hf  Hf75      1.0  0.69368  0.81769  0.08393  1.0000
  Hf  Hf76      1.0  0.69448  0.81000  0.58585  1.0000
  Hf  Hf77      1.0  0.94862  0.32275  0.07093  1.0000
  Hf  Hf78      1.0  0.94625  0.31474  0.58750  1.0000
  Hf  Hf79      1.0  0.94448  0.82384  0.07844  1.0000
  Hf  Hf80      1.0  0.94405  0.82549  0.57498  1.0000
  Hf  Hf81      1.0  0.08792  0.10330  0.16967  1.0000
  Hf  Hf82      1.0  0.09152  0.11248  0.67079  1.0000
  Hf  Hf83      1.0  0.08906  0.60286  0.17235  1.0000
  Hf  Hf84      1.0  0.09059  0.61358  0.66244  1.0000
  Hf  Hf85      1.0  0.33902  0.11110  0.17095  1.0000
  Hf  Hf86      1.0  0.33901  0.10474  0.67826  1.0000
  Hf  Hf87      1.0  0.33958  0.61301  0.17417  1.0000
  Hf  Hf88      1.0  0.33622  0.61143  0.67777  1.0000
  Hf  Hf89      1.0  0.59414  0.11767  0.16121  1.0000
  Hf  Hf90      1.0  0.59368  0.11935  0.66289  1.0000
  Hf  Hf91      1.0  0.59115  0.60837  0.17081  1.0000
  Hf  Hf92      1.0  0.59151  0.61416  0.66537  1.0000
  Hf  Hf93      1.0  0.84314  0.11833  0.15790  1.0000
  Hf  Hf94      1.0  0.83643  0.11060  0.67264  1.0000
  Hf  Hf95      1.0  0.83806  0.61433  0.16895  1.0000
  Hf  Hf96      1.0  0.84324  0.61488  0.65960  1.0000
  F   F1        1.0  0.08372  0.14693  0.28791  1.0000
  F   F2        1.0  0.07324  0.11393  0.81610  1.0000
  F   F3        1.0  0.08518  0.63209  0.29599  1.0000
  F   F4        1.0  0.07325  0.63725  0.79651  1.0000
  F   F5        1.0  0.32681  0.10005  0.32279  1.0000
  F   F6        1.0  0.32879  0.12298  0.81146  1.0000
  F   F7        1.0  0.33634  0.63410  0.30518  1.0000
  F   F8        1.0  0.32524  0.61888  0.81377  1.0000
  F   F9        1.0  0.59131  0.14294  0.28076  1.0000
  F   F10       1.0  0.57841  0.11851  0.80613  1.0000
  F   F11       1.0  0.57675  0.61232  0.31455  1.0000
  F   F12       1.0  0.58040  0.63968  0.79805  1.0000
  F   F13       1.0  0.83134  0.13722  0.29183  1.0000
  F   F14       1.0  0.82240  0.12190  0.81523  1.0000
  F   F15       1.0  0.83115  0.62449  0.30366  1.0000
  F   F16       1.0  0.82770  0.62923  0.79771  1.0000
  F   F17       1.0  0.18103  0.32485  0.44983  1.0000
  F   F18       1.0  0.19165  0.33688  0.94112  1.0000
  F   F19       1.0  0.18740  0.84138  0.44622  1.0000
  F   F20       1.0  0.17769  0.83602  0.95839  1.0000
  F   F21       1.0  0.43620  0.35464  0.43772  1.0000
  F   F22       1.0  0.43264  0.32769  0.95680  1.0000
  F   F23       1.0  0.42980  0.83678  0.45729  1.0000
  F   F24       1.0  0.43913  0.83904  0.93889  1.0000
  F   F25       1.0  0.67701  0.33106  0.45646  1.0000
  F   F26       1.0  0.69504  0.34823  0.94025  1.0000
  F   F27       1.0  0.68573  0.84007  0.45038  1.0000
  F   F28       1.0  0.67565  0.82552  0.96079  1.0000
  F   F29       1.0  0.93712  0.34894  0.43937  1.0000
  F   F30       1.0  0.93242  0.33660  0.94668  1.0000
  F   F31       1.0  0.94123  0.83803  0.44430  1.0000
  F   F32       1.0  0.92586  0.83630  0.95291  1.0000
  F   F33       1.0  0.17410  0.38247  0.18805  1.0000
  F   F34       1.0  0.16178  0.36029  0.71078  1.0000
  F   F35       1.0  0.17570  0.87232  0.19267  1.0000
  F   F36       1.0  0.17537  0.87712  0.69321  1.0000
  F   F37       1.0  0.41891  0.39111  0.18788  1.0000
  F   F38       1.0  0.41901  0.36316  0.70649  1.0000
  F   F39       1.0  0.41721  0.85676  0.20654  1.0000
  F   F40       1.0  0.42053  0.86119  0.69811  1.0000
  F   F41       1.0  0.67389  0.37212  0.19995  1.0000
  F   F42       1.0  0.67619  0.36641  0.70397  1.0000
  F   F43       1.0  0.66871  0.86130  0.19782  1.0000
  F   F44       1.0  0.67741  0.87599  0.68454  1.0000
  F   F45       1.0  0.92241  0.37848  0.18729  1.0000
  F   F46       1.0  0.91918  0.36180  0.70656  1.0000
  F   F47       1.0  0.92127  0.86595  0.20092  1.0000
  F   F48       1.0  0.92530  0.89005  0.67984  1.0000
  F   F49       1.0  0.06261  0.15563  0.05484  1.0000
  F   F50       1.0  0.06871  0.16243  0.54864  1.0000
  F   F51       1.0  0.05863  0.64542  0.06867  1.0000
  F   F52       1.0  0.06476  0.65049  0.55180  1.0000
  F   F53       1.0  0.32150  0.14547  0.05149  1.0000
  F   F54       1.0  0.30895  0.16520  0.55829  1.0000
  F   F55       1.0  0.30782  0.65955  0.05979  1.0000
  F   F56       1.0  0.31205  0.66370  0.55247  1.0000
  F   F57       1.0  0.57152  0.17855  0.04074  1.0000
  F   F58       1.0  0.56358  0.17279  0.55292  1.0000
  F   F59       1.0  0.56138  0.65518  0.05178  1.0000
  F   F60       1.0  0.56451  0.65968  0.54664  1.0000
  F   F61       1.0  0.82179  0.16378  0.04215  1.0000
  F   F62       1.0  0.81525  0.16898  0.54856  1.0000
  F   F63       1.0  0.80546  0.66152  0.05911  1.0000
  F   F64       1.0  0.81966  0.67566  0.53937  1.0000
  F   F65       1.0  0.19025  0.19898  0.20301  1.0000
  F   F66       1.0  0.19928  0.20025  0.70376  1.0000
  F   F67       1.0  0.20710  0.70090  0.21899  1.0000
  F   F68       1.0  0.20412  0.70835  0.70679  1.0000
  F   F69       1.0  0.45166  0.20910  0.21205  1.0000
  F   F70       1.0  0.44867  0.19368  0.70618  1.0000
  F   F71       1.0  0.46707  0.70398  0.19913  1.0000
  F   F72       1.0  0.46249  0.70836  0.71381  1.0000
  F   F73       1.0  0.69353  0.20045  0.21197  1.0000
  F   F74       1.0  0.71584  0.20830  0.71611  1.0000
  F   F75       1.0  0.70766  0.70166  0.21275  1.0000
  F   F76       1.0  0.70301  0.69644  0.71554  1.0000
  F   F77       1.0  0.95231  0.21170  0.19990  1.0000
  F   F78       1.0  0.96252  0.18472  0.70282  1.0000
  F   F79       1.0  0.96867  0.69334  0.21857  1.0000
  F   F80       1.0  0.94447  0.70634  0.70239  1.0000
  F   F81       1.0  0.13929  0.05514  0.04115  1.0000
  F   F82       1.0  0.14775  0.08130  0.54477  1.0000
  F   F83       1.0  0.14208  0.61486  0.03824  1.0000
  F   F84       1.0  0.15454  0.59908  0.54476  1.0000
  F   F85       1.0  0.39873  0.10092  0.03351  1.0000
  F   F86       1.0  0.39889  0.08983  0.53594  1.0000
  F   F87       1.0  0.39847  0.60236  0.04791  1.0000
  F   F88       1.0  0.39581  0.59944  0.55833  1.0000
  F   F89       1.0  0.65096  0.08611  0.02818  1.0000
  F   F90       1.0  0.65698  0.09749  0.53075  1.0000
  F   F91       1.0  0.64904  0.60393  0.04083  1.0000
  F   F92       1.0  0.64890  0.58766  0.53932  1.0000
  F   F93       1.0  0.89857  0.11102  0.01909  1.0000
  F   F94       1.0  0.89624  0.08324  0.53145  1.0000
  F   F95       1.0  0.89605  0.60314  0.04271  1.0000
  F   F96       1.0  0.90083  0.58858  0.53900  1.0000
  F   F97       1.0  0.14346  0.18418  0.10214  1.0000
  F   F98       1.0  0.15354  0.19558  0.61634  1.0000
  F   F99       1.0  0.16019  0.68901  0.13173  1.0000
  F   F100      1.0  0.15376  0.69891  0.62323  1.0000
  F   F101      1.0  0.40189  0.19517  0.13197  1.0000
  F   F102      1.0  0.39599  0.20036  0.61840  1.0000
  F   F103      1.0  0.40306  0.70837  0.14193  1.0000
  F   F104      1.0  0.39514  0.70010  0.66117  1.0000
  F   F105      1.0  0.65333  0.20835  0.09191  1.0000
  F   F106      1.0  0.64992  0.19866  0.64376  1.0000
  F   F107      1.0  0.64815  0.69348  0.14797  1.0000
  F   F108      1.0  0.64780  0.69081  0.62650  1.0000
  F   F109      1.0  0.90545  0.19901  0.11433  1.0000
  F   F110      1.0  0.89761  0.19827  0.61795  1.0000
  F   F111      1.0  0.90243  0.70641  0.13930  1.0000
  F   F112      1.0  0.89443  0.70943  0.61330  1.0000
  F   F113      1.0  0.10590  0.29167  0.35124  1.0000
  F   F114      1.0  0.10118  0.29668  0.89735  1.0000
  F   F115      1.0  0.09720  0.79450  0.36840  1.0000
  F   F116      1.0  0.09307  0.79630  0.88788  1.0000
  F   F117      1.0  0.34956  0.31108  0.37410  1.0000
  F   F118      1.0  0.35117  0.30827  0.87447  1.0000
  F   F119      1.0  0.34934  0.80694  0.40112  1.0000
  F   F120      1.0  0.34939  0.79388  0.86496  1.0000
  F   F121      1.0  0.59808  0.30881  0.38096  1.0000
  F   F122      1.0  0.59468  0.31623  0.86130  1.0000
  F   F123      1.0  0.59928  0.81713  0.38120  1.0000
  F   F124      1.0  0.59770  0.81333  0.86748  1.0000
  F   F125      1.0  0.84374  0.31051  0.37448  1.0000
  F   F126      1.0  0.84870  0.32069  0.89451  1.0000
  F   F127      1.0  0.84921  0.81375  0.36866  1.0000
  F   F128      1.0  0.85339  0.80412  0.86833  1.0000
  F   F129      1.0  0.05348  0.23727  0.16051  1.0000
  F   F130      1.0  0.06097  0.25485  0.64483  1.0000
  F   F131      1.0  0.07504  0.74874  0.13049  1.0000
  F   F132      1.0  0.06904  0.74942  0.63550  1.0000
  F   F133      1.0  0.31542  0.25523  0.13465  1.0000
  F   F134      1.0  0.31009  0.24535  0.65786  1.0000
  F   F135      1.0  0.31653  0.74626  0.15513  1.0000
  F   F136      1.0  0.32338  0.75402  0.63331  1.0000
  F   F137      1.0  0.56107  0.25443  0.14424  1.0000
  F   F138      1.0  0.56662  0.25604  0.63549  1.0000
  F   F139      1.0  0.56160  0.73517  0.16304  1.0000
  F   F140      1.0  0.56569  0.75475  0.62222  1.0000
  F   F141      1.0  0.81722  0.25180  0.14352  1.0000
  F   F142      1.0  0.81341  0.25198  0.65318  1.0000
  F   F143      1.0  0.81947  0.75358  0.14059  1.0000
  F   F144      1.0  0.81146  0.75835  0.64343  1.0000
  F   F145      1.0  0.12290  0.33430  0.11678  1.0000
  F   F146      1.0  0.12315  0.38311  0.59977  1.0000
  F   F147      1.0  0.11889  0.86627  0.11838  1.0000
  F   F148      1.0  0.12385  0.86912  0.60615  1.0000
  F   F149      1.0  0.37222  0.37141  0.11690  1.0000
  F   F150      1.0  0.36511  0.35932  0.62401  1.0000
  F   F151      1.0  0.37698  0.89033  0.09276  1.0000
  F   F152      1.0  0.37702  0.88911  0.60383  1.0000
  F   F153      1.0  0.62838  0.35902  0.12122  1.0000
  F   F154      1.0  0.62451  0.36917  0.62531  1.0000
  F   F155      1.0  0.62193  0.86433  0.11373  1.0000
  F   F156      1.0  0.62728  0.85864  0.61607  1.0000
  F   F157      1.0  0.87404  0.36903  0.11040  1.0000
  F   F158      1.0  0.87612  0.37916  0.60952  1.0000
  F   F159      1.0  0.87600  0.88777  0.09204  1.0000
  F   F160      1.0  0.87200  0.88134  0.60845  1.0000
  F   F161      1.0  0.18851  0.24347  0.34290  1.0000
  F   F162      1.0  0.19410  0.23760  0.84526  1.0000
  F   F163      1.0  0.17843  0.74364  0.37692  1.0000
  F   F164      1.0  0.18188  0.75137  0.85758  1.0000
  F   F165      1.0  0.43161  0.25142  0.36538  1.0000
  F   F166      1.0  0.43500  0.24072  0.85627  1.0000
  F   F167      1.0  0.43756  0.74338  0.35448  1.0000
  F   F168      1.0  0.43388  0.75210  0.86272  1.0000
  F   F169      1.0  0.69103  0.24551  0.34660  1.0000
  F   F170      1.0  0.67887  0.24874  0.87582  1.0000
  F   F171      1.0  0.67592  0.74821  0.36437  1.0000
  F   F172      1.0  0.68782  0.76015  0.85021  1.0000
  F   F173      1.0  0.92877  0.25537  0.35760  1.0000
  F   F174      1.0  0.94516  0.24873  0.84320  1.0000
  F   F175      1.0  0.92743  0.74363  0.36838  1.0000
  F   F176      1.0  0.93964  0.76168  0.83660  1.0000
  F   F177      1.0  0.12600  0.10744  0.40601  1.0000
  F   F178      1.0  0.12652  0.15087  0.87074  1.0000
  F   F179      1.0  0.12311  0.61931  0.40298  1.0000
  F   F180      1.0  0.12220  0.63808  0.88183  1.0000
  F   F181      1.0  0.37508  0.13863  0.38645  1.0000
  F   F182      1.0  0.37792  0.12937  0.88718  1.0000
  F   F183      1.0  0.38158  0.60286  0.40975  1.0000
  F   F184      1.0  0.37063  0.61157  0.91785  1.0000
  F   F185      1.0  0.62326  0.12289  0.39781  1.0000
  F   F186      1.0  0.62906  0.12664  0.87700  1.0000
  F   F187      1.0  0.62066  0.64471  0.39074  1.0000
  F   F188      1.0  0.62789  0.63518  0.87566  1.0000
  F   F189      1.0  0.87522  0.15556  0.37390  1.0000
  F   F190      1.0  0.87928  0.13356  0.87720  1.0000
  F   F191      1.0  0.87631  0.61757  0.39498  1.0000
  F   F192      1.0  0.87090  0.63407  0.89719  1.0000
  F   F193      1.0  0.01032  0.36952  0.07268  1.0000
  F   F194      1.0  0.00641  0.36437  0.57680  1.0000
  F   F195      1.0  0.00783  0.83997  0.08416  1.0000
  F   F196      1.0  0.01027  0.85265  0.58152  1.0000
  F   F197      1.0  0.25921  0.37893  0.05617  1.0000
  F   F198      1.0  0.25388  0.36795  0.57406  1.0000
  F   F199      1.0  0.26511  0.84965  0.07522  1.0000
  F   F200      1.0  0.25719  0.85439  0.58707  1.0000
  F   F201      1.0  0.50647  0.35747  0.06960  1.0000
  F   F202      1.0  0.50613  0.36134  0.58166  1.0000
  F   F203      1.0  0.51404  0.85531  0.07703  1.0000
  F   F204      1.0  0.50767  0.86946  0.56694  1.0000
  F   F205      1.0  0.75735  0.36730  0.07655  1.0000
  F   F206      1.0  0.76089  0.37569  0.57384  1.0000
  F   F207      1.0  0.75701  0.86498  0.07679  1.0000
  F   F208      1.0  0.75740  0.86312  0.57631  1.0000
  F   F209      1.0  0.07989  0.48222  0.15459  1.0000
  F   F210      1.0  0.05951  0.48897  0.68836  1.0000
  F   F211      1.0  0.06359  0.97066  0.19462  1.0000
  F   F212      1.0  0.06847  0.98335  0.67235  1.0000
  F   F213      1.0  0.32421  0.48183  0.17343  1.0000
  F   F214      1.0  0.31771  0.47497  0.68563  1.0000
  F   F215      1.0  0.30944  0.99087  0.19429  1.0000
  F   F216      1.0  0.31469  0.98431  0.68268  1.0000
  F   F217      1.0  0.57624  0.47691  0.17698  1.0000
  F   F218      1.0  0.56927  0.49214  0.66718  1.0000
  F   F219      1.0  0.56878  0.99077  0.17222  1.0000
  F   F220      1.0  0.56991  0.98884  0.66124  1.0000
  F   F221      1.0  0.82317  0.48445  0.17465  1.0000
  F   F222      1.0  0.82039  0.49367  0.66425  1.0000
  F   F223      1.0  0.82012  0.99132  0.17209  1.0000
  F   F224      1.0  0.82187  0.99124  0.66749  1.0000
  F   F225      1.0  0.24056  0.14125  0.43479  1.0000
  F   F226      1.0  0.23968  0.12838  0.94092  1.0000
  F   F227      1.0  0.24360  0.63544  0.42923  1.0000
  F   F228      1.0  0.23447  0.63231  0.93803  1.0000
  F   F229      1.0  0.49858  0.14696  0.40233  1.0000
  F   F230      1.0  0.50008  0.13540  0.90662  1.0000
  F   F231      1.0  0.49274  0.64069  0.41637  1.0000
  F   F232      1.0  0.49091  0.63333  0.92637  1.0000
  F   F233      1.0  0.74838  0.14191  0.42143  1.0000
  F   F234      1.0  0.73934  0.14968  0.92589  1.0000
  F   F235      1.0  0.74160  0.64143  0.40403  1.0000
  F   F236      1.0  0.74282  0.64986  0.91548  1.0000
  F   F237      1.0  0.99182  0.13418  0.43581  1.0000
  F   F238      1.0  0.98562  0.12836  0.94047  1.0000
  F   F239      1.0  0.99422  0.62604  0.41911  1.0000
  F   F240      1.0  0.98426  0.63594  0.93882  1.0000
  F   F241      1.0  0.18504  0.01167  0.31372  1.0000
  F   F242      1.0  0.17837  0.01631  0.82430  1.0000
  F   F243      1.0  0.18634  0.50790  0.32248  1.0000
  F   F244      1.0  0.17742  0.51848  0.81449  1.0000
  F   F245      1.0  0.43528  0.02958  0.29959  1.0000
  F   F246      1.0  0.43187  0.01327  0.81776  1.0000
  F   F247      1.0  0.43310  0.51771  0.29635  1.0000
  F   F248      1.0  0.43595  0.51397  0.81476  1.0000
  F   F249      1.0  0.68800  0.01578  0.32609  1.0000
  F   F250      1.0  0.68113  0.00436  0.83945  1.0000
  F   F251      1.0  0.67238  0.52076  0.33416  1.0000
  F   F252      1.0  0.68524  0.51800  0.82323  1.0000
  F   F253      1.0  0.92368  0.01879  0.33566  1.0000
  F   F254      1.0  0.92885  0.01066  0.83802  1.0000
  F   F255      1.0  0.93046  0.51178  0.32539  1.0000
  F   F256      1.0  0.93582  0.52180  0.81604  1.0000
  F   F257      1.0  0.00161  0.24401  0.99864  1.0000
  F   F258      1.0  0.00104  0.26034  0.49099  1.0000
  F   F259      1.0  0.99967  0.76086  0.98781  1.0000
  F   F260      1.0  0.99785  0.74208  0.49532  1.0000
  F   F261      1.0  0.25123  0.22333  0.02563  1.0000
  F   F262      1.0  0.25242  0.25873  0.49245  1.0000
  F   F263      1.0  0.24882  0.75444  0.99274  1.0000
  F   F264      1.0  0.24625  0.74253  0.50481  1.0000
  F   F265      1.0  0.50012  0.22987  0.00150  1.0000
  F   F266      1.0  0.49879  0.24466  0.50254  1.0000
  F   F267      1.0  0.49524  0.74000  0.00782  1.0000
  F   F268      1.0  0.49742  0.74954  0.50130  1.0000
  F   F269      1.0  0.75549  0.24930  0.99790  1.0000
  F   F270      1.0  0.74725  0.25706  0.50144  1.0000
  F   F271      1.0  0.75185  0.76411  0.99254  1.0000
  F   F272      1.0  0.74389  0.73119  0.50096  1.0000
  F   F273      1.0  0.13192  0.01160  0.23648  1.0000
  F   F274      1.0  0.12965  0.00972  0.75029  1.0000
  F   F275      1.0  0.12151  0.49153  0.25241  1.0000
  F   F276      1.0  0.12141  0.48983  0.75815  1.0000
  F   F277      1.0  0.38060  0.00000  0.23194  1.0000
  F   F278      1.0  0.36943  0.99636  0.75390  1.0000
  F   F279      1.0  0.36418  0.49817  0.26832  1.0000
  F   F280      1.0  0.37757  0.49926  0.75241  1.0000
  F   F281      1.0  0.62632  0.99116  0.25082  1.0000
  F   F282      1.0  0.63339  0.00631  0.73697  1.0000
  F   F283      1.0  0.62694  0.49216  0.25581  1.0000
  F   F284      1.0  0.63314  0.49739  0.74068  1.0000
  F   F285      1.0  0.88104  0.00890  0.23014  1.0000
  F   F286      1.0  0.88073  0.01179  0.73701  1.0000
  F   F287      1.0  0.87270  0.50546  0.25204  1.0000
  F   F288      1.0  0.87740  0.49902  0.74352  1.0000
  F   F289      1.0  0.04192  0.02969  0.02004  1.0000
  F   F290      1.0  0.04243  0.02438  0.52185  1.0000
  F   F291      1.0  0.03716  0.52812  0.03195  1.0000
  F   F292      1.0  0.04122  0.52418  0.52739  1.0000
  F   F293      1.0  0.30049  0.01659  0.01256  1.0000
  F   F294      1.0  0.29286  0.02602  0.53797  1.0000
  F   F295      1.0  0.28584  0.53521  0.03346  1.0000
  F   F296      1.0  0.29346  0.53153  0.53652  1.0000
  F   F297      1.0  0.54744  0.02775  0.01573  1.0000
  F   F298      1.0  0.53456  0.04004  0.52719  1.0000
  F   F299      1.0  0.55006  0.53316  0.00772  1.0000
  F   F300      1.0  0.53225  0.54166  0.53551  1.0000
  F   F301      1.0  0.78233  0.03067  0.02826  1.0000
  F   F302      1.0  0.79753  0.03325  0.51327  1.0000
  F   F303      1.0  0.78838  0.53881  0.02503  1.0000
  F   F304      1.0  0.79345  0.54544  0.50932  1.0000
  F   F305      1.0  0.23759  0.41473  0.22567  1.0000
  F   F306      1.0  0.23496  0.41682  0.73106  1.0000
  F   F307      1.0  0.23945  0.91050  0.22441  1.0000
  F   F308      1.0  0.23650  0.90071  0.74025  1.0000
  F   F309      1.0  0.49162  0.40823  0.22580  1.0000
  F   F310      1.0  0.48131  0.41690  0.72901  1.0000
  F   F311      1.0  0.48484  0.91745  0.22564  1.0000
  F   F312      1.0  0.48495  0.91217  0.71752  1.0000
  F   F313      1.0  0.73273  0.42613  0.22966  1.0000
  F   F314      1.0  0.74391  0.40511  0.73395  1.0000
  F   F315      1.0  0.73038  0.90168  0.24059  1.0000
  F   F316      1.0  0.73147  0.92231  0.72689  1.0000
  F   F317      1.0  0.98290  0.40237  0.23048  1.0000
  F   F318      1.0  0.98590  0.41400  0.73393  1.0000
  F   F319      1.0  0.98092  0.92028  0.23343  1.0000
  F   F320      1.0  0.98250  0.93040  0.72425  1.0000
  F   F321      1.0  0.20836  0.46606  0.46817  1.0000
  F   F322      1.0  0.19577  0.47722  0.97725  1.0000
  F   F323      1.0  0.22174  0.97296  0.46482  1.0000
  F   F324      1.0  0.20891  0.95455  0.98291  1.0000
  F   F325      1.0  0.45784  0.47539  0.47694  1.0000
  F   F326      1.0  0.45553  0.47230  0.97509  1.0000
  F   F327      1.0  0.45643  0.96996  0.46904  1.0000
  F   F328      1.0  0.46414  0.97658  0.97175  1.0000
  F   F329      1.0  0.70254  0.46053  0.48656  1.0000
  F   F330      1.0  0.70158  0.47670  0.97685  1.0000
  F   F331      1.0  0.71122  0.95770  0.47168  1.0000
  F   F332      1.0  0.71346  0.96430  0.96923  1.0000
  F   F333      1.0  0.95217  0.46093  0.49272  1.0000
  F   F334      1.0  0.96089  0.47029  0.95737  1.0000
  F   F335      1.0  0.96289  0.97563  0.47310  1.0000
  F   F336      1.0  0.96737  0.96192  0.96456  1.0000
  F   F337      1.0  0.01092  0.08065  0.28544  1.0000
  F   F338      1.0  0.01675  0.08334  0.76851  1.0000
  F   F339      1.0  0.01901  0.55478  0.29119  1.0000
  F   F340      1.0  0.00698  0.60801  0.77062  1.0000
  F   F341      1.0  0.26446  0.10380  0.26470  1.0000
  F   F342      1.0  0.26359  0.08423  0.78507  1.0000
  F   F343      1.0  0.26899  0.58827  0.27082  1.0000
  F   F344      1.0  0.26103  0.59255  0.76746  1.0000
  F   F345      1.0  0.51580  0.08745  0.26158  1.0000
  F   F346      1.0  0.51716  0.08486  0.75639  1.0000
  F   F347      1.0  0.51874  0.56460  0.28590  1.0000
  F   F348      1.0  0.52421  0.58651  0.77730  1.0000
  F   F349      1.0  0.76619  0.10812  0.26646  1.0000
  F   F350      1.0  0.76288  0.07828  0.77414  1.0000
  F   F351      1.0  0.76317  0.57463  0.27648  1.0000
  F   F352      1.0  0.76517  0.58474  0.77328  1.0000
  F   F353      1.0  0.09867  0.41390  0.45216  1.0000
  F   F354      1.0  0.10274  0.40311  0.97284  1.0000
  F   F355      1.0  0.10053  0.89145  0.46040  1.0000
  F   F356      1.0  0.10271  0.90800  0.95807  1.0000
  F   F357      1.0  0.34682  0.41395  0.47053  1.0000
  F   F358      1.0  0.35254  0.41618  0.96074  1.0000
  F   F359      1.0  0.35498  0.91874  0.46200  1.0000
  F   F360      1.0  0.35417  0.87992  0.96033  1.0000
  F   F361      1.0  0.59529  0.42181  0.47441  1.0000
  F   F362      1.0  0.60635  0.40499  0.96198  1.0000
  F   F363      1.0  0.60856  0.92079  0.46533  1.0000
  F   F364      1.0  0.59961  0.91056  0.96435  1.0000
  F   F365      1.0  0.85257  0.40181  0.46866  1.0000
  F   F366      1.0  0.85651  0.44345  0.95573  1.0000
  F   F367      1.0  0.84824  0.90526  0.46663  1.0000
  F   F368      1.0  0.84086  0.92330  0.96248  1.0000
  F   F369      1.0  0.03939  0.30262  0.29516  1.0000
  F   F370      1.0  0.05013  0.30155  0.78958  1.0000
  F   F371      1.0  0.03937  0.79719  0.28672  1.0000
  F   F372      1.0  0.03739  0.79355  0.79432  1.0000
  F   F373      1.0  0.29899  0.28175  0.29051  1.0000
  F   F374      1.0  0.29748  0.29194  0.79829  1.0000
  F   F375      1.0  0.30377  0.80445  0.29816  1.0000
  F   F376      1.0  0.30095  0.78928  0.78188  1.0000
  F   F377      1.0  0.54826  0.30061  0.28847  1.0000
  F   F378      1.0  0.54338  0.29946  0.79048  1.0000
  F   F379      1.0  0.54782  0.79870  0.29158  1.0000
  F   F380      1.0  0.54348  0.79889  0.78488  1.0000
  F   F381      1.0  0.79001  0.30014  0.29385  1.0000
  F   F382      1.0  0.80841  0.29547  0.79289  1.0000
  F   F383      1.0  0.79922  0.80455  0.28326  1.0000
  F   F384      1.0  0.79905  0.81028  0.77901  1.0000
