data_image0
_chemical_formula_structural       Hf96F384
_chemical_formula_sum              "Hf96 F384"
_cell_length_a       31.0341
_cell_length_b       15.5183
_cell_length_c       15.5087
_cell_angle_alpha    63.342
_cell_angle_beta     63.342
_cell_angle_gamma    80.1625

_space_group_name_H-M_alt    "P 1"
_space_group_IT_number       1

loop_
  _space_group_symop_operation_xyz
  'x, y, z'

loop_
  _atom_site_type_symbol
  _atom_site_label
  _atom_site_symmetry_multiplicity
  _atom_site_fract_x
  _atom_site_fract_y
  _atom_site_fract_z
  _atom_site_occupancy
  Hf  Hf1       1.0  0.19584  0.11932  0.36408  1.0000
  Hf  Hf2       1.0  0.19508  0.11592  0.86536  1.0000
  Hf  Hf3       1.0  0.19513  0.61540  0.37473  1.0000
  Hf  Hf4       1.0  0.19970  0.61132  0.85657  1.0000
  Hf  Hf5       1.0  0.44426  0.10654  0.38092  1.0000
  Hf  Hf6       1.0  0.44620  0.11583  0.87476  1.0000
  Hf  Hf7       1.0  0.44756  0.61227  0.37380  1.0000
  Hf  Hf8       1.0  0.44428  0.60585  0.88761  1.0000
  Hf  Hf9       1.0  0.69479  0.09738  0.38113  1.0000
  Hf  Hf10      1.0  0.69328  0.10135  0.87711  1.0000
  Hf  Hf11      1.0  0.69641  0.59734  0.38101  1.0000
  Hf  Hf12      1.0  0.69469  0.60258  0.87698  1.0000
  Hf  Hf13      1.0  0.94472  0.11209  0.37363  1.0000
  Hf  Hf14      1.0  0.94735  0.11012  0.86836  1.0000
  Hf  Hf15      1.0  0.95020  0.60616  0.38228  1.0000
  Hf  Hf16      1.0  0.94595  0.60771  0.87158  1.0000
  Hf  Hf17      1.0  0.05247  0.39827  0.12450  1.0000
  Hf  Hf18      1.0  0.04918  0.39403  0.63472  1.0000
  Hf  Hf19      1.0  0.05487  0.89800  0.11815  1.0000
  Hf  Hf20      1.0  0.05028  0.90152  0.61970  1.0000
  Hf  Hf21      1.0  0.30484  0.39515  0.11882  1.0000
  Hf  Hf22      1.0  0.30411  0.39725  0.62336  1.0000
  Hf  Hf23      1.0  0.30251  0.89259  0.12520  1.0000
  Hf  Hf24      1.0  0.30151  0.89092  0.62916  1.0000
  Hf  Hf25      1.0  0.55724  0.38607  0.12606  1.0000
  Hf  Hf26      1.0  0.55432  0.39145  0.62988  1.0000
  Hf  Hf27      1.0  0.55667  0.88278  0.12794  1.0000
  Hf  Hf28      1.0  0.55782  0.88494  0.63022  1.0000
  Hf  Hf29      1.0  0.80308  0.38879  0.12383  1.0000
  Hf  Hf30      1.0  0.80064  0.38935  0.63966  1.0000
  Hf  Hf31      1.0  0.80351  0.89962  0.12173  1.0000
  Hf  Hf32      1.0  0.80897  0.89769  0.61209  1.0000
  Hf  Hf33      1.0  0.05571  0.19359  0.40558  1.0000
  Hf  Hf34      1.0  0.05437  0.18687  0.90840  1.0000
  Hf  Hf35      1.0  0.05669  0.69441  0.41581  1.0000
  Hf  Hf36      1.0  0.05653  0.68766  0.91309  1.0000
  Hf  Hf37      1.0  0.30684  0.18293  0.42036  1.0000
  Hf  Hf38      1.0  0.30153  0.17188  0.93175  1.0000
  Hf  Hf39      1.0  0.30931  0.68975  0.41915  1.0000
  Hf  Hf40      1.0  0.30506  0.68347  0.91778  1.0000
  Hf  Hf41      1.0  0.55404  0.18243  0.41926  1.0000
  Hf  Hf42      1.0  0.55708  0.17073  0.92456  1.0000
  Hf  Hf43      1.0  0.55763  0.67252  0.41701  1.0000
  Hf  Hf44      1.0  0.55184  0.68475  0.92492  1.0000
  Hf  Hf45      1.0  0.80306  0.19026  0.41246  1.0000
  Hf  Hf46      1.0  0.80352  0.17878  0.91841  1.0000
  Hf  Hf47      1.0  0.80800  0.67650  0.41172  1.0000
  Hf  Hf48      1.0  0.80717  0.67279  0.91106  1.0000
  Hf  Hf49      1.0  0.15625  0.39501  0.33555  1.0000
  Hf  Hf50      1.0  0.15536  0.38798  0.84217  1.0000
  Hf  Hf51      1.0  0.15679  0.89264  0.33210  1.0000
  Hf  Hf52      1.0  0.15910  0.89313  0.82437  1.0000
  Hf  Hf53      1.0  0.41439  0.38875  0.33044  1.0000
  Hf  Hf54      1.0  0.40865  0.38978  0.83583  1.0000
  Hf  Hf55      1.0  0.41177  0.88827  0.33064  1.0000
  Hf  Hf56      1.0  0.40939  0.89063  0.82805  1.0000
  Hf  Hf57      1.0  0.65964  0.37501  0.34397  1.0000
  Hf  Hf58      1.0  0.65835  0.37921  0.84455  1.0000
  Hf  Hf59      1.0  0.66103  0.87677  0.33641  1.0000
  Hf  Hf60      1.0  0.66028  0.88370  0.83337  1.0000
  Hf  Hf61      1.0  0.90748  0.38942  0.33411  1.0000
  Hf  Hf62      1.0  0.90760  0.37976  0.83959  1.0000
  Hf  Hf63      1.0  0.91465  0.88395  0.32704  1.0000
  Hf  Hf64      1.0  0.90539  0.88711  0.83648  1.0000
  Hf  Hf65      1.0  0.19561  0.32832  0.07372  1.0000
  Hf  Hf66      1.0  0.19122  0.33038  0.58491  1.0000
  Hf  Hf67      1.0  0.19452  0.82434  0.07482  1.0000
  Hf  Hf68      1.0  0.19373  0.82564  0.57864  1.0000
  Hf  Hf69      1.0  0.44597  0.31738  0.08221  1.0000
  Hf  Hf70      1.0  0.44332  0.31891  0.59046  1.0000
  Hf  Hf71      1.0  0.44472  0.81810  0.08496  1.0000
  Hf  Hf72      1.0  0.44601  0.81205  0.57974  1.0000
  Hf  Hf73      1.0  0.69304  0.30962  0.09109  1.0000
  Hf  Hf74      1.0  0.69439  0.31731  0.58483  1.0000
  Hf  Hf75      1.0  0.69618  0.80870  0.08704  1.0000
  Hf  Hf76      1.0  0.69419  0.80635  0.58573  1.0000
  Hf  Hf77      1.0  0.94779  0.32400  0.07774  1.0000
  Hf  Hf78      1.0  0.93927  0.32375  0.57945  1.0000
  Hf  Hf79      1.0  0.94385  0.82220  0.07666  1.0000
  Hf  Hf80      1.0  0.94298  0.82196  0.58634  1.0000
  Hf  Hf81      1.0  0.08816  0.11557  0.16110  1.0000
  Hf  Hf82      1.0  0.09308  0.12152  0.65175  1.0000
  Hf  Hf83      1.0  0.09052  0.61644  0.16696  1.0000
  Hf  Hf84      1.0  0.09258  0.61839  0.66614  1.0000
  Hf  Hf85      1.0  0.34126  0.11187  0.17103  1.0000
  Hf  Hf86      1.0  0.33934  0.11052  0.66923  1.0000
  Hf  Hf87      1.0  0.33982  0.61010  0.17427  1.0000
  Hf  Hf88      1.0  0.34158  0.61320  0.66868  1.0000
  Hf  Hf89      1.0  0.59290  0.10213  0.17253  1.0000
  Hf  Hf90      1.0  0.58825  0.10555  0.67461  1.0000
  Hf  Hf91      1.0  0.59464  0.60557  0.16314  1.0000
  Hf  Hf92      1.0  0.59413  0.60192  0.66867  1.0000
  Hf  Hf93      1.0  0.84454  0.11916  0.16231  1.0000
  Hf  Hf94      1.0  0.83955  0.10849  0.66883  1.0000
  Hf  Hf95      1.0  0.83886  0.60878  0.16508  1.0000
  Hf  Hf96      1.0  0.83938  0.61128  0.66422  1.0000
  F   F1        1.0  0.08149  0.14812  0.28905  1.0000
  F   F2        1.0  0.07253  0.14171  0.79446  1.0000
  F   F3        1.0  0.07659  0.63515  0.30901  1.0000
  F   F4        1.0  0.08579  0.64020  0.80121  1.0000
  F   F5        1.0  0.32185  0.10508  0.31617  1.0000
  F   F6        1.0  0.32620  0.13685  0.79940  1.0000
  F   F7        1.0  0.32814  0.62885  0.30422  1.0000
  F   F8        1.0  0.33196  0.61094  0.80833  1.0000
  F   F9        1.0  0.57616  0.13324  0.30700  1.0000
  F   F10       1.0  0.57904  0.12202  0.80839  1.0000
  F   F11       1.0  0.57847  0.63708  0.29331  1.0000
  F   F12       1.0  0.57433  0.61942  0.80922  1.0000
  F   F13       1.0  0.83136  0.12654  0.30148  1.0000
  F   F14       1.0  0.82989  0.12693  0.80015  1.0000
  F   F15       1.0  0.83465  0.62189  0.30450  1.0000
  F   F16       1.0  0.82331  0.61153  0.80385  1.0000
  F   F17       1.0  0.18180  0.34461  0.45480  1.0000
  F   F18       1.0  0.19277  0.35522  0.93425  1.0000
  F   F19       1.0  0.18510  0.86528  0.43735  1.0000
  F   F20       1.0  0.18652  0.84721  0.93934  1.0000
  F   F21       1.0  0.43679  0.33242  0.44837  1.0000
  F   F22       1.0  0.44291  0.33484  0.94308  1.0000
  F   F23       1.0  0.44193  0.85195  0.44129  1.0000
  F   F24       1.0  0.42987  0.82957  0.95924  1.0000
  F   F25       1.0  0.68477  0.33709  0.45146  1.0000
  F   F26       1.0  0.69083  0.33925  0.94129  1.0000
  F   F27       1.0  0.69202  0.83882  0.43498  1.0000
  F   F28       1.0  0.68761  0.83741  0.95683  1.0000
  F   F29       1.0  0.93734  0.34652  0.44407  1.0000
  F   F30       1.0  0.93171  0.32822  0.95289  1.0000
  F   F31       1.0  0.93539  0.81997  0.44354  1.0000
  F   F32       1.0  0.93389  0.85313  0.94826  1.0000
  F   F33       1.0  0.16560  0.37396  0.19875  1.0000
  F   F34       1.0  0.17274  0.39060  0.69713  1.0000
  F   F35       1.0  0.16649  0.86313  0.20223  1.0000
  F   F36       1.0  0.16939  0.88604  0.68719  1.0000
  F   F37       1.0  0.42247  0.38437  0.18868  1.0000
  F   F38       1.0  0.42178  0.37611  0.69264  1.0000
  F   F39       1.0  0.42406  0.86729  0.19382  1.0000
  F   F40       1.0  0.42189  0.86822  0.69257  1.0000
  F   F41       1.0  0.67157  0.35781  0.20450  1.0000
  F   F42       1.0  0.67048  0.37603  0.69715  1.0000
  F   F43       1.0  0.66666  0.86438  0.20081  1.0000
  F   F44       1.0  0.66070  0.84850  0.71335  1.0000
  F   F45       1.0  0.92502  0.37748  0.19045  1.0000
  F   F46       1.0  0.91621  0.37629  0.69124  1.0000
  F   F47       1.0  0.92087  0.86367  0.20186  1.0000
  F   F48       1.0  0.91263  0.86660  0.70746  1.0000
  F   F49       1.0  0.06785  0.17359  0.04237  1.0000
  F   F50       1.0  0.06857  0.15735  0.54219  1.0000
  F   F51       1.0  0.06694  0.66745  0.04638  1.0000
  F   F52       1.0  0.05769  0.65498  0.56681  1.0000
  F   F53       1.0  0.31138  0.16230  0.06276  1.0000
  F   F54       1.0  0.31678  0.15425  0.55388  1.0000
  F   F55       1.0  0.31688  0.64896  0.05211  1.0000
  F   F56       1.0  0.30817  0.66956  0.55776  1.0000
  F   F57       1.0  0.56950  0.16259  0.05071  1.0000
  F   F58       1.0  0.56085  0.16214  0.55229  1.0000
  F   F59       1.0  0.55303  0.64518  0.07302  1.0000
  F   F60       1.0  0.57010  0.64200  0.55529  1.0000
  F   F61       1.0  0.81662  0.15313  0.04931  1.0000
  F   F62       1.0  0.81175  0.15802  0.54932  1.0000
  F   F63       1.0  0.81972  0.65539  0.04493  1.0000
  F   F64       1.0  0.80959  0.65952  0.54874  1.0000
  F   F65       1.0  0.19589  0.21385  0.21086  1.0000
  F   F66       1.0  0.19793  0.21792  0.71521  1.0000
  F   F67       1.0  0.20089  0.69657  0.22760  1.0000
  F   F68       1.0  0.20715  0.72411  0.70540  1.0000
  F   F69       1.0  0.44948  0.20271  0.21014  1.0000
  F   F70       1.0  0.45640  0.20123  0.71567  1.0000
  F   F71       1.0  0.45675  0.68931  0.21822  1.0000
  F   F72       1.0  0.45289  0.69778  0.70751  1.0000
  F   F73       1.0  0.69560  0.18137  0.21734  1.0000
  F   F74       1.0  0.70193  0.20219  0.71151  1.0000
  F   F75       1.0  0.70442  0.68266  0.22098  1.0000
  F   F76       1.0  0.69948  0.69597  0.70955  1.0000
  F   F77       1.0  0.95844  0.20289  0.21452  1.0000
  F   F78       1.0  0.94868  0.19683  0.70732  1.0000
  F   F79       1.0  0.95174  0.70734  0.18660  1.0000
  F   F80       1.0  0.95543  0.70015  0.71776  1.0000
  F   F81       1.0  0.15317  0.08570  0.01932  1.0000
  F   F82       1.0  0.14993  0.09149  0.53413  1.0000
  F   F83       1.0  0.15076  0.60172  0.05453  1.0000
  F   F84       1.0  0.14783  0.60471  0.54426  1.0000
  F   F85       1.0  0.39609  0.09354  0.04851  1.0000
  F   F86       1.0  0.39607  0.08248  0.53787  1.0000
  F   F87       1.0  0.39952  0.58096  0.04460  1.0000
  F   F88       1.0  0.39443  0.59755  0.52953  1.0000
  F   F89       1.0  0.65180  0.08463  0.03770  1.0000
  F   F90       1.0  0.64741  0.08744  0.54566  1.0000
  F   F91       1.0  0.64698  0.56327  0.04872  1.0000
  F   F92       1.0  0.65312  0.57339  0.54973  1.0000
  F   F93       1.0  0.90419  0.11304  0.02134  1.0000
  F   F94       1.0  0.89332  0.08281  0.55008  1.0000
  F   F95       1.0  0.89844  0.57377  0.02716  1.0000
  F   F96       1.0  0.90003  0.62694  0.52180  1.0000
  F   F97       1.0  0.14765  0.20213  0.09826  1.0000
  F   F98       1.0  0.14698  0.20550  0.61857  1.0000
  F   F99       1.0  0.14809  0.71358  0.13192  1.0000
  F   F100      1.0  0.15434  0.71243  0.62033  1.0000
  F   F101      1.0  0.39959  0.20100  0.13721  1.0000
  F   F102      1.0  0.40333  0.19544  0.61357  1.0000
  F   F103      1.0  0.40541  0.69364  0.13826  1.0000
  F   F104      1.0  0.40067  0.69800  0.61886  1.0000
  F   F105      1.0  0.65164  0.19072  0.12450  1.0000
  F   F106      1.0  0.64933  0.20701  0.62320  1.0000
  F   F107      1.0  0.65546  0.68279  0.13323  1.0000
  F   F108      1.0  0.65045  0.69601  0.62036  1.0000
  F   F109      1.0  0.90561  0.20310  0.12403  1.0000
  F   F110      1.0  0.89959  0.19908  0.61312  1.0000
  F   F111      1.0  0.90168  0.68686  0.10796  1.0000
  F   F112      1.0  0.90100  0.70099  0.63496  1.0000
  F   F113      1.0  0.10076  0.30533  0.36865  1.0000
  F   F114      1.0  0.09427  0.30795  0.85153  1.0000
  F   F115      1.0  0.09217  0.80960  0.39236  1.0000
  F   F116      1.0  0.09375  0.81319  0.85277  1.0000
  F   F117      1.0  0.34851  0.30429  0.38022  1.0000
  F   F118      1.0  0.34733  0.30784  0.89707  1.0000
  F   F119      1.0  0.35443  0.79380  0.37634  1.0000
  F   F120      1.0  0.34265  0.80405  0.88795  1.0000
  F   F121      1.0  0.59497  0.29001  0.38852  1.0000
  F   F122      1.0  0.59851  0.29761  0.88139  1.0000
  F   F123      1.0  0.60314  0.79111  0.36976  1.0000
  F   F124      1.0  0.59665  0.79134  0.90519  1.0000
  F   F125      1.0  0.84891  0.28733  0.36254  1.0000
  F   F126      1.0  0.85241  0.29326  0.87345  1.0000
  F   F127      1.0  0.85151  0.78415  0.37447  1.0000
  F   F128      1.0  0.84159  0.80724  0.88576  1.0000
  F   F129      1.0  0.06434  0.25706  0.14412  1.0000
  F   F130      1.0  0.05849  0.25763  0.64293  1.0000
  F   F131      1.0  0.06516  0.76333  0.12985  1.0000
  F   F132      1.0  0.07653  0.77002  0.60953  1.0000
  F   F133      1.0  0.31714  0.25370  0.13873  1.0000
  F   F134      1.0  0.31504  0.25377  0.64747  1.0000
  F   F135      1.0  0.31614  0.75699  0.13480  1.0000
  F   F136      1.0  0.31123  0.74761  0.65187  1.0000
  F   F137      1.0  0.56974  0.24890  0.13977  1.0000
  F   F138      1.0  0.55465  0.24175  0.66576  1.0000
  F   F139      1.0  0.57143  0.74522  0.13899  1.0000
  F   F140      1.0  0.56933  0.75068  0.63540  1.0000
  F   F141      1.0  0.81904  0.25294  0.13040  1.0000
  F   F142      1.0  0.82081  0.24693  0.64031  1.0000
  F   F143      1.0  0.81325  0.75429  0.13977  1.0000
  F   F144      1.0  0.81988  0.74983  0.63571  1.0000
  F   F145      1.0  0.12592  0.38219  0.09324  1.0000
  F   F146      1.0  0.12226  0.36537  0.62059  1.0000
  F   F147      1.0  0.12631  0.88933  0.08801  1.0000
  F   F148      1.0  0.12572  0.89626  0.58972  1.0000
  F   F149      1.0  0.37670  0.37023  0.09264  1.0000
  F   F150      1.0  0.37154  0.36880  0.61447  1.0000
  F   F151      1.0  0.37167  0.85867  0.12526  1.0000
  F   F152      1.0  0.37343  0.86043  0.60418  1.0000
  F   F153      1.0  0.62966  0.37980  0.09733  1.0000
  F   F154      1.0  0.62364  0.37606  0.60811  1.0000
  F   F155      1.0  0.62857  0.86123  0.11736  1.0000
  F   F156      1.0  0.62576  0.86757  0.60515  1.0000
  F   F157      1.0  0.87413  0.37785  0.10485  1.0000
  F   F158      1.0  0.87287  0.38728  0.58591  1.0000
  F   F159      1.0  0.87354  0.86602  0.11420  1.0000
  F   F160      1.0  0.87967  0.88526  0.59043  1.0000
  F   F161      1.0  0.18375  0.25086  0.36778  1.0000
  F   F162      1.0  0.17864  0.25088  0.86590  1.0000
  F   F163      1.0  0.18067  0.75190  0.36545  1.0000
  F   F164      1.0  0.18320  0.74434  0.86385  1.0000
  F   F165      1.0  0.43471  0.24610  0.35994  1.0000
  F   F166      1.0  0.43178  0.24948  0.86502  1.0000
  F   F167      1.0  0.43786  0.75386  0.35471  1.0000
  F   F168      1.0  0.42948  0.74447  0.86530  1.0000
  F   F169      1.0  0.69789  0.24449  0.34319  1.0000
  F   F170      1.0  0.68556  0.24893  0.85621  1.0000
  F   F171      1.0  0.68695  0.74395  0.36326  1.0000
  F   F172      1.0  0.68103  0.74111  0.87600  1.0000
  F   F173      1.0  0.92298  0.24487  0.38687  1.0000
  F   F174      1.0  0.94829  0.25413  0.83511  1.0000
  F   F175      1.0  0.95383  0.74859  0.32052  1.0000
  F   F176      1.0  0.92870  0.74776  0.87607  1.0000
  F   F177      1.0  0.12352  0.12611  0.39479  1.0000
  F   F178      1.0  0.12435  0.12815  0.87071  1.0000
  F   F179      1.0  0.12608  0.62744  0.39286  1.0000
  F   F180      1.0  0.12668  0.62025  0.90547  1.0000
  F   F181      1.0  0.37652  0.13004  0.37849  1.0000
  F   F182      1.0  0.37207  0.14008  0.89804  1.0000
  F   F183      1.0  0.37676  0.63585  0.38329  1.0000
  F   F184      1.0  0.37417  0.62628  0.90215  1.0000
  F   F185      1.0  0.62374  0.12653  0.40235  1.0000
  F   F186      1.0  0.62748  0.13307  0.88249  1.0000
  F   F187      1.0  0.62919  0.61735  0.39131  1.0000
  F   F188      1.0  0.62417  0.63157  0.89831  1.0000
  F   F189      1.0  0.87425  0.11894  0.40232  1.0000
  F   F190      1.0  0.87457  0.12155  0.88826  1.0000
  F   F191      1.0  0.88051  0.62561  0.39595  1.0000
  F   F192      1.0  0.87663  0.63001  0.87025  1.0000
  F   F193      1.0  0.01040  0.36233  0.06323  1.0000
  F   F194      1.0  0.00329  0.35998  0.58406  1.0000
  F   F195      1.0  0.00325  0.87434  0.07885  1.0000
  F   F196      1.0  0.00280  0.87983  0.56843  1.0000
  F   F197      1.0  0.26000  0.37055  0.05863  1.0000
  F   F198      1.0  0.25901  0.37247  0.56335  1.0000
  F   F199      1.0  0.25422  0.85597  0.08514  1.0000
  F   F200      1.0  0.25856  0.86941  0.57146  1.0000
  F   F201      1.0  0.51105  0.35219  0.07522  1.0000
  F   F202      1.0  0.51119  0.36093  0.57869  1.0000
  F   F203      1.0  0.51159  0.86135  0.07567  1.0000
  F   F204      1.0  0.50708  0.85893  0.57429  1.0000
  F   F205      1.0  0.75479  0.34628  0.08994  1.0000
  F   F206      1.0  0.75556  0.35739  0.60105  1.0000
  F   F207      1.0  0.75730  0.86259  0.06822  1.0000
  F   F208      1.0  0.75698  0.84526  0.58742  1.0000
  F   F209      1.0  0.07129  0.48246  0.17018  1.0000
  F   F210      1.0  0.07274  0.48603  0.67975  1.0000
  F   F211      1.0  0.07362  0.98679  0.17195  1.0000
  F   F212      1.0  0.06690  0.98761  0.66846  1.0000
  F   F213      1.0  0.32130  0.48037  0.16892  1.0000
  F   F214      1.0  0.31684  0.48854  0.67222  1.0000
  F   F215      1.0  0.31877  0.98780  0.16728  1.0000
  F   F216      1.0  0.32156  0.98320  0.66398  1.0000
  F   F217      1.0  0.56780  0.47778  0.18494  1.0000
  F   F218      1.0  0.56232  0.48289  0.69315  1.0000
  F   F219      1.0  0.57037  0.98073  0.17100  1.0000
  F   F220      1.0  0.57073  0.97649  0.67568  1.0000
  F   F221      1.0  0.81350  0.48256  0.17979  1.0000
  F   F222      1.0  0.81646  0.48474  0.68905  1.0000
  F   F223      1.0  0.82025  0.98045  0.18218  1.0000
  F   F224      1.0  0.81771  0.97572  0.67371  1.0000
  F   F225      1.0  0.24222  0.15014  0.41560  1.0000
  F   F226      1.0  0.23873  0.13804  0.92860  1.0000
  F   F227      1.0  0.24375  0.64892  0.42866  1.0000
  F   F228      1.0  0.24610  0.64728  0.90981  1.0000
  F   F229      1.0  0.49178  0.13430  0.44253  1.0000
  F   F230      1.0  0.49238  0.13637  0.92074  1.0000
  F   F231      1.0  0.49414  0.63567  0.42601  1.0000
  F   F232      1.0  0.48540  0.64252  0.95806  1.0000
  F   F233      1.0  0.74079  0.11991  0.44182  1.0000
  F   F234      1.0  0.73977  0.15011  0.92250  1.0000
  F   F235      1.0  0.74269  0.62048  0.43945  1.0000
  F   F236      1.0  0.74379  0.63920  0.92030  1.0000
  F   F237      1.0  0.99483  0.14891  0.40411  1.0000
  F   F238      1.0  0.99460  0.14017  0.92571  1.0000
  F   F239      1.0  0.98975  0.64131  0.44625  1.0000
  F   F240      1.0  0.99020  0.62569  0.93020  1.0000
  F   F241      1.0  0.17965  0.03162  0.29912  1.0000
  F   F242      1.0  0.18711  0.01754  0.82216  1.0000
  F   F243      1.0  0.18071  0.51256  0.32869  1.0000
  F   F244      1.0  0.18192  0.51411  0.81818  1.0000
  F   F245      1.0  0.43523  0.01893  0.32242  1.0000
  F   F246      1.0  0.42762  0.02098  0.82485  1.0000
  F   F247      1.0  0.43589  0.50481  0.33526  1.0000
  F   F248      1.0  0.42904  0.51348  0.83119  1.0000
  F   F249      1.0  0.67743  0.00997  0.33331  1.0000
  F   F250      1.0  0.67889  0.01428  0.82521  1.0000
  F   F251      1.0  0.68246  0.49806  0.33149  1.0000
  F   F252      1.0  0.67382  0.51634  0.83419  1.0000
  F   F253      1.0  0.92979  0.00955  0.31938  1.0000
  F   F254      1.0  0.92927  0.00939  0.82428  1.0000
  F   F255      1.0  0.92451  0.51689  0.32928  1.0000
  F   F256      1.0  0.92829  0.50706  0.82855  1.0000
  F   F257      1.0  0.99712  0.24843  0.99837  1.0000
  F   F258      1.0  0.99825  0.25265  0.49038  1.0000
  F   F259      1.0  0.00181  0.76589  0.98442  1.0000
  F   F260      1.0  0.99948  0.75173  0.50706  1.0000
  F   F261      1.0  0.24438  0.23980  0.01020  1.0000
  F   F262      1.0  0.24929  0.25517  0.50044  1.0000
  F   F263      1.0  0.24856  0.74028  0.00995  1.0000
  F   F264      1.0  0.25632  0.77034  0.48474  1.0000
  F   F265      1.0  0.50290  0.23643  0.00793  1.0000
  F   F266      1.0  0.49728  0.26172  0.49428  1.0000
  F   F267      1.0  0.50337  0.77839  0.98668  1.0000
  F   F268      1.0  0.49919  0.73133  0.49996  1.0000
  F   F269      1.0  0.75266  0.25826  0.99762  1.0000
  F   F270      1.0  0.75235  0.26373  0.49033  1.0000
  F   F271      1.0  0.75413  0.73437  0.01026  1.0000
  F   F272      1.0  0.74398  0.72822  0.51134  1.0000
  F   F273      1.0  0.12094  0.00317  0.24522  1.0000
  F   F274      1.0  0.12809  0.00748  0.74757  1.0000
  F   F275      1.0  0.11760  0.50679  0.25855  1.0000
  F   F276      1.0  0.11690  0.50480  0.76836  1.0000
  F   F277      1.0  0.37490  0.98901  0.24845  1.0000
  F   F278      1.0  0.37865  0.00200  0.74063  1.0000
  F   F279      1.0  0.37793  0.50913  0.24496  1.0000
  F   F280      1.0  0.37974  0.50112  0.73198  1.0000
  F   F281      1.0  0.62879  0.99534  0.25246  1.0000
  F   F282      1.0  0.62210  0.99837  0.75305  1.0000
  F   F283      1.0  0.62553  0.49556  0.26306  1.0000
  F   F284      1.0  0.62312  0.49182  0.75940  1.0000
  F   F285      1.0  0.87516  0.00013  0.25057  1.0000
  F   F286      1.0  0.86453  0.98818  0.76712  1.0000
  F   F287      1.0  0.87288  0.49279  0.24108  1.0000
  F   F288      1.0  0.88178  0.51076  0.72700  1.0000
  F   F289      1.0  0.04353  0.03080  0.02228  1.0000
  F   F290      1.0  0.03787  0.04337  0.51706  1.0000
  F   F291      1.0  0.03853  0.53624  0.02709  1.0000
  F   F292      1.0  0.04764  0.53171  0.53474  1.0000
  F   F293      1.0  0.28765  0.04028  0.03264  1.0000
  F   F294      1.0  0.29215  0.02539  0.52625  1.0000
  F   F295      1.0  0.29025  0.53628  0.01856  1.0000
  F   F296      1.0  0.29945  0.53445  0.50347  1.0000
  F   F297      1.0  0.54696  0.02300  0.01996  1.0000
  F   F298      1.0  0.54606  0.02354  0.52278  1.0000
  F   F299      1.0  0.54389  0.51664  0.02493  1.0000
  F   F300      1.0  0.54835  0.53019  0.51927  1.0000
  F   F301      1.0  0.79071  0.02810  0.01777  1.0000
  F   F302      1.0  0.79571  0.03116  0.50868  1.0000
  F   F303      1.0  0.79365  0.53198  0.02277  1.0000
  F   F304      1.0  0.81230  0.51851  0.52120  1.0000
  F   F305      1.0  0.23783  0.40865  0.22717  1.0000
  F   F306      1.0  0.23900  0.42004  0.72682  1.0000
  F   F307      1.0  0.23294  0.90977  0.23332  1.0000
  F   F308      1.0  0.23566  0.91340  0.73252  1.0000
  F   F309      1.0  0.48784  0.39871  0.22844  1.0000
  F   F310      1.0  0.48297  0.40194  0.73741  1.0000
  F   F311      1.0  0.48481  0.92081  0.22653  1.0000
  F   F312      1.0  0.48438  0.90175  0.74538  1.0000
  F   F313      1.0  0.73436  0.41004  0.22367  1.0000
  F   F314      1.0  0.73594  0.43120  0.73708  1.0000
  F   F315      1.0  0.73570  0.93145  0.22571  1.0000
  F   F316      1.0  0.73075  0.90904  0.72211  1.0000
  F   F317      1.0  0.98757  0.41662  0.22558  1.0000
  F   F318      1.0  0.98450  0.42727  0.72642  1.0000
  F   F319      1.0  0.98767  0.90789  0.24049  1.0000
  F   F320      1.0  0.98113  0.90935  0.73119  1.0000
  F   F321      1.0  0.20527  0.47763  0.47987  1.0000
  F   F322      1.0  0.20009  0.47876  0.97774  1.0000
  F   F323      1.0  0.20874  0.97787  0.47401  1.0000
  F   F324      1.0  0.21114  0.96362  0.97907  1.0000
  F   F325      1.0  0.45805  0.46784  0.48204  1.0000
  F   F326      1.0  0.46296  0.47095  0.97768  1.0000
  F   F327      1.0  0.46134  0.97540  0.46793  1.0000
  F   F328      1.0  0.45934  0.97271  0.97482  1.0000
  F   F329      1.0  0.71513  0.45895  0.47106  1.0000
  F   F330      1.0  0.71126  0.46341  0.97475  1.0000
  F   F331      1.0  0.70518  0.95264  0.49003  1.0000
  F   F332      1.0  0.71054  0.97170  0.97170  1.0000
  F   F333      1.0  0.96135  0.46775  0.46790  1.0000
  F   F334      1.0  0.96048  0.45536  0.96998  1.0000
  F   F335      1.0  0.95160  0.96834  0.47129  1.0000
  F   F336      1.0  0.95738  0.97451  0.98197  1.0000
  F   F337      1.0  0.01698  0.08152  0.27470  1.0000
  F   F338      1.0  0.01028  0.08112  0.76530  1.0000
  F   F339      1.0  0.01613  0.59164  0.26693  1.0000
  F   F340      1.0  0.02030  0.59522  0.76921  1.0000
  F   F341      1.0  0.26046  0.08112  0.26846  1.0000
  F   F342      1.0  0.26774  0.09109  0.76940  1.0000
  F   F343      1.0  0.26300  0.58727  0.27662  1.0000
  F   F344      1.0  0.26362  0.58558  0.76892  1.0000
  F   F345      1.0  0.51296  0.09535  0.26411  1.0000
  F   F346      1.0  0.51644  0.07597  0.77326  1.0000
  F   F347      1.0  0.51712  0.58218  0.28081  1.0000
  F   F348      1.0  0.51328  0.60392  0.77865  1.0000
  F   F349      1.0  0.76492  0.08700  0.26862  1.0000
  F   F350      1.0  0.76356  0.08846  0.77701  1.0000
  F   F351      1.0  0.76689  0.58429  0.27783  1.0000
  F   F352      1.0  0.76012  0.59088  0.76509  1.0000
  F   F353      1.0  0.09900  0.40585  0.46792  1.0000
  F   F354      1.0  0.09760  0.40318  0.96248  1.0000
  F   F355      1.0  0.10236  0.92253  0.44320  1.0000
  F   F356      1.0  0.09994  0.89758  0.95001  1.0000
  F   F357      1.0  0.35503  0.40079  0.45912  1.0000
  F   F358      1.0  0.34799  0.41952  0.96358  1.0000
  F   F359      1.0  0.35554  0.90766  0.45491  1.0000
  F   F360      1.0  0.34389  0.91753  0.96436  1.0000
  F   F361      1.0  0.60135  0.38751  0.47444  1.0000
  F   F362      1.0  0.60590  0.38105  0.97183  1.0000
  F   F363      1.0  0.60082  0.89682  0.46065  1.0000
  F   F364      1.0  0.60039  0.90211  0.97863  1.0000
  F   F365      1.0  0.84272  0.39615  0.44454  1.0000
  F   F366      1.0  0.84850  0.40575  0.96453  1.0000
  F   F367      1.0  0.85212  0.89304  0.45803  1.0000
  F   F368      1.0  0.85220  0.90907  0.96778  1.0000
  F   F369      1.0  0.04636  0.31760  0.28749  1.0000
  F   F370      1.0  0.04026  0.30473  0.79362  1.0000
  F   F371      1.0  0.05627  0.79829  0.27806  1.0000
  F   F372      1.0  0.04269  0.79792  0.77146  1.0000
  F   F373      1.0  0.30598  0.28878  0.27684  1.0000
  F   F374      1.0  0.30057  0.29899  0.79733  1.0000
  F   F375      1.0  0.29539  0.80297  0.28708  1.0000
  F   F376      1.0  0.30376  0.80690  0.78171  1.0000
  F   F377      1.0  0.55034  0.30599  0.28357  1.0000
  F   F378      1.0  0.55471  0.29958  0.78392  1.0000
  F   F379      1.0  0.55038  0.78882  0.28881  1.0000
  F   F380      1.0  0.55104  0.79828  0.79160  1.0000
  F   F381      1.0  0.79200  0.29150  0.28647  1.0000
  F   F382      1.0  0.80416  0.30214  0.78536  1.0000
  F   F383      1.0  0.79366  0.80328  0.29187  1.0000
  F   F384      1.0  0.80383  0.78649  0.77737  1.0000
