data_image0
_chemical_formula_structural       Hf96F384
_chemical_formula_sum              "Hf96 F384"
_cell_length_a       31.0543
_cell_length_b       15.5316
_cell_length_c       15.5211
_cell_angle_alpha    63.342
_cell_angle_beta     63.342
_cell_angle_gamma    80.1625

_space_group_name_H-M_alt    "P 1"
_space_group_IT_number       1

loop_
  _space_group_symop_operation_xyz
  'x, y, z'

loop_
  _atom_site_type_symbol
  _atom_site_label
  _atom_site_symmetry_multiplicity
  _atom_site_fract_x
  _atom_site_fract_y
  _atom_site_fract_z
  _atom_site_occupancy
  Hf  Hf1       1.0  0.19184  0.10530  0.38139  1.0000
  Hf  Hf2       1.0  0.19931  0.11300  0.86752  1.0000
  Hf  Hf3       1.0  0.20499  0.61115  0.35053  1.0000
  Hf  Hf4       1.0  0.19435  0.60374  0.87642  1.0000
  Hf  Hf5       1.0  0.44380  0.10522  0.37535  1.0000
  Hf  Hf6       1.0  0.44865  0.11165  0.86926  1.0000
  Hf  Hf7       1.0  0.44967  0.61049  0.35615  1.0000
  Hf  Hf8       1.0  0.44648  0.60615  0.86522  1.0000
  Hf  Hf9       1.0  0.69630  0.10840  0.37091  1.0000
  Hf  Hf10      1.0  0.69466  0.11340  0.86866  1.0000
  Hf  Hf11      1.0  0.69622  0.60855  0.36636  1.0000
  Hf  Hf12      1.0  0.69610  0.61209  0.86866  1.0000
  Hf  Hf13      1.0  0.94665  0.10519  0.38247  1.0000
  Hf  Hf14      1.0  0.94226  0.10365  0.87885  1.0000
  Hf  Hf15      1.0  0.94215  0.60248  0.38192  1.0000
  Hf  Hf16      1.0  0.94681  0.59772  0.88059  1.0000
  Hf  Hf17      1.0  0.04996  0.38969  0.13313  1.0000
  Hf  Hf18      1.0  0.05451  0.38768  0.63451  1.0000
  Hf  Hf19      1.0  0.05359  0.88613  0.14527  1.0000
  Hf  Hf20      1.0  0.05523  0.89050  0.63102  1.0000
  Hf  Hf21      1.0  0.31121  0.38953  0.11108  1.0000
  Hf  Hf22      1.0  0.30276  0.38829  0.62764  1.0000
  Hf  Hf23      1.0  0.30283  0.88949  0.12138  1.0000
  Hf  Hf24      1.0  0.30364  0.88645  0.63408  1.0000
  Hf  Hf25      1.0  0.55653  0.39695  0.11944  1.0000
  Hf  Hf26      1.0  0.55414  0.39446  0.62029  1.0000
  Hf  Hf27      1.0  0.55465  0.89301  0.12451  1.0000
  Hf  Hf28      1.0  0.55523  0.89414  0.63226  1.0000
  Hf  Hf29      1.0  0.80645  0.39619  0.11653  1.0000
  Hf  Hf30      1.0  0.80322  0.39344  0.62634  1.0000
  Hf  Hf31      1.0  0.80408  0.89319  0.13308  1.0000
  Hf  Hf32      1.0  0.80259  0.89836  0.61826  1.0000
  Hf  Hf33      1.0  0.05253  0.17887  0.42293  1.0000
  Hf  Hf34      1.0  0.05514  0.18505  0.92607  1.0000
  Hf  Hf35      1.0  0.05608  0.67215  0.42634  1.0000
  Hf  Hf36      1.0  0.05413  0.68469  0.91876  1.0000
  Hf  Hf37      1.0  0.30538  0.17538  0.41442  1.0000
  Hf  Hf38      1.0  0.30566  0.18205  0.91727  1.0000
  Hf  Hf39      1.0  0.30707  0.67714  0.41604  1.0000
  Hf  Hf40      1.0  0.30687  0.67575  0.91611  1.0000
  Hf  Hf41      1.0  0.55417  0.18414  0.41441  1.0000
  Hf  Hf42      1.0  0.55403  0.18880  0.91968  1.0000
  Hf  Hf43      1.0  0.55507  0.67343  0.41505  1.0000
  Hf  Hf44      1.0  0.55837  0.68665  0.91711  1.0000
  Hf  Hf45      1.0  0.80318  0.19061  0.41986  1.0000
  Hf  Hf46      1.0  0.80159  0.17963  0.92662  1.0000
  Hf  Hf47      1.0  0.80413  0.68261  0.41885  1.0000
  Hf  Hf48      1.0  0.80836  0.68552  0.91526  1.0000
  Hf  Hf49      1.0  0.16053  0.38407  0.33542  1.0000
  Hf  Hf50      1.0  0.15511  0.38507  0.84376  1.0000
  Hf  Hf51      1.0  0.16199  0.88659  0.32486  1.0000
  Hf  Hf52      1.0  0.16321  0.89052  0.82501  1.0000
  Hf  Hf53      1.0  0.41025  0.38366  0.33566  1.0000
  Hf  Hf54      1.0  0.40865  0.38826  0.83135  1.0000
  Hf  Hf55      1.0  0.41044  0.88798  0.32627  1.0000
  Hf  Hf56      1.0  0.40937  0.89149  0.83446  1.0000
  Hf  Hf57      1.0  0.65740  0.38722  0.33122  1.0000
  Hf  Hf58      1.0  0.65804  0.39151  0.83098  1.0000
  Hf  Hf59      1.0  0.65099  0.88345  0.34306  1.0000
  Hf  Hf60      1.0  0.66293  0.88519  0.83040  1.0000
  Hf  Hf61      1.0  0.90872  0.38658  0.33543  1.0000
  Hf  Hf62      1.0  0.90971  0.38813  0.82785  1.0000
  Hf  Hf63      1.0  0.90611  0.88495  0.33956  1.0000
  Hf  Hf64      1.0  0.90392  0.88715  0.83997  1.0000
  Hf  Hf65      1.0  0.19573  0.32647  0.07969  1.0000
  Hf  Hf66      1.0  0.19287  0.31076  0.58657  1.0000
  Hf  Hf67      1.0  0.19641  0.82513  0.07243  1.0000
  Hf  Hf68      1.0  0.19697  0.81947  0.57718  1.0000
  Hf  Hf69      1.0  0.44715  0.31183  0.08716  1.0000
  Hf  Hf70      1.0  0.44009  0.31686  0.59436  1.0000
  Hf  Hf71      1.0  0.44201  0.82612  0.08075  1.0000
  Hf  Hf72      1.0  0.44496  0.81918  0.57976  1.0000
  Hf  Hf73      1.0  0.69295  0.32086  0.08292  1.0000
  Hf  Hf74      1.0  0.69810  0.32594  0.57384  1.0000
  Hf  Hf75      1.0  0.69431  0.82055  0.07865  1.0000
  Hf  Hf76      1.0  0.69345  0.81799  0.58569  1.0000
  Hf  Hf77      1.0  0.94115  0.31924  0.08794  1.0000
  Hf  Hf78      1.0  0.93989  0.32310  0.58468  1.0000
  Hf  Hf79      1.0  0.94311  0.81621  0.09120  1.0000
  Hf  Hf80      1.0  0.94187  0.81053  0.59177  1.0000
  Hf  Hf81      1.0  0.09570  0.11391  0.16657  1.0000
  Hf  Hf82      1.0  0.08683  0.11031  0.67658  1.0000
  Hf  Hf83      1.0  0.09368  0.61020  0.17021  1.0000
  Hf  Hf84      1.0  0.09136  0.61777  0.66802  1.0000
  Hf  Hf85      1.0  0.34193  0.10527  0.16333  1.0000
  Hf  Hf86      1.0  0.34574  0.10727  0.66341  1.0000
  Hf  Hf87      1.0  0.34671  0.60760  0.15717  1.0000
  Hf  Hf88      1.0  0.34112  0.60376  0.66174  1.0000
  Hf  Hf89      1.0  0.59242  0.11222  0.15913  1.0000
  Hf  Hf90      1.0  0.59215  0.12189  0.65970  1.0000
  Hf  Hf91      1.0  0.59487  0.62179  0.15313  1.0000
  Hf  Hf92      1.0  0.58959  0.61316  0.66521  1.0000
  Hf  Hf93      1.0  0.84000  0.11266  0.16890  1.0000
  Hf  Hf94      1.0  0.83791  0.11832  0.66829  1.0000
  Hf  Hf95      1.0  0.84680  0.61304  0.15967  1.0000
  Hf  Hf96      1.0  0.83806  0.61478  0.67103  1.0000
  F   F1        1.0  0.07788  0.11649  0.30779  1.0000
  F   F2        1.0  0.07485  0.11825  0.81931  1.0000
  F   F3        1.0  0.08499  0.63555  0.30425  1.0000
  F   F4        1.0  0.07696  0.64136  0.80642  1.0000
  F   F5        1.0  0.32582  0.11495  0.30392  1.0000
  F   F6        1.0  0.32768  0.13754  0.80067  1.0000
  F   F7        1.0  0.33044  0.62913  0.30201  1.0000
  F   F8        1.0  0.33336  0.62573  0.80654  1.0000
  F   F9        1.0  0.58737  0.14146  0.29722  1.0000
  F   F10       1.0  0.57594  0.13716  0.79425  1.0000
  F   F11       1.0  0.58195  0.62750  0.29127  1.0000
  F   F12       1.0  0.58715  0.65219  0.79413  1.0000
  F   F13       1.0  0.82585  0.13630  0.31014  1.0000
  F   F14       1.0  0.82476  0.13562  0.80749  1.0000
  F   F15       1.0  0.83620  0.65076  0.29134  1.0000
  F   F16       1.0  0.82798  0.62333  0.80635  1.0000
  F   F17       1.0  0.18353  0.32568  0.45557  1.0000
  F   F18       1.0  0.18299  0.34033  0.96082  1.0000
  F   F19       1.0  0.18844  0.83586  0.43754  1.0000
  F   F20       1.0  0.19736  0.85824  0.92042  1.0000
  F   F21       1.0  0.42840  0.34032  0.46238  1.0000
  F   F22       1.0  0.42857  0.32981  0.95005  1.0000
  F   F23       1.0  0.44220  0.83736  0.44014  1.0000
  F   F24       1.0  0.44023  0.85052  0.93490  1.0000
  F   F25       1.0  0.68769  0.34582  0.44465  1.0000
  F   F26       1.0  0.67713  0.33356  0.95509  1.0000
  F   F27       1.0  0.67509  0.83077  0.46667  1.0000
  F   F28       1.0  0.68248  0.85236  0.95518  1.0000
  F   F29       1.0  0.92627  0.33505  0.46049  1.0000
  F   F30       1.0  0.93347  0.34507  0.94673  1.0000
  F   F31       1.0  0.92705  0.82238  0.45535  1.0000
  F   F32       1.0  0.92982  0.84470  0.94964  1.0000
  F   F33       1.0  0.17295  0.39189  0.18708  1.0000
  F   F34       1.0  0.16724  0.37558  0.70252  1.0000
  F   F35       1.0  0.17744  0.87368  0.18208  1.0000
  F   F36       1.0  0.17143  0.87155  0.69320  1.0000
  F   F37       1.0  0.42621  0.37888  0.18905  1.0000
  F   F38       1.0  0.41641  0.37191  0.69393  1.0000
  F   F39       1.0  0.42485  0.89872  0.18005  1.0000
  F   F40       1.0  0.42313  0.88285  0.68223  1.0000
  F   F41       1.0  0.67844  0.38770  0.18568  1.0000
  F   F42       1.0  0.67161  0.37940  0.68830  1.0000
  F   F43       1.0  0.66643  0.85515  0.20623  1.0000
  F   F44       1.0  0.67452  0.87729  0.68673  1.0000
  F   F45       1.0  0.91401  0.35990  0.20536  1.0000
  F   F46       1.0  0.92176  0.37911  0.69141  1.0000
  F   F47       1.0  0.92065  0.88765  0.19231  1.0000
  F   F48       1.0  0.91438  0.86074  0.71070  1.0000
  F   F49       1.0  0.06134  0.14835  0.07158  1.0000
  F   F50       1.0  0.05841  0.15599  0.55765  1.0000
  F   F51       1.0  0.06030  0.66087  0.06240  1.0000
  F   F52       1.0  0.05890  0.65919  0.56151  1.0000
  F   F53       1.0  0.31460  0.15950  0.04896  1.0000
  F   F54       1.0  0.32066  0.15375  0.54910  1.0000
  F   F55       1.0  0.32375  0.67482  0.03508  1.0000
  F   F56       1.0  0.31253  0.65684  0.55229  1.0000
  F   F57       1.0  0.55767  0.16125  0.05534  1.0000
  F   F58       1.0  0.56120  0.15872  0.55381  1.0000
  F   F59       1.0  0.56694  0.65691  0.05306  1.0000
  F   F60       1.0  0.55738  0.64406  0.56569  1.0000
  F   F61       1.0  0.81473  0.16440  0.05384  1.0000
  F   F62       1.0  0.81035  0.16384  0.55227  1.0000
  F   F63       1.0  0.82034  0.65758  0.04891  1.0000
  F   F64       1.0  0.81257  0.66833  0.55782  1.0000
  F   F65       1.0  0.19515  0.21128  0.21093  1.0000
  F   F66       1.0  0.20165  0.21312  0.71916  1.0000
  F   F67       1.0  0.20540  0.69884  0.20606  1.0000
  F   F68       1.0  0.20216  0.70656  0.71013  1.0000
  F   F69       1.0  0.45914  0.20997  0.20291  1.0000
  F   F70       1.0  0.45356  0.20826  0.71116  1.0000
  F   F71       1.0  0.44692  0.71125  0.20514  1.0000
  F   F72       1.0  0.45547  0.71045  0.70790  1.0000
  F   F73       1.0  0.69762  0.21042  0.21639  1.0000
  F   F74       1.0  0.70667  0.20345  0.70740  1.0000
  F   F75       1.0  0.69567  0.70325  0.21678  1.0000
  F   F76       1.0  0.69832  0.70191  0.72506  1.0000
  F   F77       1.0  0.94825  0.19688  0.20025  1.0000
  F   F78       1.0  0.94452  0.21078  0.71214  1.0000
  F   F79       1.0  0.94135  0.70192  0.22251  1.0000
  F   F80       1.0  0.96236  0.70625  0.71371  1.0000
  F   F81       1.0  0.14287  0.09000  0.03600  1.0000
  F   F82       1.0  0.14219  0.10007  0.54393  1.0000
  F   F83       1.0  0.14882  0.59770  0.04439  1.0000
  F   F84       1.0  0.15036  0.60276  0.55474  1.0000
  F   F85       1.0  0.39276  0.08889  0.03878  1.0000
  F   F86       1.0  0.39989  0.08103  0.53902  1.0000
  F   F87       1.0  0.40548  0.58545  0.04986  1.0000
  F   F88       1.0  0.39717  0.59288  0.53511  1.0000
  F   F89       1.0  0.64096  0.08166  0.03866  1.0000
  F   F90       1.0  0.65040  0.08640  0.54961  1.0000
  F   F91       1.0  0.65152  0.59356  0.02783  1.0000
  F   F92       1.0  0.64683  0.59224  0.54911  1.0000
  F   F93       1.0  0.89752  0.09063  0.03920  1.0000
  F   F94       1.0  0.90178  0.09485  0.53965  1.0000
  F   F95       1.0  0.90045  0.59045  0.04053  1.0000
  F   F96       1.0  0.90140  0.59903  0.53669  1.0000
  F   F97       1.0  0.15485  0.19391  0.11574  1.0000
  F   F98       1.0  0.14278  0.20308  0.63809  1.0000
  F   F99       1.0  0.15439  0.71589  0.10659  1.0000
  F   F100      1.0  0.14792  0.70923  0.63720  1.0000
  F   F101      1.0  0.40267  0.18496  0.13868  1.0000
  F   F102      1.0  0.40508  0.17716  0.64231  1.0000
  F   F103      1.0  0.39957  0.71055  0.12227  1.0000
  F   F104      1.0  0.40682  0.68134  0.62702  1.0000
  F   F105      1.0  0.65530  0.18380  0.12011  1.0000
  F   F106      1.0  0.65331  0.20039  0.61707  1.0000
  F   F107      1.0  0.65523  0.69607  0.12259  1.0000
  F   F108      1.0  0.65078  0.69079  0.63216  1.0000
  F   F109      1.0  0.89685  0.19552  0.12511  1.0000
  F   F110      1.0  0.89912  0.20521  0.61920  1.0000
  F   F111      1.0  0.90635  0.70029  0.10302  1.0000
  F   F112      1.0  0.89560  0.69891  0.64244  1.0000
  F   F113      1.0  0.09457  0.29891  0.36877  1.0000
  F   F114      1.0  0.09885  0.30846  0.88482  1.0000
  F   F115      1.0  0.09854  0.79759  0.36273  1.0000
  F   F116      1.0  0.09589  0.79914  0.88306  1.0000
  F   F117      1.0  0.34988  0.29714  0.37157  1.0000
  F   F118      1.0  0.34905  0.31326  0.87489  1.0000
  F   F119      1.0  0.35814  0.79943  0.35442  1.0000
  F   F120      1.0  0.34900  0.79969  0.86396  1.0000
  F   F121      1.0  0.60078  0.30861  0.36335  1.0000
  F   F122      1.0  0.59445  0.31128  0.88431  1.0000
  F   F123      1.0  0.58824  0.79064  0.38893  1.0000
  F   F124      1.0  0.60877  0.79422  0.86279  1.0000
  F   F125      1.0  0.84790  0.30735  0.38138  1.0000
  F   F126      1.0  0.85304  0.29696  0.86812  1.0000
  F   F127      1.0  0.85277  0.79324  0.37405  1.0000
  F   F128      1.0  0.84814  0.80207  0.88600  1.0000
  F   F129      1.0  0.06150  0.25595  0.14901  1.0000
  F   F130      1.0  0.06563  0.24376  0.64718  1.0000
  F   F131      1.0  0.06848  0.74049  0.16051  1.0000
  F   F132      1.0  0.06199  0.75521  0.64064  1.0000
  F   F133      1.0  0.32090  0.25023  0.13296  1.0000
  F   F134      1.0  0.32136  0.25075  0.64085  1.0000
  F   F135      1.0  0.31296  0.74688  0.14794  1.0000
  F   F136      1.0  0.31492  0.74892  0.64112  1.0000
  F   F137      1.0  0.57312  0.24288  0.12631  1.0000
  F   F138      1.0  0.55668  0.25484  0.63951  1.0000
  F   F139      1.0  0.56442  0.75156  0.13984  1.0000
  F   F140      1.0  0.56294  0.74085  0.64915  1.0000
  F   F141      1.0  0.81286  0.25247  0.14863  1.0000
  F   F142      1.0  0.82114  0.25956  0.62550  1.0000
  F   F143      1.0  0.81679  0.75211  0.13810  1.0000
  F   F144      1.0  0.81096  0.75402  0.65190  1.0000
  F   F145      1.0  0.11987  0.34636  0.14426  1.0000
  F   F146      1.0  0.12551  0.37451  0.60599  1.0000
  F   F147      1.0  0.12940  0.89328  0.07777  1.0000
  F   F148      1.0  0.12940  0.88817  0.59007  1.0000
  F   F149      1.0  0.37401  0.35153  0.12446  1.0000
  F   F150      1.0  0.37430  0.38060  0.60384  1.0000
  F   F151      1.0  0.37210  0.86674  0.11295  1.0000
  F   F152      1.0  0.37679  0.85877  0.61259  1.0000
  F   F153      1.0  0.62376  0.34562  0.12400  1.0000
  F   F154      1.0  0.62496  0.36004  0.61353  1.0000
  F   F155      1.0  0.62232  0.87052  0.11362  1.0000
  F   F156      1.0  0.61951  0.86717  0.62411  1.0000
  F   F157      1.0  0.87484  0.37384  0.10496  1.0000
  F   F158      1.0  0.87074  0.36355  0.61847  1.0000
  F   F159      1.0  0.87269  0.86809  0.12091  1.0000
  F   F160      1.0  0.87333  0.88228  0.59034  1.0000
  F   F161      1.0  0.18740  0.24383  0.34963  1.0000
  F   F162      1.0  0.18891  0.25229  0.86821  1.0000
  F   F163      1.0  0.19132  0.74975  0.35118  1.0000
  F   F164      1.0  0.18871  0.75454  0.85866  1.0000
  F   F165      1.0  0.43740  0.24228  0.36506  1.0000
  F   F166      1.0  0.44402  0.25681  0.83667  1.0000
  F   F167      1.0  0.44464  0.75799  0.34459  1.0000
  F   F168      1.0  0.43070  0.75311  0.86285  1.0000
  F   F169      1.0  0.67964  0.23995  0.37160  1.0000
  F   F170      1.0  0.68363  0.24824  0.86285  1.0000
  F   F171      1.0  0.68095  0.74318  0.37341  1.0000
  F   F172      1.0  0.68961  0.74285  0.87310  1.0000
  F   F173      1.0  0.93505  0.25568  0.34760  1.0000
  F   F174      1.0  0.93714  0.24230  0.86609  1.0000
  F   F175      1.0  0.93923  0.74457  0.35048  1.0000
  F   F176      1.0  0.93383  0.74291  0.86785  1.0000
  F   F177      1.0  0.11945  0.12305  0.40275  1.0000
  F   F178      1.0  0.13073  0.15117  0.87580  1.0000
  F   F179      1.0  0.13316  0.61965  0.40720  1.0000
  F   F180      1.0  0.12890  0.62770  0.87985  1.0000
  F   F181      1.0  0.37959  0.12253  0.37025  1.0000
  F   F182      1.0  0.37888  0.15100  0.87836  1.0000
  F   F183      1.0  0.37626  0.62880  0.39140  1.0000
  F   F184      1.0  0.37407  0.61137  0.90602  1.0000
  F   F185      1.0  0.62638  0.12305  0.40752  1.0000
  F   F186      1.0  0.62335  0.14123  0.88891  1.0000
  F   F187      1.0  0.62285  0.61803  0.40083  1.0000
  F   F188      1.0  0.62280  0.60959  0.90612  1.0000
  F   F189      1.0  0.87241  0.12684  0.40140  1.0000
  F   F190      1.0  0.87503  0.12707  0.89198  1.0000
  F   F191      1.0  0.86837  0.61591  0.42556  1.0000
  F   F192      1.0  0.88369  0.62609  0.87711  1.0000
  F   F193      1.0  0.00145  0.35506  0.10613  1.0000
  F   F194      1.0  0.00791  0.34991  0.59114  1.0000
  F   F195      1.0  0.00961  0.86023  0.09420  1.0000
  F   F196      1.0  0.00430  0.87948  0.57160  1.0000
  F   F197      1.0  0.26293  0.36018  0.06610  1.0000
  F   F198      1.0  0.25593  0.35065  0.59237  1.0000
  F   F199      1.0  0.26123  0.85474  0.06734  1.0000
  F   F200      1.0  0.26064  0.85851  0.56276  1.0000
  F   F201      1.0  0.51615  0.35483  0.07101  1.0000
  F   F202      1.0  0.50800  0.36749  0.56183  1.0000
  F   F203      1.0  0.51093  0.86518  0.07554  1.0000
  F   F204      1.0  0.50833  0.87890  0.56784  1.0000
  F   F205      1.0  0.75663  0.35409  0.06599  1.0000
  F   F206      1.0  0.75871  0.35126  0.58028  1.0000
  F   F207      1.0  0.75636  0.85494  0.08099  1.0000
  F   F208      1.0  0.75789  0.87446  0.56706  1.0000
  F   F209      1.0  0.06807  0.48441  0.18166  1.0000
  F   F210      1.0  0.06859  0.48288  0.67805  1.0000
  F   F211      1.0  0.06350  0.97826  0.20149  1.0000
  F   F212      1.0  0.06670  0.98271  0.68184  1.0000
  F   F213      1.0  0.31954  0.49390  0.15675  1.0000
  F   F214      1.0  0.31480  0.48576  0.66757  1.0000
  F   F215      1.0  0.31742  0.97749  0.17175  1.0000
  F   F216      1.0  0.32827  0.97281  0.67784  1.0000
  F   F217      1.0  0.57188  0.47031  0.18517  1.0000
  F   F218      1.0  0.57594  0.48213  0.65954  1.0000
  F   F219      1.0  0.55960  0.98828  0.18123  1.0000
  F   F220      1.0  0.56403  0.98294  0.68641  1.0000
  F   F221      1.0  0.82159  0.48850  0.17223  1.0000
  F   F222      1.0  0.81610  0.49138  0.66855  1.0000
  F   F223      1.0  0.81214  0.98503  0.18796  1.0000
  F   F224      1.0  0.81826  0.98425  0.67620  1.0000
  F   F225      1.0  0.23876  0.14139  0.43699  1.0000
  F   F226      1.0  0.24579  0.13377  0.92518  1.0000
  F   F227      1.0  0.24283  0.62611  0.42130  1.0000
  F   F228      1.0  0.24190  0.64527  0.92834  1.0000
  F   F229      1.0  0.49468  0.12644  0.43340  1.0000
  F   F230      1.0  0.48857  0.13532  0.94039  1.0000
  F   F231      1.0  0.49390  0.63369  0.41294  1.0000
  F   F232      1.0  0.49666  0.63452  0.89514  1.0000
  F   F233      1.0  0.74209  0.13617  0.43394  1.0000
  F   F234      1.0  0.73888  0.15160  0.92462  1.0000
  F   F235      1.0  0.74629  0.65602  0.40328  1.0000
  F   F236      1.0  0.74304  0.64043  0.92227  1.0000
  F   F237      1.0  0.99233  0.12679  0.43381  1.0000
  F   F238      1.0  0.99044  0.11859  0.93743  1.0000
  F   F239      1.0  0.99125  0.62865  0.44243  1.0000
  F   F240      1.0  0.99150  0.65304  0.92081  1.0000
  F   F241      1.0  0.18117  0.02043  0.32265  1.0000
  F   F242      1.0  0.18195  0.03115  0.80989  1.0000
  F   F243      1.0  0.18208  0.51561  0.31249  1.0000
  F   F244      1.0  0.18948  0.51122  0.81142  1.0000
  F   F245      1.0  0.43386  0.01871  0.31497  1.0000
  F   F246      1.0  0.43188  0.02035  0.82304  1.0000
  F   F247      1.0  0.42251  0.51610  0.32881  1.0000
  F   F248      1.0  0.43201  0.51266  0.81288  1.0000
  F   F249      1.0  0.67878  0.99909  0.33322  1.0000
  F   F250      1.0  0.67942  0.02036  0.82294  1.0000
  F   F251      1.0  0.67693  0.51563  0.32809  1.0000
  F   F252      1.0  0.68260  0.52324  0.81372  1.0000
  F   F253      1.0  0.92668  0.00712  0.35005  1.0000
  F   F254      1.0  0.93136  0.01463  0.82251  1.0000
  F   F255      1.0  0.93402  0.51156  0.32751  1.0000
  F   F256      1.0  0.93834  0.51606  0.81671  1.0000
  F   F257      1.0  0.00412  0.26705  0.99355  1.0000
  F   F258      1.0  0.99376  0.25061  0.50040  1.0000
  F   F259      1.0  0.99848  0.76501  0.00219  1.0000
  F   F260      1.0  0.99840  0.74641  0.50398  1.0000
  F   F261      1.0  0.24624  0.21848  0.01239  1.0000
  F   F262      1.0  0.25735  0.26719  0.48661  1.0000
  F   F263      1.0  0.25132  0.75118  0.99425  1.0000
  F   F264      1.0  0.24215  0.74309  0.50183  1.0000
  F   F265      1.0  0.49816  0.27192  0.99036  1.0000
  F   F266      1.0  0.49946  0.25967  0.48958  1.0000
  F   F267      1.0  0.49321  0.72922  0.00883  1.0000
  F   F268      1.0  0.50620  0.74860  0.49072  1.0000
  F   F269      1.0  0.74739  0.25466  0.99897  1.0000
  F   F270      1.0  0.75674  0.27883  0.47997  1.0000
  F   F271      1.0  0.74938  0.73934  0.00345  1.0000
  F   F272      1.0  0.74582  0.74917  0.50382  1.0000
  F   F273      1.0  0.13936  0.00791  0.23359  1.0000
  F   F274      1.0  0.12626  0.00116  0.74887  1.0000
  F   F275      1.0  0.12327  0.49453  0.26275  1.0000
  F   F276      1.0  0.11945  0.50398  0.76660  1.0000
  F   F277      1.0  0.37748  0.01001  0.24599  1.0000
  F   F278      1.0  0.37912  0.00589  0.74866  1.0000
  F   F279      1.0  0.37070  0.48437  0.25276  1.0000
  F   F280      1.0  0.36125  0.48498  0.76754  1.0000
  F   F281      1.0  0.62338  0.99585  0.23846  1.0000
  F   F282      1.0  0.62937  0.00580  0.74656  1.0000
  F   F283      1.0  0.63531  0.51008  0.23340  1.0000
  F   F284      1.0  0.61236  0.50221  0.76344  1.0000
  F   F285      1.0  0.87201  0.99466  0.26205  1.0000
  F   F286      1.0  0.87258  0.00304  0.74491  1.0000
  F   F287      1.0  0.87732  0.50409  0.24978  1.0000
  F   F288      1.0  0.87746  0.49859  0.73693  1.0000
  F   F289      1.0  0.05375  0.02455  0.03782  1.0000
  F   F290      1.0  0.04238  0.03458  0.53355  1.0000
  F   F291      1.0  0.04070  0.53425  0.02015  1.0000
  F   F292      1.0  0.05342  0.51959  0.52045  1.0000
  F   F293      1.0  0.29631  0.02868  0.02009  1.0000
  F   F294      1.0  0.29269  0.02641  0.53134  1.0000
  F   F295      1.0  0.28985  0.52855  0.01921  1.0000
  F   F296      1.0  0.29773  0.52334  0.50833  1.0000
  F   F297      1.0  0.54710  0.02421  0.00315  1.0000
  F   F298      1.0  0.54455  0.03016  0.52620  1.0000
  F   F299      1.0  0.53591  0.53547  0.03404  1.0000
  F   F300      1.0  0.54165  0.53090  0.50727  1.0000
  F   F301      1.0  0.78253  0.02939  0.03169  1.0000
  F   F302      1.0  0.79280  0.03656  0.52448  1.0000
  F   F303      1.0  0.78875  0.53566  0.02256  1.0000
  F   F304      1.0  0.77868  0.53086  0.52589  1.0000
  F   F305      1.0  0.24239  0.39876  0.23171  1.0000
  F   F306      1.0  0.23712  0.40157  0.74142  1.0000
  F   F307      1.0  0.23620  0.91458  0.22339  1.0000
  F   F308      1.0  0.23671  0.91648  0.72351  1.0000
  F   F309      1.0  0.48008  0.41963  0.23602  1.0000
  F   F310      1.0  0.48486  0.41494  0.72286  1.0000
  F   F311      1.0  0.48151  0.91617  0.22978  1.0000
  F   F312      1.0  0.48309  0.91172  0.73489  1.0000
  F   F313      1.0  0.74183  0.41351  0.22181  1.0000
  F   F314      1.0  0.73242  0.41753  0.72935  1.0000
  F   F315      1.0  0.73427  0.89745  0.24526  1.0000
  F   F316      1.0  0.73356  0.92364  0.72754  1.0000
  F   F317      1.0  0.98464  0.42654  0.23391  1.0000
  F   F318      1.0  0.98752  0.42316  0.72587  1.0000
  F   F319      1.0  0.98364  0.92260  0.23097  1.0000
  F   F320      1.0  0.97921  0.89627  0.74786  1.0000
  F   F321      1.0  0.20210  0.45347  0.49004  1.0000
  F   F322      1.0  0.21074  0.46919  0.97471  1.0000
  F   F323      1.0  0.21092  0.97967  0.48453  1.0000
  F   F324      1.0  0.20989  0.97686  0.96955  1.0000
  F   F325      1.0  0.45869  0.48035  0.46504  1.0000
  F   F326      1.0  0.45354  0.46537  0.97165  1.0000
  F   F327      1.0  0.45017  0.96936  0.47995  1.0000
  F   F328      1.0  0.45987  0.98349  0.96886  1.0000
  F   F329      1.0  0.71607  0.47842  0.47046  1.0000
  F   F330      1.0  0.70459  0.46966  0.98227  1.0000
  F   F331      1.0  0.70310  0.95989  0.47546  1.0000
  F   F332      1.0  0.70453  0.98034  0.98191  1.0000
  F   F333      1.0  0.96457  0.46718  0.47171  1.0000
  F   F334      1.0  0.96546  0.46798  0.98530  1.0000
  F   F335      1.0  0.95936  0.95985  0.46963  1.0000
  F   F336      1.0  0.95038  0.96699  0.98013  1.0000
  F   F337      1.0  0.01391  0.08716  0.26387  1.0000
  F   F338      1.0  0.00927  0.09748  0.76304  1.0000
  F   F339      1.0  0.01429  0.59400  0.27666  1.0000
  F   F340      1.0  0.01422  0.58310  0.78070  1.0000
  F   F341      1.0  0.26085  0.10858  0.26283  1.0000
  F   F342      1.0  0.26842  0.07547  0.76635  1.0000
  F   F343      1.0  0.27378  0.56831  0.27196  1.0000
  F   F344      1.0  0.26409  0.59347  0.78418  1.0000
  F   F345      1.0  0.51099  0.08408  0.28621  1.0000
  F   F346      1.0  0.51589  0.08499  0.77412  1.0000
  F   F347      1.0  0.51354  0.60269  0.24186  1.0000
  F   F348      1.0  0.51525  0.58064  0.75793  1.0000
  F   F349      1.0  0.76451  0.08607  0.28051  1.0000
  F   F350      1.0  0.76522  0.07658  0.79095  1.0000
  F   F351      1.0  0.76677  0.59315  0.26492  1.0000
  F   F352      1.0  0.76261  0.57800  0.77500  1.0000
  F   F353      1.0  0.10374  0.38339  0.46751  1.0000
  F   F354      1.0  0.10410  0.41073  0.96694  1.0000
  F   F355      1.0  0.10322  0.89714  0.45141  1.0000
  F   F356      1.0  0.10639  0.88699  0.95753  1.0000
  F   F357      1.0  0.35417  0.39439  0.46221  1.0000
  F   F358      1.0  0.34987  0.42135  0.95539  1.0000
  F   F359      1.0  0.35394  0.90371  0.46081  1.0000
  F   F360      1.0  0.34836  0.89899  0.96902  1.0000
  F   F361      1.0  0.60143  0.40467  0.46192  1.0000
  F   F362      1.0  0.60989  0.43287  0.95744  1.0000
  F   F363      1.0  0.59971  0.90346  0.46425  1.0000
  F   F364      1.0  0.60347  0.89090  0.96327  1.0000
  F   F365      1.0  0.85015  0.42158  0.46814  1.0000
  F   F366      1.0  0.85201  0.42224  0.96186  1.0000
  F   F367      1.0  0.84536  0.90977  0.46180  1.0000
  F   F368      1.0  0.85028  0.92864  0.96196  1.0000
  F   F369      1.0  0.03778  0.28780  0.29734  1.0000
  F   F370      1.0  0.04909  0.29325  0.78828  1.0000
  F   F371      1.0  0.03719  0.78571  0.30715  1.0000
  F   F372      1.0  0.05071  0.81524  0.78061  1.0000
  F   F373      1.0  0.29972  0.29019  0.29337  1.0000
  F   F374      1.0  0.29433  0.30310  0.79756  1.0000
  F   F375      1.0  0.29019  0.78830  0.30598  1.0000
  F   F376      1.0  0.29034  0.80396  0.79077  1.0000
  F   F377      1.0  0.54314  0.30802  0.28702  1.0000
  F   F378      1.0  0.54506  0.30400  0.78770  1.0000
  F   F379      1.0  0.54544  0.79401  0.28334  1.0000
  F   F380      1.0  0.54615  0.80864  0.79995  1.0000
  F   F381      1.0  0.80068  0.31151  0.28332  1.0000
  F   F382      1.0  0.79275  0.29865  0.78900  1.0000
  F   F383      1.0  0.80044  0.80151  0.29194  1.0000
  F   F384      1.0  0.79937  0.80054  0.78503  1.0000
