data_image0
_chemical_formula_structural       Hf96F384
_chemical_formula_sum              "Hf96 F384"
_cell_length_a       31.0446
_cell_length_b       15.5242
_cell_length_c       15.5142
_cell_angle_alpha    63.342
_cell_angle_beta     63.342
_cell_angle_gamma    80.1625

_space_group_name_H-M_alt    "P 1"
_space_group_IT_number       1

loop_
  _space_group_symop_operation_xyz
  'x, y, z'

loop_
  _atom_site_type_symbol
  _atom_site_label
  _atom_site_symmetry_multiplicity
  _atom_site_fract_x
  _atom_site_fract_y
  _atom_site_fract_z
  _atom_site_occupancy
  Hf  Hf1       1.0  0.19444  0.10337  0.38107  1.0000
  Hf  Hf2       1.0  0.19657  0.11012  0.86573  1.0000
  Hf  Hf3       1.0  0.19640  0.60316  0.37133  1.0000
  Hf  Hf4       1.0  0.19481  0.60547  0.87718  1.0000
  Hf  Hf5       1.0  0.44839  0.10329  0.38857  1.0000
  Hf  Hf6       1.0  0.44649  0.10455  0.87826  1.0000
  Hf  Hf7       1.0  0.44757  0.60542  0.37885  1.0000
  Hf  Hf8       1.0  0.44837  0.60648  0.87147  1.0000
  Hf  Hf9       1.0  0.69862  0.11035  0.37522  1.0000
  Hf  Hf10      1.0  0.70048  0.11789  0.85316  1.0000
  Hf  Hf11      1.0  0.69681  0.60550  0.37491  1.0000
  Hf  Hf12      1.0  0.69691  0.60084  0.88117  1.0000
  Hf  Hf13      1.0  0.94748  0.11418  0.36392  1.0000
  Hf  Hf14      1.0  0.94403  0.11493  0.87813  1.0000
  Hf  Hf15      1.0  0.94585  0.61146  0.37184  1.0000
  Hf  Hf16      1.0  0.94704  0.61119  0.87425  1.0000
  Hf  Hf17      1.0  0.05619  0.38833  0.11705  1.0000
  Hf  Hf18      1.0  0.05164  0.38927  0.62571  1.0000
  Hf  Hf19      1.0  0.05504  0.89182  0.12149  1.0000
  Hf  Hf20      1.0  0.05053  0.90582  0.62329  1.0000
  Hf  Hf21      1.0  0.30838  0.39269  0.12332  1.0000
  Hf  Hf22      1.0  0.30193  0.40234  0.62210  1.0000
  Hf  Hf23      1.0  0.30510  0.89751  0.12370  1.0000
  Hf  Hf24      1.0  0.30443  0.89141  0.62731  1.0000
  Hf  Hf25      1.0  0.55770  0.38451  0.13019  1.0000
  Hf  Hf26      1.0  0.55181  0.38715  0.63694  1.0000
  Hf  Hf27      1.0  0.55011  0.89264  0.12082  1.0000
  Hf  Hf28      1.0  0.55412  0.89092  0.61965  1.0000
  Hf  Hf29      1.0  0.79971  0.39772  0.12335  1.0000
  Hf  Hf30      1.0  0.80380  0.39981  0.61894  1.0000
  Hf  Hf31      1.0  0.80394  0.89515  0.11550  1.0000
  Hf  Hf32      1.0  0.80560  0.88833  0.62588  1.0000
  Hf  Hf33      1.0  0.05421  0.19026  0.40739  1.0000
  Hf  Hf34      1.0  0.05620  0.17930  0.91563  1.0000
  Hf  Hf35      1.0  0.05220  0.68012  0.41855  1.0000
  Hf  Hf36      1.0  0.05637  0.67992  0.91580  1.0000
  Hf  Hf37      1.0  0.30692  0.18637  0.42188  1.0000
  Hf  Hf38      1.0  0.30685  0.18679  0.91567  1.0000
  Hf  Hf39      1.0  0.30755  0.67952  0.41309  1.0000
  Hf  Hf40      1.0  0.30629  0.68241  0.92013  1.0000
  Hf  Hf41      1.0  0.55692  0.17582  0.43249  1.0000
  Hf  Hf42      1.0  0.55663  0.17460  0.92379  1.0000
  Hf  Hf43      1.0  0.55183  0.67670  0.42185  1.0000
  Hf  Hf44      1.0  0.55722  0.67142  0.92171  1.0000
  Hf  Hf45      1.0  0.80642  0.17926  0.42234  1.0000
  Hf  Hf46      1.0  0.80416  0.19149  0.91537  1.0000
  Hf  Hf47      1.0  0.80354  0.69328  0.41563  1.0000
  Hf  Hf48      1.0  0.80729  0.68525  0.91849  1.0000
  Hf  Hf49      1.0  0.15857  0.38317  0.33610  1.0000
  Hf  Hf50      1.0  0.15541  0.39057  0.83028  1.0000
  Hf  Hf51      1.0  0.15527  0.88766  0.33630  1.0000
  Hf  Hf52      1.0  0.16022  0.88987  0.82335  1.0000
  Hf  Hf53      1.0  0.40867  0.39291  0.33699  1.0000
  Hf  Hf54      1.0  0.40807  0.38262  0.83216  1.0000
  Hf  Hf55      1.0  0.40778  0.88684  0.33767  1.0000
  Hf  Hf56      1.0  0.40765  0.88396  0.83100  1.0000
  Hf  Hf57      1.0  0.66114  0.39121  0.33185  1.0000
  Hf  Hf58      1.0  0.66124  0.39149  0.83186  1.0000
  Hf  Hf59      1.0  0.65606  0.88351  0.33910  1.0000
  Hf  Hf60      1.0  0.66176  0.89235  0.82658  1.0000
  Hf  Hf61      1.0  0.91079  0.38674  0.33849  1.0000
  Hf  Hf62      1.0  0.90810  0.39145  0.83303  1.0000
  Hf  Hf63      1.0  0.91300  0.89154  0.32915  1.0000
  Hf  Hf64      1.0  0.90835  0.89489  0.83077  1.0000
  Hf  Hf65      1.0  0.19736  0.32225  0.07848  1.0000
  Hf  Hf66      1.0  0.19629  0.32697  0.57490  1.0000
  Hf  Hf67      1.0  0.19674  0.82265  0.07187  1.0000
  Hf  Hf68      1.0  0.19864  0.82576  0.57395  1.0000
  Hf  Hf69      1.0  0.44769  0.31435  0.08517  1.0000
  Hf  Hf70      1.0  0.44331  0.32171  0.57939  1.0000
  Hf  Hf71      1.0  0.44336  0.81123  0.08285  1.0000
  Hf  Hf72      1.0  0.44300  0.80738  0.58505  1.0000
  Hf  Hf73      1.0  0.69453  0.31346  0.07962  1.0000
  Hf  Hf74      1.0  0.69477  0.31282  0.58548  1.0000
  Hf  Hf75      1.0  0.68923  0.82279  0.08411  1.0000
  Hf  Hf76      1.0  0.69024  0.81217  0.59063  1.0000
  Hf  Hf77      1.0  0.94555  0.32252  0.08045  1.0000
  Hf  Hf78      1.0  0.94438  0.30818  0.59251  1.0000
  Hf  Hf79      1.0  0.94428  0.81757  0.08471  1.0000
  Hf  Hf80      1.0  0.94383  0.82952  0.57836  1.0000
  Hf  Hf81      1.0  0.09354  0.11209  0.16118  1.0000
  Hf  Hf82      1.0  0.08985  0.11850  0.66274  1.0000
  Hf  Hf83      1.0  0.08942  0.60585  0.17530  1.0000
  Hf  Hf84      1.0  0.09024  0.61927  0.66344  1.0000
  Hf  Hf85      1.0  0.34231  0.11324  0.16603  1.0000
  Hf  Hf86      1.0  0.34042  0.11303  0.67384  1.0000
  Hf  Hf87      1.0  0.33899  0.61862  0.16250  1.0000
  Hf  Hf88      1.0  0.33844  0.60431  0.67812  1.0000
  Hf  Hf89      1.0  0.59100  0.10434  0.17347  1.0000
  Hf  Hf90      1.0  0.59089  0.11135  0.67059  1.0000
  Hf  Hf91      1.0  0.58819  0.60674  0.17208  1.0000
  Hf  Hf92      1.0  0.59398  0.61309  0.66581  1.0000
  Hf  Hf93      1.0  0.83837  0.11631  0.16958  1.0000
  Hf  Hf94      1.0  0.84262  0.11380  0.66324  1.0000
  Hf  Hf95      1.0  0.84236  0.61537  0.16379  1.0000
  Hf  Hf96      1.0  0.84116  0.61492  0.66612  1.0000
  F   F1        1.0  0.07354  0.11865  0.30837  1.0000
  F   F2        1.0  0.08347  0.13991  0.79037  1.0000
  F   F3        1.0  0.07739  0.60846  0.31964  1.0000
  F   F4        1.0  0.07116  0.62546  0.80941  1.0000
  F   F5        1.0  0.32823  0.13492  0.30329  1.0000
  F   F6        1.0  0.33984  0.13592  0.80105  1.0000
  F   F7        1.0  0.32301  0.63543  0.30038  1.0000
  F   F8        1.0  0.32505  0.61826  0.82363  1.0000
  F   F9        1.0  0.57945  0.11687  0.32131  1.0000
  F   F10       1.0  0.57506  0.11775  0.82128  1.0000
  F   F11       1.0  0.56870  0.61698  0.31853  1.0000
  F   F12       1.0  0.58015  0.62715  0.80915  1.0000
  F   F13       1.0  0.83302  0.12752  0.30170  1.0000
  F   F14       1.0  0.82590  0.13704  0.80471  1.0000
  F   F15       1.0  0.83086  0.63574  0.30306  1.0000
  F   F16       1.0  0.83405  0.63847  0.79657  1.0000
  F   F17       1.0  0.18692  0.35020  0.44953  1.0000
  F   F18       1.0  0.17637  0.33290  0.95306  1.0000
  F   F19       1.0  0.18695  0.84346  0.44207  1.0000
  F   F20       1.0  0.18817  0.84982  0.93617  1.0000
  F   F21       1.0  0.43764  0.36642  0.43726  1.0000
  F   F22       1.0  0.43823  0.33087  0.94741  1.0000
  F   F23       1.0  0.43527  0.83129  0.44848  1.0000
  F   F24       1.0  0.43679  0.84281  0.94306  1.0000
  F   F25       1.0  0.69727  0.33935  0.44112  1.0000
  F   F26       1.0  0.68733  0.34939  0.93533  1.0000
  F   F27       1.0  0.68141  0.83580  0.45746  1.0000
  F   F28       1.0  0.69262  0.86377  0.93186  1.0000
  F   F29       1.0  0.93096  0.31747  0.45594  1.0000
  F   F30       1.0  0.93475  0.34851  0.93909  1.0000
  F   F31       1.0  0.94371  0.85298  0.43088  1.0000
  F   F32       1.0  0.94277  0.86094  0.93116  1.0000
  F   F33       1.0  0.16943  0.34671  0.20319  1.0000
  F   F34       1.0  0.17392  0.38237  0.68448  1.0000
  F   F35       1.0  0.16205  0.84984  0.20028  1.0000
  F   F36       1.0  0.17596  0.87839  0.68628  1.0000
  F   F37       1.0  0.42647  0.36490  0.20164  1.0000
  F   F38       1.0  0.41173  0.36451  0.70363  1.0000
  F   F39       1.0  0.42170  0.86052  0.19580  1.0000
  F   F40       1.0  0.41829  0.85805  0.69760  1.0000
  F   F41       1.0  0.67313  0.36988  0.20082  1.0000
  F   F42       1.0  0.67406  0.36779  0.69550  1.0000
  F   F43       1.0  0.66513  0.85985  0.19861  1.0000
  F   F44       1.0  0.67216  0.87829  0.69579  1.0000
  F   F45       1.0  0.92193  0.35555  0.20363  1.0000
  F   F46       1.0  0.91816  0.36443  0.69837  1.0000
  F   F47       1.0  0.91931  0.87068  0.20395  1.0000
  F   F48       1.0  0.91970  0.87353  0.69604  1.0000
  F   F49       1.0  0.06270  0.15417  0.05892  1.0000
  F   F50       1.0  0.07443  0.18550  0.53020  1.0000
  F   F51       1.0  0.06390  0.65400  0.06275  1.0000
  F   F52       1.0  0.06086  0.65589  0.55465  1.0000
  F   F53       1.0  0.31488  0.16020  0.05105  1.0000
  F   F54       1.0  0.32299  0.14961  0.55396  1.0000
  F   F55       1.0  0.31766  0.66317  0.04495  1.0000
  F   F56       1.0  0.32514  0.65962  0.53716  1.0000
  F   F57       1.0  0.55935  0.14680  0.06135  1.0000
  F   F58       1.0  0.56535  0.16281  0.56112  1.0000
  F   F59       1.0  0.56286  0.64829  0.06050  1.0000
  F   F60       1.0  0.55222  0.63705  0.56580  1.0000
  F   F61       1.0  0.80388  0.15964  0.07152  1.0000
  F   F62       1.0  0.81549  0.15256  0.54918  1.0000
  F   F63       1.0  0.81517  0.67271  0.05030  1.0000
  F   F64       1.0  0.80714  0.65741  0.56959  1.0000
  F   F65       1.0  0.21232  0.20335  0.21717  1.0000
  F   F66       1.0  0.20981  0.19206  0.70718  1.0000
  F   F67       1.0  0.20009  0.68568  0.22368  1.0000
  F   F68       1.0  0.21190  0.68908  0.72422  1.0000
  F   F69       1.0  0.46085  0.18851  0.22849  1.0000
  F   F70       1.0  0.44859  0.20428  0.70760  1.0000
  F   F71       1.0  0.45539  0.69299  0.20188  1.0000
  F   F72       1.0  0.45889  0.69957  0.69736  1.0000
  F   F73       1.0  0.70153  0.19655  0.22068  1.0000
  F   F74       1.0  0.70999  0.19101  0.70212  1.0000
  F   F75       1.0  0.70088  0.70414  0.21287  1.0000
  F   F76       1.0  0.70093  0.70447  0.73566  1.0000
  F   F77       1.0  0.95618  0.20172  0.19001  1.0000
  F   F78       1.0  0.95434  0.19608  0.71505  1.0000
  F   F79       1.0  0.94492  0.69143  0.21822  1.0000
  F   F80       1.0  0.94923  0.70454  0.71265  1.0000
  F   F81       1.0  0.15043  0.10811  0.02696  1.0000
  F   F82       1.0  0.14854  0.08276  0.53219  1.0000
  F   F83       1.0  0.15240  0.58492  0.04115  1.0000
  F   F84       1.0  0.14765  0.58567  0.54822  1.0000
  F   F85       1.0  0.39823  0.08693  0.05104  1.0000
  F   F86       1.0  0.40139  0.08081  0.53862  1.0000
  F   F87       1.0  0.39484  0.58767  0.03260  1.0000
  F   F88       1.0  0.39680  0.57871  0.54352  1.0000
  F   F89       1.0  0.64306  0.09628  0.04131  1.0000
  F   F90       1.0  0.65038  0.10208  0.53586  1.0000
  F   F91       1.0  0.64857  0.57514  0.06230  1.0000
  F   F92       1.0  0.64939  0.58480  0.53776  1.0000
  F   F93       1.0  0.89564  0.09809  0.03792  1.0000
  F   F94       1.0  0.89891  0.11165  0.51735  1.0000
  F   F95       1.0  0.89745  0.59213  0.03644  1.0000
  F   F96       1.0  0.89922  0.60481  0.54226  1.0000
  F   F97       1.0  0.15110  0.19088  0.14731  1.0000
  F   F98       1.0  0.15050  0.19475  0.59802  1.0000
  F   F99       1.0  0.14708  0.69597  0.12945  1.0000
  F   F100      1.0  0.15143  0.69940  0.63004  1.0000
  F   F101      1.0  0.40264  0.19960  0.14199  1.0000
  F   F102      1.0  0.40274  0.20558  0.60393  1.0000
  F   F103      1.0  0.39755  0.69320  0.11890  1.0000
  F   F104      1.0  0.40057  0.68773  0.62951  1.0000
  F   F105      1.0  0.66137  0.18915  0.12358  1.0000
  F   F106      1.0  0.64641  0.18792  0.63732  1.0000
  F   F107      1.0  0.64881  0.70533  0.12273  1.0000
  F   F108      1.0  0.65160  0.67988  0.64710  1.0000
  F   F109      1.0  0.89858  0.20394  0.10176  1.0000
  F   F110      1.0  0.90754  0.18248  0.62261  1.0000
  F   F111      1.0  0.90199  0.69184  0.10262  1.0000
  F   F112      1.0  0.89798  0.71957  0.61734  1.0000
  F   F113      1.0  0.09587  0.31311  0.35529  1.0000
  F   F114      1.0  0.09955  0.29929  0.87123  1.0000
  F   F115      1.0  0.10101  0.79826  0.37452  1.0000
  F   F116      1.0  0.09903  0.79755  0.86249  1.0000
  F   F117      1.0  0.34500  0.29498  0.39200  1.0000
  F   F118      1.0  0.34902  0.30489  0.87676  1.0000
  F   F119      1.0  0.35154  0.80159  0.37048  1.0000
  F   F120      1.0  0.34785  0.80288  0.88128  1.0000
  F   F121      1.0  0.60079  0.30200  0.38342  1.0000
  F   F122      1.0  0.59816  0.29102  0.89275  1.0000
  F   F123      1.0  0.59620  0.80556  0.37215  1.0000
  F   F124      1.0  0.60100  0.78504  0.86311  1.0000
  F   F125      1.0  0.85262  0.30476  0.38889  1.0000
  F   F126      1.0  0.84806  0.30668  0.87212  1.0000
  F   F127      1.0  0.84997  0.80103  0.38413  1.0000
  F   F128      1.0  0.85693  0.79929  0.86822  1.0000
  F   F129      1.0  0.07083  0.25646  0.11945  1.0000
  F   F130      1.0  0.05695  0.25068  0.65454  1.0000
  F   F131      1.0  0.05840  0.74731  0.14315  1.0000
  F   F132      1.0  0.06160  0.75630  0.63628  1.0000
  F   F133      1.0  0.31937  0.24948  0.13408  1.0000
  F   F134      1.0  0.31091  0.24963  0.65636  1.0000
  F   F135      1.0  0.30889  0.74937  0.14600  1.0000
  F   F136      1.0  0.31461  0.73434  0.65202  1.0000
  F   F137      1.0  0.57238  0.23596  0.15110  1.0000
  F   F138      1.0  0.55571  0.24329  0.67152  1.0000
  F   F139      1.0  0.56560  0.74752  0.13166  1.0000
  F   F140      1.0  0.56938  0.75305  0.62414  1.0000
  F   F141      1.0  0.80647  0.25144  0.16536  1.0000
  F   F142      1.0  0.81443  0.25369  0.63867  1.0000
  F   F143      1.0  0.81100  0.75153  0.15107  1.0000
  F   F144      1.0  0.80371  0.75285  0.65402  1.0000
  F   F145      1.0  0.12835  0.37132  0.10660  1.0000
  F   F146      1.0  0.12259  0.36053  0.62279  1.0000
  F   F147      1.0  0.12481  0.86830  0.08814  1.0000
  F   F148      1.0  0.12417  0.87452  0.60111  1.0000
  F   F149      1.0  0.37808  0.37481  0.09746  1.0000
  F   F150      1.0  0.37487  0.37892  0.58360  1.0000
  F   F151      1.0  0.36823  0.85513  0.13102  1.0000
  F   F152      1.0  0.37434  0.87018  0.60115  1.0000
  F   F153      1.0  0.62904  0.37893  0.09619  1.0000
  F   F154      1.0  0.62700  0.35944  0.62294  1.0000
  F   F155      1.0  0.61665  0.88002  0.10242  1.0000
  F   F156      1.0  0.61993  0.84564  0.63106  1.0000
  F   F157      1.0  0.87244  0.36188  0.10345  1.0000
  F   F158      1.0  0.87908  0.35301  0.60655  1.0000
  F   F159      1.0  0.87383  0.85660  0.10677  1.0000
  F   F160      1.0  0.87597  0.89573  0.59494  1.0000
  F   F161      1.0  0.17386  0.24575  0.38035  1.0000
  F   F162      1.0  0.18421  0.24517  0.84256  1.0000
  F   F163      1.0  0.19033  0.74237  0.35717  1.0000
  F   F164      1.0  0.17964  0.75035  0.86864  1.0000
  F   F165      1.0  0.42536  0.25289  0.38888  1.0000
  F   F166      1.0  0.42889  0.24311  0.87456  1.0000
  F   F167      1.0  0.43914  0.74580  0.34259  1.0000
  F   F168      1.0  0.43930  0.74750  0.85023  1.0000
  F   F169      1.0  0.69901  0.24865  0.33776  1.0000
  F   F170      1.0  0.68630  0.25096  0.85171  1.0000
  F   F171      1.0  0.67349  0.73343  0.37630  1.0000
  F   F172      1.0  0.68020  0.75167  0.87971  1.0000
  F   F173      1.0  0.94516  0.24463  0.34931  1.0000
  F   F174      1.0  0.94169  0.25317  0.85541  1.0000
  F   F175      1.0  0.94055  0.76122  0.34231  1.0000
  F   F176      1.0  0.94275  0.75737  0.84698  1.0000
  F   F177      1.0  0.12725  0.13649  0.37902  1.0000
  F   F178      1.0  0.12528  0.09981  0.89880  1.0000
  F   F179      1.0  0.12095  0.60237  0.41346  1.0000
  F   F180      1.0  0.12505  0.61961  0.88715  1.0000
  F   F181      1.0  0.38251  0.14815  0.37448  1.0000
  F   F182      1.0  0.37942  0.11863  0.90085  1.0000
  F   F183      1.0  0.37780  0.62379  0.38842  1.0000
  F   F184      1.0  0.37844  0.63672  0.88725  1.0000
  F   F185      1.0  0.62631  0.13101  0.38944  1.0000
  F   F186      1.0  0.62976  0.14034  0.87747  1.0000
  F   F187      1.0  0.62235  0.61638  0.39986  1.0000
  F   F188      1.0  0.62804  0.61149  0.91452  1.0000
  F   F189      1.0  0.87905  0.14920  0.37451  1.0000
  F   F190      1.0  0.87269  0.14307  0.89875  1.0000
  F   F191      1.0  0.87349  0.64176  0.40359  1.0000
  F   F192      1.0  0.87527  0.62764  0.89282  1.0000
  F   F193      1.0  0.00798  0.36418  0.06511  1.0000
  F   F194      1.0  0.00521  0.36623  0.57594  1.0000
  F   F195      1.0  0.00400  0.85546  0.08792  1.0000
  F   F196      1.0  0.00368  0.87039  0.58191  1.0000
  F   F197      1.0  0.25750  0.36172  0.08472  1.0000
  F   F198      1.0  0.25853  0.35954  0.56779  1.0000
  F   F199      1.0  0.25867  0.86503  0.04781  1.0000
  F   F200      1.0  0.26147  0.85357  0.57669  1.0000
  F   F201      1.0  0.51435  0.35637  0.06270  1.0000
  F   F202      1.0  0.50684  0.36111  0.57495  1.0000
  F   F203      1.0  0.50964  0.86553  0.05823  1.0000
  F   F204      1.0  0.50338  0.86476  0.58506  1.0000
  F   F205      1.0  0.75637  0.36331  0.07448  1.0000
  F   F206      1.0  0.75747  0.35969  0.57261  1.0000
  F   F207      1.0  0.75417  0.87307  0.05461  1.0000
  F   F208      1.0  0.75677  0.87338  0.55123  1.0000
  F   F209      1.0  0.07344  0.47946  0.17441  1.0000
  F   F210      1.0  0.06845  0.49477  0.65942  1.0000
  F   F211      1.0  0.07365  0.97958  0.17467  1.0000
  F   F212      1.0  0.06899  0.99614  0.66870  1.0000
  F   F213      1.0  0.31930  0.48890  0.17448  1.0000
  F   F214      1.0  0.31570  0.47632  0.68497  1.0000
  F   F215      1.0  0.31570  0.98594  0.17240  1.0000
  F   F216      1.0  0.31449  0.97918  0.68652  1.0000
  F   F217      1.0  0.56862  0.47963  0.17580  1.0000
  F   F218      1.0  0.56705  0.48401  0.69078  1.0000
  F   F219      1.0  0.56822  0.97718  0.18166  1.0000
  F   F220      1.0  0.56625  0.99288  0.66101  1.0000
  F   F221      1.0  0.81662  0.49853  0.16175  1.0000
  F   F222      1.0  0.82682  0.49344  0.65596  1.0000
  F   F223      1.0  0.82462  0.97580  0.15586  1.0000
  F   F224      1.0  0.81900  0.98707  0.67757  1.0000
  F   F225      1.0  0.24222  0.14544  0.41691  1.0000
  F   F226      1.0  0.24614  0.14750  0.91430  1.0000
  F   F227      1.0  0.24329  0.62606  0.43065  1.0000
  F   F228      1.0  0.24218  0.63892  0.91223  1.0000
  F   F229      1.0  0.49037  0.13402  0.43997  1.0000
  F   F230      1.0  0.49205  0.14151  0.92846  1.0000
  F   F231      1.0  0.48772  0.63721  0.43503  1.0000
  F   F232      1.0  0.48952  0.61761  0.95821  1.0000
  F   F233      1.0  0.74736  0.12435  0.43042  1.0000
  F   F234      1.0  0.73896  0.15373  0.91646  1.0000
  F   F235      1.0  0.74023  0.64476  0.43403  1.0000
  F   F236      1.0  0.74147  0.64732  0.91489  1.0000
  F   F237      1.0  0.99482  0.13598  0.42493  1.0000
  F   F238      1.0  0.99690  0.12716  0.92386  1.0000
  F   F239      1.0  0.99275  0.64897  0.40829  1.0000
  F   F240      1.0  0.98578  0.63252  0.93661  1.0000
  F   F241      1.0  0.18041  0.01161  0.32047  1.0000
  F   F242      1.0  0.18260  0.01219  0.81795  1.0000
  F   F243      1.0  0.17837  0.51148  0.33018  1.0000
  F   F244      1.0  0.18013  0.51497  0.80752  1.0000
  F   F245      1.0  0.42681  0.00034  0.35213  1.0000
  F   F246      1.0  0.43145  0.01720  0.81888  1.0000
  F   F247      1.0  0.43560  0.51862  0.31697  1.0000
  F   F248      1.0  0.43490  0.50520  0.82909  1.0000
  F   F249      1.0  0.67929  0.99629  0.34765  1.0000
  F   F250      1.0  0.68562  0.01039  0.81435  1.0000
  F   F251      1.0  0.68767  0.51322  0.32566  1.0000
  F   F252      1.0  0.67921  0.52404  0.81313  1.0000
  F   F253      1.0  0.92075  0.02458  0.32814  1.0000
  F   F254      1.0  0.91931  0.02119  0.84831  1.0000
  F   F255      1.0  0.92659  0.51464  0.32832  1.0000
  F   F256      1.0  0.93181  0.52099  0.81717  1.0000
  F   F257      1.0  0.99924  0.24963  0.98801  1.0000
  F   F258      1.0  0.00470  0.25127  0.50671  1.0000
  F   F259      1.0  0.00462  0.74408  0.99617  1.0000
  F   F260      1.0  0.00931  0.76687  0.48596  1.0000
  F   F261      1.0  0.25108  0.25060  0.99321  1.0000
  F   F262      1.0  0.24774  0.24428  0.50545  1.0000
  F   F263      1.0  0.24248  0.73042  0.01572  1.0000
  F   F264      1.0  0.25606  0.74151  0.50968  1.0000
  F   F265      1.0  0.49300  0.22699  0.02240  1.0000
  F   F266      1.0  0.50048  0.24824  0.51059  1.0000
  F   F267      1.0  0.50051  0.74284  0.00455  1.0000
  F   F268      1.0  0.50169  0.75423  0.49286  1.0000
  F   F269      1.0  0.75058  0.25266  0.00227  1.0000
  F   F270      1.0  0.75185  0.23792  0.51150  1.0000
  F   F271      1.0  0.74584  0.75175  0.99894  1.0000
  F   F272      1.0  0.74362  0.75272  0.50571  1.0000
  F   F273      1.0  0.12722  0.99936  0.24205  1.0000
  F   F274      1.0  0.12962  0.00938  0.73690  1.0000
  F   F275      1.0  0.12616  0.48742  0.24766  1.0000
  F   F276      1.0  0.11458  0.49151  0.76817  1.0000
  F   F277      1.0  0.38107  0.00769  0.24537  1.0000
  F   F278      1.0  0.37918  0.99539  0.73303  1.0000
  F   F279      1.0  0.37125  0.51017  0.25631  1.0000
  F   F280      1.0  0.37636  0.50078  0.75294  1.0000
  F   F281      1.0  0.63309  0.99781  0.24501  1.0000
  F   F282      1.0  0.61691  0.99098  0.75949  1.0000
  F   F283      1.0  0.62801  0.49681  0.24778  1.0000
  F   F284      1.0  0.63087  0.50115  0.74288  1.0000
  F   F285      1.0  0.87772  0.00238  0.23875  1.0000
  F   F286      1.0  0.88402  0.01108  0.72640  1.0000
  F   F287      1.0  0.87239  0.49674  0.25097  1.0000
  F   F288      1.0  0.86965  0.49784  0.76123  1.0000
  F   F289      1.0  0.04181  0.01892  0.02065  1.0000
  F   F290      1.0  0.04440  0.03973  0.52730  1.0000
  F   F291      1.0  0.03953  0.53455  0.02402  1.0000
  F   F292      1.0  0.02542  0.54967  0.52390  1.0000
  F   F293      1.0  0.29214  0.03594  0.02621  1.0000
  F   F294      1.0  0.28732  0.03440  0.52824  1.0000
  F   F295      1.0  0.29115  0.53396  0.03502  1.0000
  F   F296      1.0  0.28902  0.53985  0.52594  1.0000
  F   F297      1.0  0.54299  0.02461  0.01269  1.0000
  F   F298      1.0  0.53792  0.02642  0.53472  1.0000
  F   F299      1.0  0.54806  0.51581  0.02257  1.0000
  F   F300      1.0  0.54782  0.51475  0.52541  1.0000
  F   F301      1.0  0.78982  0.04577  0.01841  1.0000
  F   F302      1.0  0.79442  0.01890  0.52268  1.0000
  F   F303      1.0  0.78340  0.54550  0.02381  1.0000
  F   F304      1.0  0.79223  0.53967  0.51800  1.0000
  F   F305      1.0  0.22885  0.41322  0.23055  1.0000
  F   F306      1.0  0.23302  0.40806  0.72276  1.0000
  F   F307      1.0  0.22856  0.90845  0.21730  1.0000
  F   F308      1.0  0.23527  0.90612  0.73133  1.0000
  F   F309      1.0  0.48984  0.41269  0.22610  1.0000
  F   F310      1.0  0.47890  0.42110  0.72479  1.0000
  F   F311      1.0  0.48377  0.91547  0.22936  1.0000
  F   F312      1.0  0.47890  0.91705  0.73732  1.0000
  F   F313      1.0  0.73360  0.41933  0.23787  1.0000
  F   F314      1.0  0.73960  0.41507  0.72505  1.0000
  F   F315      1.0  0.73148  0.89745  0.23000  1.0000
  F   F316      1.0  0.73706  0.89733  0.71918  1.0000
  F   F317      1.0  0.98278  0.39708  0.23572  1.0000
  F   F318      1.0  0.98198  0.41314  0.71882  1.0000
  F   F319      1.0  0.98582  0.92846  0.22863  1.0000
  F   F320      1.0  0.97764  0.93874  0.71657  1.0000
  F   F321      1.0  0.21052  0.47306  0.47415  1.0000
  F   F322      1.0  0.20742  0.46766  0.96786  1.0000
  F   F323      1.0  0.21324  0.96684  0.47590  1.0000
  F   F324      1.0  0.20152  0.97584  0.97446  1.0000
  F   F325      1.0  0.46393  0.46987  0.48286  1.0000
  F   F326      1.0  0.45333  0.46675  0.98544  1.0000
  F   F327      1.0  0.46539  0.96470  0.47430  1.0000
  F   F328      1.0  0.45149  0.97141  0.98821  1.0000
  F   F329      1.0  0.70521  0.47013  0.48486  1.0000
  F   F330      1.0  0.70914  0.46067  0.97412  1.0000
  F   F331      1.0  0.69762  0.96729  0.48797  1.0000
  F   F332      1.0  0.69394  0.98456  0.98944  1.0000
  F   F333      1.0  0.95518  0.46159  0.47630  1.0000
  F   F334      1.0  0.96095  0.47784  0.97335  1.0000
  F   F335      1.0  0.96282  0.97335  0.46460  1.0000
  F   F336      1.0  0.96112  0.96483  0.98999  1.0000
  F   F337      1.0  0.01385  0.09416  0.26616  1.0000
  F   F338      1.0  0.01323  0.09243  0.77210  1.0000
  F   F339      1.0  0.01524  0.57722  0.27171  1.0000
  F   F340      1.0  0.01300  0.60867  0.75623  1.0000
  F   F341      1.0  0.27053  0.07922  0.27175  1.0000
  F   F342      1.0  0.26874  0.07340  0.78165  1.0000
  F   F343      1.0  0.26378  0.58416  0.26079  1.0000
  F   F344      1.0  0.26980  0.56831  0.78687  1.0000
  F   F345      1.0  0.51811  0.08010  0.28757  1.0000
  F   F346      1.0  0.51416  0.09176  0.78161  1.0000
  F   F347      1.0  0.51594  0.57062  0.28363  1.0000
  F   F348      1.0  0.51562  0.61158  0.76893  1.0000
  F   F349      1.0  0.76213  0.08171  0.27687  1.0000
  F   F350      1.0  0.76883  0.08484  0.76546  1.0000
  F   F351      1.0  0.76717  0.57631  0.28485  1.0000
  F   F352      1.0  0.76691  0.56938  0.77694  1.0000
  F   F353      1.0  0.09736  0.40344  0.46530  1.0000
  F   F354      1.0  0.09933  0.41111  0.95746  1.0000
  F   F355      1.0  0.09874  0.91263  0.44986  1.0000
  F   F356      1.0  0.10448  0.89643  0.94704  1.0000
  F   F357      1.0  0.34751  0.40746  0.46251  1.0000
  F   F358      1.0  0.35476  0.40925  0.96163  1.0000
  F   F359      1.0  0.35289  0.89314  0.46962  1.0000
  F   F360      1.0  0.35303  0.91285  0.95871  1.0000
  F   F361      1.0  0.60897  0.38798  0.47261  1.0000
  F   F362      1.0  0.60495  0.39196  0.96318  1.0000
  F   F363      1.0  0.60650  0.91063  0.45890  1.0000
  F   F364      1.0  0.60252  0.89667  0.95601  1.0000
  F   F365      1.0  0.84902  0.42281  0.46696  1.0000
  F   F366      1.0  0.84201  0.41365  0.96754  1.0000
  F   F367      1.0  0.85180  0.88671  0.48083  1.0000
  F   F368      1.0  0.85067  0.89980  0.96265  1.0000
  F   F369      1.0  0.04738  0.28927  0.27053  1.0000
  F   F370      1.0  0.03743  0.29769  0.79619  1.0000
  F   F371      1.0  0.05016  0.79658  0.27907  1.0000
  F   F372      1.0  0.04396  0.81887  0.77551  1.0000
  F   F373      1.0  0.29475  0.30740  0.29272  1.0000
  F   F374      1.0  0.29519  0.30389  0.78670  1.0000
  F   F375      1.0  0.28655  0.80203  0.31030  1.0000
  F   F376      1.0  0.29361  0.79428  0.79136  1.0000
  F   F377      1.0  0.54806  0.28889  0.29710  1.0000
  F   F378      1.0  0.54704  0.30255  0.79689  1.0000
  F   F379      1.0  0.54461  0.79152  0.28419  1.0000
  F   F380      1.0  0.53835  0.79826  0.79282  1.0000
  F   F381      1.0  0.80025  0.30203  0.30495  1.0000
  F   F382      1.0  0.79484  0.30570  0.79187  1.0000
  F   F383      1.0  0.79168  0.80259  0.29549  1.0000
  F   F384      1.0  0.81040  0.80393  0.78393  1.0000
