data_image0
_chemical_formula_structural       Hf96F384
_chemical_formula_sum              "Hf96 F384"
_cell_length_a       31.0365
_cell_length_b       15.5195
_cell_length_c       15.51
_cell_angle_alpha    63.342
_cell_angle_beta     63.342
_cell_angle_gamma    80.1625

_space_group_name_H-M_alt    "P 1"
_space_group_IT_number       1

loop_
  _space_group_symop_operation_xyz
  'x, y, z'

loop_
  _atom_site_type_symbol
  _atom_site_label
  _atom_site_symmetry_multiplicity
  _atom_site_fract_x
  _atom_site_fract_y
  _atom_site_fract_z
  _atom_site_occupancy
  Hf  Hf1       1.0  0.19475  0.11449  0.37366  1.0000
  Hf  Hf2       1.0  0.20013  0.10376  0.87614  1.0000
  Hf  Hf3       1.0  0.19317  0.60165  0.36852  1.0000
  Hf  Hf4       1.0  0.19761  0.61189  0.87178  1.0000
  Hf  Hf5       1.0  0.45116  0.11827  0.35944  1.0000
  Hf  Hf6       1.0  0.44560  0.10498  0.87034  1.0000
  Hf  Hf7       1.0  0.44669  0.60642  0.37418  1.0000
  Hf  Hf8       1.0  0.44715  0.60426  0.87440  1.0000
  Hf  Hf9       1.0  0.69400  0.10128  0.38897  1.0000
  Hf  Hf10      1.0  0.70197  0.09802  0.86879  1.0000
  Hf  Hf11      1.0  0.69276  0.60667  0.38849  1.0000
  Hf  Hf12      1.0  0.69682  0.59886  0.87949  1.0000
  Hf  Hf13      1.0  0.94935  0.10855  0.37151  1.0000
  Hf  Hf14      1.0  0.94598  0.10872  0.87299  1.0000
  Hf  Hf15      1.0  0.94283  0.60338  0.38492  1.0000
  Hf  Hf16      1.0  0.94698  0.60685  0.87594  1.0000
  Hf  Hf17      1.0  0.05053  0.39326  0.13276  1.0000
  Hf  Hf18      1.0  0.05314  0.39750  0.62172  1.0000
  Hf  Hf19      1.0  0.05323  0.89035  0.12023  1.0000
  Hf  Hf20      1.0  0.05098  0.89111  0.63450  1.0000
  Hf  Hf21      1.0  0.30459  0.39717  0.11955  1.0000
  Hf  Hf22      1.0  0.29912  0.39921  0.63353  1.0000
  Hf  Hf23      1.0  0.30200  0.88911  0.12907  1.0000
  Hf  Hf24      1.0  0.30512  0.90104  0.61259  1.0000
  Hf  Hf25      1.0  0.55348  0.38796  0.12711  1.0000
  Hf  Hf26      1.0  0.55242  0.39444  0.62335  1.0000
  Hf  Hf27      1.0  0.55398  0.88703  0.11970  1.0000
  Hf  Hf28      1.0  0.55283  0.89385  0.62665  1.0000
  Hf  Hf29      1.0  0.80070  0.39916  0.11443  1.0000
  Hf  Hf30      1.0  0.80590  0.38562  0.62243  1.0000
  Hf  Hf31      1.0  0.80393  0.88978  0.13049  1.0000
  Hf  Hf32      1.0  0.80783  0.89047  0.61786  1.0000
  Hf  Hf33      1.0  0.05783  0.18774  0.40954  1.0000
  Hf  Hf34      1.0  0.05385  0.18433  0.91645  1.0000
  Hf  Hf35      1.0  0.05448  0.68750  0.41491  1.0000
  Hf  Hf36      1.0  0.05554  0.68517  0.91650  1.0000
  Hf  Hf37      1.0  0.30596  0.18878  0.41498  1.0000
  Hf  Hf38      1.0  0.30559  0.18683  0.91806  1.0000
  Hf  Hf39      1.0  0.30356  0.68906  0.42416  1.0000
  Hf  Hf40      1.0  0.30668  0.68283  0.91191  1.0000
  Hf  Hf41      1.0  0.55556  0.17787  0.42154  1.0000
  Hf  Hf42      1.0  0.55456  0.17984  0.91691  1.0000
  Hf  Hf43      1.0  0.55417  0.67618  0.41435  1.0000
  Hf  Hf44      1.0  0.55629  0.67418  0.91262  1.0000
  Hf  Hf45      1.0  0.80699  0.18808  0.41346  1.0000
  Hf  Hf46      1.0  0.80521  0.17317  0.92467  1.0000
  Hf  Hf47      1.0  0.80446  0.68424  0.42448  1.0000
  Hf  Hf48      1.0  0.80489  0.69630  0.91669  1.0000
  Hf  Hf49      1.0  0.15958  0.38952  0.32379  1.0000
  Hf  Hf50      1.0  0.15627  0.39096  0.83384  1.0000
  Hf  Hf51      1.0  0.15919  0.88356  0.33642  1.0000
  Hf  Hf52      1.0  0.15765  0.88925  0.83248  1.0000
  Hf  Hf53      1.0  0.41065  0.39250  0.33004  1.0000
  Hf  Hf54      1.0  0.40963  0.38903  0.82459  1.0000
  Hf  Hf55      1.0  0.40917  0.88316  0.33461  1.0000
  Hf  Hf56      1.0  0.40446  0.88595  0.82975  1.0000
  Hf  Hf57      1.0  0.65985  0.38737  0.33702  1.0000
  Hf  Hf58      1.0  0.66719  0.38647  0.83058  1.0000
  Hf  Hf59      1.0  0.65669  0.88392  0.34026  1.0000
  Hf  Hf60      1.0  0.66190  0.88292  0.83325  1.0000
  Hf  Hf61      1.0  0.90896  0.38170  0.33695  1.0000
  Hf  Hf62      1.0  0.91018  0.38831  0.83329  1.0000
  Hf  Hf63      1.0  0.90996  0.88457  0.34033  1.0000
  Hf  Hf64      1.0  0.90949  0.89035  0.83518  1.0000
  Hf  Hf65      1.0  0.19061  0.31852  0.08394  1.0000
  Hf  Hf66      1.0  0.19295  0.31560  0.58526  1.0000
  Hf  Hf67      1.0  0.19263  0.80974  0.08540  1.0000
  Hf  Hf68      1.0  0.19561  0.82670  0.58153  1.0000
  Hf  Hf69      1.0  0.44785  0.31900  0.07482  1.0000
  Hf  Hf70      1.0  0.44469  0.31983  0.57600  1.0000
  Hf  Hf71      1.0  0.44367  0.81288  0.08171  1.0000
  Hf  Hf72      1.0  0.44768  0.83400  0.56794  1.0000
  Hf  Hf73      1.0  0.69281  0.30779  0.09460  1.0000
  Hf  Hf74      1.0  0.69372  0.30831  0.59280  1.0000
  Hf  Hf75      1.0  0.69076  0.80640  0.09918  1.0000
  Hf  Hf76      1.0  0.69252  0.81175  0.58956  1.0000
  Hf  Hf77      1.0  0.94260  0.31928  0.08703  1.0000
  Hf  Hf78      1.0  0.94856  0.31938  0.57913  1.0000
  Hf  Hf79      1.0  0.94067  0.80870  0.09904  1.0000
  Hf  Hf80      1.0  0.94616  0.82368  0.58768  1.0000
  Hf  Hf81      1.0  0.09418  0.11109  0.15491  1.0000
  Hf  Hf82      1.0  0.08897  0.11632  0.66880  1.0000
  Hf  Hf83      1.0  0.08635  0.61161  0.17253  1.0000
  Hf  Hf84      1.0  0.09191  0.61662  0.66097  1.0000
  Hf  Hf85      1.0  0.34265  0.11416  0.16009  1.0000
  Hf  Hf86      1.0  0.34240  0.12038  0.65757  1.0000
  Hf  Hf87      1.0  0.34152  0.61436  0.16449  1.0000
  Hf  Hf88      1.0  0.34142  0.61830  0.66066  1.0000
  Hf  Hf89      1.0  0.59425  0.10966  0.16198  1.0000
  Hf  Hf90      1.0  0.59029  0.11299  0.67257  1.0000
  Hf  Hf91      1.0  0.59334  0.61315  0.16202  1.0000
  Hf  Hf92      1.0  0.59043  0.60370  0.67215  1.0000
  Hf  Hf93      1.0  0.83771  0.11103  0.17604  1.0000
  Hf  Hf94      1.0  0.84982  0.11695  0.65898  1.0000
  Hf  Hf95      1.0  0.84052  0.60896  0.17256  1.0000
  Hf  Hf96      1.0  0.84304  0.60761  0.67218  1.0000
  F   F1        1.0  0.08059  0.12804  0.29583  1.0000
  F   F2        1.0  0.07993  0.15020  0.79204  1.0000
  F   F3        1.0  0.07144  0.61666  0.31180  1.0000
  F   F4        1.0  0.07426  0.63420  0.79987  1.0000
  F   F5        1.0  0.32664  0.12281  0.30487  1.0000
  F   F6        1.0  0.33537  0.14578  0.78539  1.0000
  F   F7        1.0  0.33015  0.63992  0.30186  1.0000
  F   F8        1.0  0.33025  0.63936  0.78762  1.0000
  F   F9        1.0  0.57721  0.11905  0.31323  1.0000
  F   F10       1.0  0.57733  0.11374  0.81447  1.0000
  F   F11       1.0  0.58167  0.61692  0.30765  1.0000
  F   F12       1.0  0.58683  0.61898  0.80130  1.0000
  F   F13       1.0  0.83202  0.13404  0.30503  1.0000
  F   F14       1.0  0.83359  0.12940  0.80542  1.0000
  F   F15       1.0  0.82047  0.62977  0.31008  1.0000
  F   F16       1.0  0.82722  0.62580  0.80304  1.0000
  F   F17       1.0  0.18244  0.32926  0.45412  1.0000
  F   F18       1.0  0.18052  0.34109  0.95076  1.0000
  F   F19       1.0  0.19053  0.84891  0.44429  1.0000
  F   F20       1.0  0.18534  0.83758  0.94923  1.0000
  F   F21       1.0  0.44097  0.33724  0.43576  1.0000
  F   F22       1.0  0.44754  0.34224  0.92461  1.0000
  F   F23       1.0  0.44340  0.85212  0.43603  1.0000
  F   F24       1.0  0.43289  0.84331  0.95370  1.0000
  F   F25       1.0  0.68861  0.33374  0.44615  1.0000
  F   F26       1.0  0.69200  0.34572  0.94987  1.0000
  F   F27       1.0  0.68705  0.84653  0.44612  1.0000
  F   F28       1.0  0.68134  0.81730  0.95618  1.0000
  F   F29       1.0  0.94028  0.33916  0.43754  1.0000
  F   F30       1.0  0.93850  0.33830  0.94524  1.0000
  F   F31       1.0  0.93871  0.85655  0.43912  1.0000
  F   F32       1.0  0.93282  0.83896  0.95754  1.0000
  F   F33       1.0  0.17990  0.37648  0.18700  1.0000
  F   F34       1.0  0.16360  0.37078  0.69983  1.0000
  F   F35       1.0  0.16867  0.85715  0.19822  1.0000
  F   F36       1.0  0.17673  0.89248  0.68011  1.0000
  F   F37       1.0  0.41871  0.38549  0.19040  1.0000
  F   F38       1.0  0.41871  0.37315  0.69301  1.0000
  F   F39       1.0  0.42539  0.87606  0.18899  1.0000
  F   F40       1.0  0.41916  0.89709  0.68219  1.0000
  F   F41       1.0  0.67145  0.36274  0.19682  1.0000
  F   F42       1.0  0.67436  0.37236  0.69916  1.0000
  F   F43       1.0  0.66495  0.86510  0.20301  1.0000
  F   F44       1.0  0.66615  0.85837  0.71069  1.0000
  F   F45       1.0  0.91854  0.38523  0.19641  1.0000
  F   F46       1.0  0.92474  0.38770  0.68827  1.0000
  F   F47       1.0  0.91990  0.86070  0.20754  1.0000
  F   F48       1.0  0.92373  0.89711  0.68667  1.0000
  F   F49       1.0  0.06680  0.16289  0.04662  1.0000
  F   F50       1.0  0.06596  0.15231  0.55235  1.0000
  F   F51       1.0  0.06331  0.66307  0.05820  1.0000
  F   F52       1.0  0.06837  0.66291  0.54305  1.0000
  F   F53       1.0  0.30934  0.15928  0.05698  1.0000
  F   F54       1.0  0.31127  0.15742  0.55605  1.0000
  F   F55       1.0  0.32060  0.66249  0.04483  1.0000
  F   F56       1.0  0.31227  0.66861  0.55263  1.0000
  F   F57       1.0  0.56332  0.15728  0.05564  1.0000
  F   F58       1.0  0.56405  0.16861  0.55012  1.0000
  F   F59       1.0  0.55727  0.65142  0.05877  1.0000
  F   F60       1.0  0.56374  0.66002  0.55463  1.0000
  F   F61       1.0  0.80466  0.15220  0.07281  1.0000
  F   F62       1.0  0.81989  0.15410  0.55130  1.0000
  F   F63       1.0  0.81604  0.65673  0.05077  1.0000
  F   F64       1.0  0.81893  0.65241  0.55574  1.0000
  F   F65       1.0  0.20355  0.20057  0.20725  1.0000
  F   F66       1.0  0.21076  0.19480  0.71565  1.0000
  F   F67       1.0  0.20454  0.68958  0.20801  1.0000
  F   F68       1.0  0.20688  0.70749  0.70337  1.0000
  F   F69       1.0  0.45690  0.20001  0.21059  1.0000
  F   F70       1.0  0.45636  0.21022  0.69394  1.0000
  F   F71       1.0  0.45001  0.70121  0.21026  1.0000
  F   F72       1.0  0.45211  0.71714  0.69651  1.0000
  F   F73       1.0  0.71011  0.18782  0.21310  1.0000
  F   F74       1.0  0.70575  0.18432  0.72300  1.0000
  F   F75       1.0  0.69938  0.69506  0.22350  1.0000
  F   F76       1.0  0.69808  0.69439  0.70767  1.0000
  F   F77       1.0  0.94938  0.21212  0.21342  1.0000
  F   F78       1.0  0.95151  0.21285  0.71446  1.0000
  F   F79       1.0  0.95505  0.69573  0.22006  1.0000
  F   F80       1.0  0.95247  0.71830  0.70680  1.0000
  F   F81       1.0  0.15156  0.07971  0.03905  1.0000
  F   F82       1.0  0.14622  0.12281  0.52023  1.0000
  F   F83       1.0  0.15476  0.62056  0.00512  1.0000
  F   F84       1.0  0.14640  0.59293  0.53766  1.0000
  F   F85       1.0  0.39713  0.09284  0.03141  1.0000
  F   F86       1.0  0.39789  0.11686  0.52230  1.0000
  F   F87       1.0  0.40341  0.57905  0.03054  1.0000
  F   F88       1.0  0.39560  0.58970  0.53942  1.0000
  F   F89       1.0  0.65263  0.07670  0.05699  1.0000
  F   F90       1.0  0.64592  0.10646  0.53681  1.0000
  F   F91       1.0  0.65100  0.59350  0.04020  1.0000
  F   F92       1.0  0.65322  0.57666  0.54299  1.0000
  F   F93       1.0  0.89572  0.08272  0.04923  1.0000
  F   F94       1.0  0.90561  0.10539  0.53030  1.0000
  F   F95       1.0  0.89509  0.61114  0.04131  1.0000
  F   F96       1.0  0.90132  0.57211  0.54654  1.0000
  F   F97       1.0  0.15404  0.19180  0.10056  1.0000
  F   F98       1.0  0.15127  0.20974  0.62747  1.0000
  F   F99       1.0  0.14636  0.69957  0.12386  1.0000
  F   F100      1.0  0.14526  0.70239  0.62072  1.0000
  F   F101      1.0  0.40009  0.19883  0.12293  1.0000
  F   F102      1.0  0.40536  0.19767  0.61721  1.0000
  F   F103      1.0  0.40354  0.69769  0.11177  1.0000
  F   F104      1.0  0.39817  0.70357  0.60012  1.0000
  F   F105      1.0  0.65853  0.19114  0.11727  1.0000
  F   F106      1.0  0.65203  0.18189  0.63553  1.0000
  F   F107      1.0  0.65231  0.68490  0.14017  1.0000
  F   F108      1.0  0.64274  0.70531  0.61572  1.0000
  F   F109      1.0  0.89660  0.19758  0.12198  1.0000
  F   F110      1.0  0.91309  0.18836  0.61572  1.0000
  F   F111      1.0  0.90169  0.69346  0.13825  1.0000
  F   F112      1.0  0.89959  0.70155  0.61774  1.0000
  F   F113      1.0  0.09916  0.31742  0.35662  1.0000
  F   F114      1.0  0.09538  0.30262  0.87187  1.0000
  F   F115      1.0  0.09830  0.80184  0.36649  1.0000
  F   F116      1.0  0.09969  0.80691  0.87829  1.0000
  F   F117      1.0  0.35229  0.30145  0.36274  1.0000
  F   F118      1.0  0.34940  0.29955  0.87895  1.0000
  F   F119      1.0  0.34516  0.81011  0.37068  1.0000
  F   F120      1.0  0.34744  0.81269  0.86636  1.0000
  F   F121      1.0  0.60329  0.29551  0.38499  1.0000
  F   F122      1.0  0.59261  0.29826  0.88576  1.0000
  F   F123      1.0  0.59192  0.81141  0.36876  1.0000
  F   F124      1.0  0.60148  0.79047  0.89011  1.0000
  F   F125      1.0  0.84762  0.30957  0.37926  1.0000
  F   F126      1.0  0.84345  0.29749  0.88811  1.0000
  F   F127      1.0  0.84762  0.79114  0.39097  1.0000
  F   F128      1.0  0.84952  0.81254  0.87108  1.0000
  F   F129      1.0  0.06009  0.25066  0.15663  1.0000
  F   F130      1.0  0.06669  0.26322  0.62509  1.0000
  F   F131      1.0  0.05595  0.75440  0.15649  1.0000
  F   F132      1.0  0.05208  0.74931  0.65942  1.0000
  F   F133      1.0  0.31281  0.26001  0.13766  1.0000
  F   F134      1.0  0.31334  0.25651  0.62782  1.0000
  F   F135      1.0  0.31630  0.75361  0.14046  1.0000
  F   F136      1.0  0.31164  0.76369  0.63584  1.0000
  F   F137      1.0  0.56921  0.24825  0.14526  1.0000
  F   F138      1.0  0.55754  0.24987  0.64969  1.0000
  F   F139      1.0  0.56894  0.75108  0.12542  1.0000
  F   F140      1.0  0.55695  0.74632  0.67345  1.0000
  F   F141      1.0  0.80617  0.24285  0.17280  1.0000
  F   F142      1.0  0.82548  0.24620  0.62696  1.0000
  F   F143      1.0  0.81860  0.75191  0.13162  1.0000
  F   F144      1.0  0.81704  0.75563  0.63139  1.0000
  F   F145      1.0  0.11947  0.34512  0.14241  1.0000
  F   F146      1.0  0.12372  0.38360  0.60165  1.0000
  F   F147      1.0  0.12288  0.86670  0.10418  1.0000
  F   F148      1.0  0.12318  0.86826  0.61756  1.0000
  F   F149      1.0  0.37873  0.35538  0.11364  1.0000
  F   F150      1.0  0.36892  0.36303  0.61854  1.0000
  F   F151      1.0  0.37256  0.85067  0.12337  1.0000
  F   F152      1.0  0.37564  0.85935  0.61540  1.0000
  F   F153      1.0  0.62529  0.36749  0.11134  1.0000
  F   F154      1.0  0.62197  0.35353  0.62857  1.0000
  F   F155      1.0  0.61662  0.85494  0.12365  1.0000
  F   F156      1.0  0.61949  0.86910  0.61841  1.0000
  F   F157      1.0  0.87095  0.35607  0.11840  1.0000
  F   F158      1.0  0.88060  0.34887  0.62372  1.0000
  F   F159      1.0  0.87166  0.86294  0.12851  1.0000
  F   F160      1.0  0.87823  0.86340  0.60532  1.0000
  F   F161      1.0  0.19348  0.25879  0.33849  1.0000
  F   F162      1.0  0.18155  0.25413  0.84875  1.0000
  F   F163      1.0  0.18636  0.74350  0.36189  1.0000
  F   F164      1.0  0.19334  0.76036  0.84088  1.0000
  F   F165      1.0  0.44172  0.26194  0.34034  1.0000
  F   F166      1.0  0.43823  0.25152  0.84208  1.0000
  F   F167      1.0  0.43848  0.74833  0.36065  1.0000
  F   F168      1.0  0.43024  0.74321  0.84956  1.0000
  F   F169      1.0  0.69469  0.25320  0.34459  1.0000
  F   F170      1.0  0.68727  0.25228  0.86276  1.0000
  F   F171      1.0  0.67964  0.74381  0.37583  1.0000
  F   F172      1.0  0.68870  0.74385  0.84289  1.0000
  F   F173      1.0  0.94512  0.25260  0.35058  1.0000
  F   F174      1.0  0.92759  0.24985  0.86647  1.0000
  F   F175      1.0  0.92440  0.73632  0.38404  1.0000
  F   F176      1.0  0.93373  0.75492  0.84933  1.0000
  F   F177      1.0  0.12650  0.15465  0.37224  1.0000
  F   F178      1.0  0.12444  0.12409  0.89655  1.0000
  F   F179      1.0  0.12252  0.62125  0.39087  1.0000
  F   F180      1.0  0.12759  0.64682  0.86626  1.0000
  F   F181      1.0  0.37449  0.14195  0.38191  1.0000
  F   F182      1.0  0.37754  0.14539  0.88025  1.0000
  F   F183      1.0  0.37375  0.63127  0.39754  1.0000
  F   F184      1.0  0.37198  0.61788  0.89244  1.0000
  F   F185      1.0  0.62431  0.11578  0.40543  1.0000
  F   F186      1.0  0.63094  0.12564  0.90861  1.0000
  F   F187      1.0  0.62585  0.63489  0.39187  1.0000
  F   F188      1.0  0.62484  0.62022  0.90137  1.0000
  F   F189      1.0  0.88178  0.13641  0.38155  1.0000
  F   F190      1.0  0.87444  0.11711  0.90648  1.0000
  F   F191      1.0  0.86983  0.60647  0.41585  1.0000
  F   F192      1.0  0.88166  0.63280  0.89072  1.0000
  F   F193      1.0  0.00505  0.36929  0.07903  1.0000
  F   F194      1.0  0.00445  0.37231  0.57110  1.0000
  F   F195      1.0  0.00266  0.86075  0.08371  1.0000
  F   F196      1.0  0.00732  0.88984  0.56222  1.0000
  F   F197      1.0  0.25592  0.38210  0.05589  1.0000
  F   F198      1.0  0.25399  0.36303  0.59404  1.0000
  F   F199      1.0  0.25881  0.86078  0.08119  1.0000
  F   F200      1.0  0.26037  0.86999  0.56050  1.0000
  F   F201      1.0  0.51084  0.34275  0.07647  1.0000
  F   F202      1.0  0.50673  0.36878  0.57090  1.0000
  F   F203      1.0  0.51252  0.85833  0.06707  1.0000
  F   F204      1.0  0.50604  0.86815  0.57583  1.0000
  F   F205      1.0  0.75927  0.35460  0.07397  1.0000
  F   F206      1.0  0.75829  0.34683  0.59180  1.0000
  F   F207      1.0  0.75040  0.86816  0.08805  1.0000
  F   F208      1.0  0.75489  0.85012  0.57065  1.0000
  F   F209      1.0  0.07613  0.49297  0.16039  1.0000
  F   F210      1.0  0.06887  0.48384  0.68333  1.0000
  F   F211      1.0  0.06865  0.98854  0.17721  1.0000
  F   F212      1.0  0.07168  0.99011  0.66874  1.0000
  F   F213      1.0  0.32506  0.48656  0.16423  1.0000
  F   F214      1.0  0.31653  0.48447  0.68721  1.0000
  F   F215      1.0  0.31978  0.98202  0.17699  1.0000
  F   F216      1.0  0.32434  0.99472  0.64892  1.0000
  F   F217      1.0  0.56947  0.48397  0.16934  1.0000
  F   F218      1.0  0.56999  0.47476  0.68270  1.0000
  F   F219      1.0  0.56914  0.98567  0.17052  1.0000
  F   F220      1.0  0.56688  0.98650  0.67885  1.0000
  F   F221      1.0  0.81505  0.48243  0.17125  1.0000
  F   F222      1.0  0.81902  0.48406  0.68177  1.0000
  F   F223      1.0  0.81669  0.98364  0.17080  1.0000
  F   F224      1.0  0.82741  0.98910  0.65061  1.0000
  F   F225      1.0  0.24340  0.15121  0.42467  1.0000
  F   F226      1.0  0.24209  0.12682  0.92915  1.0000
  F   F227      1.0  0.24529  0.63705  0.43263  1.0000
  F   F228      1.0  0.24326  0.62110  0.92856  1.0000
  F   F229      1.0  0.49773  0.14402  0.40964  1.0000
  F   F230      1.0  0.48822  0.11788  0.93366  1.0000
  F   F231      1.0  0.49073  0.62131  0.44946  1.0000
  F   F232      1.0  0.49484  0.64338  0.91291  1.0000
  F   F233      1.0  0.74798  0.14335  0.42098  1.0000
  F   F234      1.0  0.74221  0.13629  0.92804  1.0000
  F   F235      1.0  0.74138  0.62967  0.42964  1.0000
  F   F236      1.0  0.74355  0.65845  0.91184  1.0000
  F   F237      1.0  0.99741  0.15030  0.41716  1.0000
  F   F238      1.0  0.99150  0.13438  0.94266  1.0000
  F   F239      1.0  0.99068  0.65821  0.41844  1.0000
  F   F240      1.0  0.98923  0.63901  0.93511  1.0000
  F   F241      1.0  0.17441  0.01230  0.33979  1.0000
  F   F242      1.0  0.18460  0.01088  0.82626  1.0000
  F   F243      1.0  0.18257  0.50944  0.31438  1.0000
  F   F244      1.0  0.18782  0.52193  0.81649  1.0000
  F   F245      1.0  0.43019  0.01341  0.33123  1.0000
  F   F246      1.0  0.42810  0.01976  0.81635  1.0000
  F   F247      1.0  0.42694  0.52310  0.32474  1.0000
  F   F248      1.0  0.43723  0.52156  0.82202  1.0000
  F   F249      1.0  0.67771  0.00865  0.34016  1.0000
  F   F250      1.0  0.69126  0.01138  0.80908  1.0000
  F   F251      1.0  0.67504  0.50752  0.34908  1.0000
  F   F252      1.0  0.68933  0.51672  0.81706  1.0000
  F   F253      1.0  0.93847  0.01678  0.30690  1.0000
  F   F254      1.0  0.93125  0.02605  0.81898  1.0000
  F   F255      1.0  0.93113  0.51168  0.33422  1.0000
  F   F256      1.0  0.92759  0.50351  0.84106  1.0000
  F   F257      1.0  0.99840  0.26233  0.99885  1.0000
  F   F258      1.0  0.00677  0.26561  0.48933  1.0000
  F   F259      1.0  0.00091  0.75347  0.99725  1.0000
  F   F260      1.0  0.99502  0.73948  0.52153  1.0000
  F   F261      1.0  0.24702  0.25238  0.98826  1.0000
  F   F262      1.0  0.25696  0.27659  0.48791  1.0000
  F   F263      1.0  0.25514  0.75309  0.99514  1.0000
  F   F264      1.0  0.24194  0.73666  0.51888  1.0000
  F   F265      1.0  0.49794  0.24106  0.99421  1.0000
  F   F266      1.0  0.50361  0.26486  0.48327  1.0000
  F   F267      1.0  0.50044  0.74664  0.99739  1.0000
  F   F268      1.0  0.49810  0.75590  0.49341  1.0000
  F   F269      1.0  0.75266  0.25085  0.99090  1.0000
  F   F270      1.0  0.75279  0.25573  0.50345  1.0000
  F   F271      1.0  0.75176  0.76546  0.00086  1.0000
  F   F272      1.0  0.74469  0.72612  0.52176  1.0000
  F   F273      1.0  0.12868  0.99244  0.25409  1.0000
  F   F274      1.0  0.11474  0.00065  0.76961  1.0000
  F   F275      1.0  0.13445  0.51372  0.22325  1.0000
  F   F276      1.0  0.12352  0.50768  0.75495  1.0000
  F   F277      1.0  0.37862  0.99367  0.24509  1.0000
  F   F278      1.0  0.35908  0.99657  0.76508  1.0000
  F   F279      1.0  0.36740  0.49796  0.25312  1.0000
  F   F280      1.0  0.38181  0.50963  0.74091  1.0000
  F   F281      1.0  0.63000  0.99388  0.24638  1.0000
  F   F282      1.0  0.62094  0.99782  0.75219  1.0000
  F   F283      1.0  0.62746  0.48866  0.23742  1.0000
  F   F284      1.0  0.62519  0.49217  0.75442  1.0000
  F   F285      1.0  0.87551  0.99868  0.25301  1.0000
  F   F286      1.0  0.87295  0.00004  0.75980  1.0000
  F   F287      1.0  0.87023  0.49911  0.26536  1.0000
  F   F288      1.0  0.87870  0.50828  0.74667  1.0000
  F   F289      1.0  0.04242  0.03482  0.02036  1.0000
  F   F290      1.0  0.03948  0.03560  0.52740  1.0000
  F   F291      1.0  0.04601  0.53447  0.01672  1.0000
  F   F292      1.0  0.04724  0.53441  0.50989  1.0000
  F   F293      1.0  0.29732  0.03548  0.01860  1.0000
  F   F294      1.0  0.29252  0.04113  0.52026  1.0000
  F   F295      1.0  0.29029  0.53793  0.02396  1.0000
  F   F296      1.0  0.29256  0.54151  0.52742  1.0000
  F   F297      1.0  0.54351  0.03407  0.01746  1.0000
  F   F298      1.0  0.53825  0.03601  0.53957  1.0000
  F   F299      1.0  0.53994  0.51521  0.02206  1.0000
  F   F300      1.0  0.54431  0.52911  0.51942  1.0000
  F   F301      1.0  0.78776  0.02495  0.02508  1.0000
  F   F302      1.0  0.79190  0.03019  0.51960  1.0000
  F   F303      1.0  0.78960  0.54708  0.00555  1.0000
  F   F304      1.0  0.79029  0.52251  0.53079  1.0000
  F   F305      1.0  0.23646  0.42527  0.21962  1.0000
  F   F306      1.0  0.22838  0.43042  0.72188  1.0000
  F   F307      1.0  0.22878  0.92103  0.21649  1.0000
  F   F308      1.0  0.24092  0.92262  0.72029  1.0000
  F   F309      1.0  0.48430  0.40896  0.22829  1.0000
  F   F310      1.0  0.48226  0.42933  0.71337  1.0000
  F   F311      1.0  0.48642  0.91793  0.21636  1.0000
  F   F312      1.0  0.48633  0.88676  0.74729  1.0000
  F   F313      1.0  0.72923  0.43279  0.21804  1.0000
  F   F314      1.0  0.73900  0.41914  0.72290  1.0000
  F   F315      1.0  0.72822  0.90321  0.24139  1.0000
  F   F316      1.0  0.74006  0.90299  0.72412  1.0000
  F   F317      1.0  0.98311  0.42964  0.22684  1.0000
  F   F318      1.0  0.98712  0.41886  0.71975  1.0000
  F   F319      1.0  0.98112  0.90834  0.22605  1.0000
  F   F320      1.0  0.98799  0.93155  0.72457  1.0000
  F   F321      1.0  0.20392  0.47069  0.46735  1.0000
  F   F322      1.0  0.18772  0.46455  0.99818  1.0000
  F   F323      1.0  0.20759  0.98413  0.47726  1.0000
  F   F324      1.0  0.20490  0.95816  0.97996  1.0000
  F   F325      1.0  0.44495  0.46732  0.47899  1.0000
  F   F326      1.0  0.45968  0.46727  0.97154  1.0000
  F   F327      1.0  0.44848  0.99134  0.48599  1.0000
  F   F328      1.0  0.45182  0.96617  0.98358  1.0000
  F   F329      1.0  0.71525  0.45094  0.47363  1.0000
  F   F330      1.0  0.70650  0.46623  0.98447  1.0000
  F   F331      1.0  0.69866  0.96924  0.50359  1.0000
  F   F332      1.0  0.70161  0.96084  0.97926  1.0000
  F   F333      1.0  0.95608  0.47014  0.47668  1.0000
  F   F334      1.0  0.94767  0.47183  0.98629  1.0000
  F   F335      1.0  0.96895  0.97991  0.45209  1.0000
  F   F336      1.0  0.95759  0.97419  0.96962  1.0000
  F   F337      1.0  0.01393  0.10272  0.25969  1.0000
  F   F338      1.0  0.01523  0.08590  0.77617  1.0000
  F   F339      1.0  0.01142  0.57964  0.27306  1.0000
  F   F340      1.0  0.00979  0.57763  0.77284  1.0000
  F   F341      1.0  0.26601  0.07980  0.28319  1.0000
  F   F342      1.0  0.26868  0.07639  0.77880  1.0000
  F   F343      1.0  0.26682  0.58580  0.26983  1.0000
  F   F344      1.0  0.26219  0.59504  0.76740  1.0000
  F   F345      1.0  0.51769  0.08182  0.27440  1.0000
  F   F346      1.0  0.51297  0.09113  0.76744  1.0000
  F   F347      1.0  0.51628  0.58433  0.27585  1.0000
  F   F348      1.0  0.51516  0.57812  0.78427  1.0000
  F   F349      1.0  0.76685  0.06299  0.28816  1.0000
  F   F350      1.0  0.76932  0.07693  0.77965  1.0000
  F   F351      1.0  0.76132  0.59062  0.27523  1.0000
  F   F352      1.0  0.76267  0.59496  0.76432  1.0000
  F   F353      1.0  0.09917  0.41792  0.45113  1.0000
  F   F354      1.0  0.10297  0.40850  0.96761  1.0000
  F   F355      1.0  0.10544  0.88924  0.46356  1.0000
  F   F356      1.0  0.10020  0.90280  0.96518  1.0000
  F   F357      1.0  0.34909  0.40277  0.45622  1.0000
  F   F358      1.0  0.35171  0.40815  0.95784  1.0000
  F   F359      1.0  0.35446  0.91775  0.45117  1.0000
  F   F360      1.0  0.35180  0.88769  0.96740  1.0000
  F   F361      1.0  0.60101  0.40417  0.46871  1.0000
  F   F362      1.0  0.60968  0.39428  0.96618  1.0000
  F   F363      1.0  0.59714  0.89422  0.47600  1.0000
  F   F364      1.0  0.60158  0.90931  0.96364  1.0000
  F   F365      1.0  0.85245  0.39453  0.46641  1.0000
  F   F366      1.0  0.84737  0.40236  0.96462  1.0000
  F   F367      1.0  0.85109  0.91758  0.45460  1.0000
  F   F368      1.0  0.84786  0.90998  0.97350  1.0000
  F   F369      1.0  0.04344  0.31369  0.29520  1.0000
  F   F370      1.0  0.04753  0.29808  0.78659  1.0000
  F   F371      1.0  0.04354  0.79970  0.29374  1.0000
  F   F372      1.0  0.04442  0.81005  0.79216  1.0000
  F   F373      1.0  0.29554  0.30132  0.28239  1.0000
  F   F374      1.0  0.29367  0.29994  0.78886  1.0000
  F   F375      1.0  0.29088  0.80224  0.28538  1.0000
  F   F376      1.0  0.29827  0.79618  0.77956  1.0000
  F   F377      1.0  0.55312  0.29829  0.28865  1.0000
  F   F378      1.0  0.54422  0.29186  0.78712  1.0000
  F   F379      1.0  0.54149  0.77861  0.29050  1.0000
  F   F380      1.0  0.55029  0.80230  0.81039  1.0000
  F   F381      1.0  0.79009  0.31300  0.30405  1.0000
  F   F382      1.0  0.79932  0.29457  0.78429  1.0000
  F   F383      1.0  0.79114  0.80776  0.29628  1.0000
  F   F384      1.0  0.80401  0.79608  0.77927  1.0000
