data_image0
_chemical_formula_structural       Hf96F384
_chemical_formula_sum              "Hf96 F384"
_cell_length_a       31.0079
_cell_length_b       15.5023
_cell_length_c       15.4962
_cell_angle_alpha    63.342
_cell_angle_beta     63.342
_cell_angle_gamma    80.1625

_space_group_name_H-M_alt    "P 1"
_space_group_IT_number       1

loop_
  _space_group_symop_operation_xyz
  'x, y, z'

loop_
  _atom_site_type_symbol
  _atom_site_label
  _atom_site_symmetry_multiplicity
  _atom_site_fract_x
  _atom_site_fract_y
  _atom_site_fract_z
  _atom_site_occupancy
  Hf  Hf1       1.0  0.19693  0.09872  0.38008  1.0000
  Hf  Hf2       1.0  0.19369  0.10401  0.89018  1.0000
  Hf  Hf3       1.0  0.19655  0.60677  0.36753  1.0000
  Hf  Hf4       1.0  0.19531  0.61112  0.87512  1.0000
  Hf  Hf5       1.0  0.44820  0.10533  0.36668  1.0000
  Hf  Hf6       1.0  0.44686  0.10723  0.87772  1.0000
  Hf  Hf7       1.0  0.44323  0.59520  0.38803  1.0000
  Hf  Hf8       1.0  0.44497  0.61010  0.87982  1.0000
  Hf  Hf9       1.0  0.69813  0.10722  0.37314  1.0000
  Hf  Hf10      1.0  0.70077  0.11299  0.86672  1.0000
  Hf  Hf11      1.0  0.69917  0.60955  0.35841  1.0000
  Hf  Hf12      1.0  0.69449  0.60849  0.87316  1.0000
  Hf  Hf13      1.0  0.94712  0.10890  0.37594  1.0000
  Hf  Hf14      1.0  0.94748  0.11269  0.86947  1.0000
  Hf  Hf15      1.0  0.94609  0.60922  0.37359  1.0000
  Hf  Hf16      1.0  0.94769  0.61189  0.86657  1.0000
  Hf  Hf17      1.0  0.05470  0.39356  0.12321  1.0000
  Hf  Hf18      1.0  0.05234  0.39001  0.62842  1.0000
  Hf  Hf19      1.0  0.05328  0.89539  0.12165  1.0000
  Hf  Hf20      1.0  0.05492  0.89153  0.62564  1.0000
  Hf  Hf21      1.0  0.30573  0.38985  0.13133  1.0000
  Hf  Hf22      1.0  0.30276  0.39630  0.62091  1.0000
  Hf  Hf23      1.0  0.30327  0.89764  0.12663  1.0000
  Hf  Hf24      1.0  0.30061  0.88407  0.63421  1.0000
  Hf  Hf25      1.0  0.55397  0.39942  0.11489  1.0000
  Hf  Hf26      1.0  0.54995  0.38705  0.64264  1.0000
  Hf  Hf27      1.0  0.55224  0.88568  0.12709  1.0000
  Hf  Hf28      1.0  0.55400  0.90095  0.62417  1.0000
  Hf  Hf29      1.0  0.80009  0.40015  0.12595  1.0000
  Hf  Hf30      1.0  0.80477  0.38440  0.62592  1.0000
  Hf  Hf31      1.0  0.80329  0.89552  0.12345  1.0000
  Hf  Hf32      1.0  0.80649  0.89840  0.61206  1.0000
  Hf  Hf33      1.0  0.05517  0.17586  0.42727  1.0000
  Hf  Hf34      1.0  0.05616  0.18352  0.92369  1.0000
  Hf  Hf35      1.0  0.05249  0.68015  0.42046  1.0000
  Hf  Hf36      1.0  0.05263  0.67100  0.92463  1.0000
  Hf  Hf37      1.0  0.30544  0.17679  0.42410  1.0000
  Hf  Hf38      1.0  0.30340  0.17601  0.92743  1.0000
  Hf  Hf39      1.0  0.30302  0.68259  0.41548  1.0000
  Hf  Hf40      1.0  0.30479  0.67763  0.92329  1.0000
  Hf  Hf41      1.0  0.55647  0.18289  0.40828  1.0000
  Hf  Hf42      1.0  0.55545  0.17872  0.91974  1.0000
  Hf  Hf43      1.0  0.55802  0.68294  0.41498  1.0000
  Hf  Hf44      1.0  0.55655  0.69363  0.91277  1.0000
  Hf  Hf45      1.0  0.81116  0.19082  0.40381  1.0000
  Hf  Hf46      1.0  0.80809  0.17892  0.91673  1.0000
  Hf  Hf47      1.0  0.80261  0.68866  0.41946  1.0000
  Hf  Hf48      1.0  0.80349  0.68857  0.91441  1.0000
  Hf  Hf49      1.0  0.15703  0.38352  0.33594  1.0000
  Hf  Hf50      1.0  0.15791  0.38331  0.83860  1.0000
  Hf  Hf51      1.0  0.15708  0.87943  0.34052  1.0000
  Hf  Hf52      1.0  0.15554  0.88189  0.84324  1.0000
  Hf  Hf53      1.0  0.40935  0.38564  0.33172  1.0000
  Hf  Hf54      1.0  0.40417  0.38659  0.83797  1.0000
  Hf  Hf55      1.0  0.40784  0.88192  0.34254  1.0000
  Hf  Hf56      1.0  0.40505  0.88489  0.83816  1.0000
  Hf  Hf57      1.0  0.65530  0.38331  0.33430  1.0000
  Hf  Hf58      1.0  0.66307  0.38670  0.82653  1.0000
  Hf  Hf59      1.0  0.65683  0.88957  0.33880  1.0000
  Hf  Hf60      1.0  0.66038  0.89640  0.82600  1.0000
  Hf  Hf61      1.0  0.91010  0.39355  0.33280  1.0000
  Hf  Hf62      1.0  0.90882  0.39377  0.82808  1.0000
  Hf  Hf63      1.0  0.91093  0.89663  0.32246  1.0000
  Hf  Hf64      1.0  0.90823  0.89134  0.83523  1.0000
  Hf  Hf65      1.0  0.19778  0.32074  0.07993  1.0000
  Hf  Hf66      1.0  0.19431  0.31903  0.58228  1.0000
  Hf  Hf67      1.0  0.19133  0.81440  0.08618  1.0000
  Hf  Hf68      1.0  0.19538  0.81559  0.58080  1.0000
  Hf  Hf69      1.0  0.44393  0.32140  0.08347  1.0000
  Hf  Hf70      1.0  0.44491  0.31133  0.58541  1.0000
  Hf  Hf71      1.0  0.44380  0.81631  0.09028  1.0000
  Hf  Hf72      1.0  0.44156  0.81937  0.58561  1.0000
  Hf  Hf73      1.0  0.69533  0.31629  0.07838  1.0000
  Hf  Hf74      1.0  0.69584  0.31903  0.57472  1.0000
  Hf  Hf75      1.0  0.69293  0.81778  0.07813  1.0000
  Hf  Hf76      1.0  0.68962  0.82268  0.58437  1.0000
  Hf  Hf77      1.0  0.94683  0.32086  0.07871  1.0000
  Hf  Hf78      1.0  0.94862  0.32628  0.57673  1.0000
  Hf  Hf79      1.0  0.94660  0.81874  0.08291  1.0000
  Hf  Hf80      1.0  0.94556  0.81816  0.58158  1.0000
  Hf  Hf81      1.0  0.08911  0.11277  0.17667  1.0000
  Hf  Hf82      1.0  0.09411  0.10488  0.67661  1.0000
  Hf  Hf83      1.0  0.08937  0.60738  0.16621  1.0000
  Hf  Hf84      1.0  0.09239  0.60912  0.66379  1.0000
  Hf  Hf85      1.0  0.34397  0.10878  0.17149  1.0000
  Hf  Hf86      1.0  0.33683  0.11147  0.67690  1.0000
  Hf  Hf87      1.0  0.34311  0.61570  0.16143  1.0000
  Hf  Hf88      1.0  0.33481  0.61285  0.66729  1.0000
  Hf  Hf89      1.0  0.59565  0.11037  0.15866  1.0000
  Hf  Hf90      1.0  0.59103  0.11755  0.66087  1.0000
  Hf  Hf91      1.0  0.58882  0.60463  0.16966  1.0000
  Hf  Hf92      1.0  0.59238  0.61408  0.66697  1.0000
  Hf  Hf93      1.0  0.84310  0.11227  0.16552  1.0000
  Hf  Hf94      1.0  0.84555  0.11301  0.66292  1.0000
  Hf  Hf95      1.0  0.84394  0.61316  0.16543  1.0000
  Hf  Hf96      1.0  0.83897  0.60944  0.67175  1.0000
  F   F1        1.0  0.07556  0.10324  0.32000  1.0000
  F   F2        1.0  0.08950  0.13028  0.80423  1.0000
  F   F3        1.0  0.07632  0.62525  0.29886  1.0000
  F   F4        1.0  0.08103  0.62731  0.80364  1.0000
  F   F5        1.0  0.32766  0.11957  0.31164  1.0000
  F   F6        1.0  0.32625  0.11600  0.81809  1.0000
  F   F7        1.0  0.33083  0.63725  0.29781  1.0000
  F   F8        1.0  0.32719  0.62544  0.79962  1.0000
  F   F9        1.0  0.58751  0.11967  0.29338  1.0000
  F   F10       1.0  0.58431  0.13359  0.80326  1.0000
  F   F11       1.0  0.57561  0.61746  0.30389  1.0000
  F   F12       1.0  0.58284  0.65025  0.79334  1.0000
  F   F13       1.0  0.83562  0.12773  0.29954  1.0000
  F   F14       1.0  0.82898  0.13286  0.80503  1.0000
  F   F15       1.0  0.82877  0.63874  0.30460  1.0000
  F   F16       1.0  0.81945  0.61507  0.81438  1.0000
  F   F17       1.0  0.18943  0.35260  0.44490  1.0000
  F   F18       1.0  0.18252  0.33729  0.95532  1.0000
  F   F19       1.0  0.17981  0.83396  0.45924  1.0000
  F   F20       1.0  0.18553  0.83511  0.95189  1.0000
  F   F21       1.0  0.43355  0.33069  0.45308  1.0000
  F   F22       1.0  0.43307  0.33715  0.95661  1.0000
  F   F23       1.0  0.43451  0.84632  0.44914  1.0000
  F   F24       1.0  0.42821  0.84174  0.95717  1.0000
  F   F25       1.0  0.69046  0.34333  0.43389  1.0000
  F   F26       1.0  0.68935  0.34749  0.93451  1.0000
  F   F27       1.0  0.68081  0.83995  0.45462  1.0000
  F   F28       1.0  0.69096  0.84257  0.93895  1.0000
  F   F29       1.0  0.94761  0.35026  0.43867  1.0000
  F   F30       1.0  0.93827  0.35128  0.93266  1.0000
  F   F31       1.0  0.93181  0.84776  0.44361  1.0000
  F   F32       1.0  0.94251  0.84884  0.94183  1.0000
  F   F33       1.0  0.17066  0.35338  0.20974  1.0000
  F   F34       1.0  0.17514  0.37455  0.69383  1.0000
  F   F35       1.0  0.15882  0.85208  0.21216  1.0000
  F   F36       1.0  0.17346  0.86821  0.70158  1.0000
  F   F37       1.0  0.42677  0.37906  0.18839  1.0000
  F   F38       1.0  0.41692  0.35362  0.70298  1.0000
  F   F39       1.0  0.42271  0.87117  0.20334  1.0000
  F   F40       1.0  0.41428  0.86855  0.70228  1.0000
  F   F41       1.0  0.67383  0.35866  0.19270  1.0000
  F   F42       1.0  0.67231  0.38501  0.68257  1.0000
  F   F43       1.0  0.66523  0.85387  0.20250  1.0000
  F   F44       1.0  0.66584  0.88507  0.69110  1.0000
  F   F45       1.0  0.92587  0.39717  0.18843  1.0000
  F   F46       1.0  0.91812  0.35578  0.70179  1.0000
  F   F47       1.0  0.92174  0.88121  0.18803  1.0000
  F   F48       1.0  0.91882  0.86838  0.69767  1.0000
  F   F49       1.0  0.06015  0.15305  0.06025  1.0000
  F   F50       1.0  0.07289  0.15455  0.55474  1.0000
  F   F51       1.0  0.05819  0.65042  0.06792  1.0000
  F   F52       1.0  0.06217  0.64819  0.55751  1.0000
  F   F53       1.0  0.31280  0.15966  0.05690  1.0000
  F   F54       1.0  0.30779  0.16353  0.55858  1.0000
  F   F55       1.0  0.30975  0.65111  0.06968  1.0000
  F   F56       1.0  0.31179  0.64401  0.55734  1.0000
  F   F57       1.0  0.56340  0.16884  0.04804  1.0000
  F   F58       1.0  0.56657  0.17203  0.53432  1.0000
  F   F59       1.0  0.56018  0.65731  0.05604  1.0000
  F   F60       1.0  0.56122  0.65331  0.55880  1.0000
  F   F61       1.0  0.81506  0.16616  0.04861  1.0000
  F   F62       1.0  0.81901  0.17013  0.53632  1.0000
  F   F63       1.0  0.81751  0.66240  0.04624  1.0000
  F   F64       1.0  0.80923  0.64986  0.55890  1.0000
  F   F65       1.0  0.21128  0.19860  0.22008  1.0000
  F   F66       1.0  0.19875  0.20563  0.71730  1.0000
  F   F67       1.0  0.20964  0.69458  0.20415  1.0000
  F   F68       1.0  0.20497  0.69507  0.72619  1.0000
  F   F69       1.0  0.46293  0.20226  0.19971  1.0000
  F   F70       1.0  0.45947  0.19138  0.71120  1.0000
  F   F71       1.0  0.45536  0.70695  0.20785  1.0000
  F   F72       1.0  0.44870  0.70072  0.70788  1.0000
  F   F73       1.0  0.70696  0.19443  0.21065  1.0000
  F   F74       1.0  0.70512  0.20606  0.70528  1.0000
  F   F75       1.0  0.70571  0.70038  0.20516  1.0000
  F   F76       1.0  0.69447  0.70695  0.70952  1.0000
  F   F77       1.0  0.95167  0.21074  0.20709  1.0000
  F   F78       1.0  0.96251  0.20456  0.70732  1.0000
  F   F79       1.0  0.95697  0.68815  0.20531  1.0000
  F   F80       1.0  0.95837  0.70429  0.70263  1.0000
  F   F81       1.0  0.14948  0.10405  0.03830  1.0000
  F   F82       1.0  0.15325  0.06692  0.54295  1.0000
  F   F83       1.0  0.15388  0.59749  0.03344  1.0000
  F   F84       1.0  0.14710  0.60681  0.52921  1.0000
  F   F85       1.0  0.40195  0.11001  0.03628  1.0000
  F   F86       1.0  0.39351  0.10809  0.53875  1.0000
  F   F87       1.0  0.40108  0.59644  0.03357  1.0000
  F   F88       1.0  0.39490  0.58007  0.54363  1.0000
  F   F89       1.0  0.65133  0.10968  0.02800  1.0000
  F   F90       1.0  0.64952  0.08803  0.53861  1.0000
  F   F91       1.0  0.64541  0.58523  0.03610  1.0000
  F   F92       1.0  0.64589  0.58707  0.54125  1.0000
  F   F93       1.0  0.89628  0.09692  0.02753  1.0000
  F   F94       1.0  0.90322  0.07854  0.54480  1.0000
  F   F95       1.0  0.90140  0.58161  0.02998  1.0000
  F   F96       1.0  0.89614  0.60981  0.53134  1.0000
  F   F97       1.0  0.14583  0.19863  0.14319  1.0000
  F   F98       1.0  0.15570  0.19373  0.61103  1.0000
  F   F99       1.0  0.15291  0.69643  0.12181  1.0000
  F   F100      1.0  0.16076  0.68276  0.63540  1.0000
  F   F101      1.0  0.40761  0.19511  0.12545  1.0000
  F   F102      1.0  0.39619  0.19902  0.63535  1.0000
  F   F103      1.0  0.40231  0.69400  0.12663  1.0000
  F   F104      1.0  0.39862  0.70524  0.61901  1.0000
  F   F105      1.0  0.66028  0.20064  0.11017  1.0000
  F   F106      1.0  0.64982  0.20147  0.61515  1.0000
  F   F107      1.0  0.64776  0.69509  0.12602  1.0000
  F   F108      1.0  0.64955  0.69708  0.61775  1.0000
  F   F109      1.0  0.90365  0.19885  0.11067  1.0000
  F   F110      1.0  0.90428  0.19629  0.61393  1.0000
  F   F111      1.0  0.90014  0.69551  0.11226  1.0000
  F   F112      1.0  0.89721  0.69792  0.64145  1.0000
  F   F113      1.0  0.09207  0.31079  0.37992  1.0000
  F   F114      1.0  0.10182  0.30846  0.87308  1.0000
  F   F115      1.0  0.09018  0.80248  0.40340  1.0000
  F   F116      1.0  0.09378  0.80082  0.87384  1.0000
  F   F117      1.0  0.34169  0.29947  0.36695  1.0000
  F   F118      1.0  0.34614  0.30336  0.89355  1.0000
  F   F119      1.0  0.34256  0.79537  0.38275  1.0000
  F   F120      1.0  0.34627  0.80298  0.90244  1.0000
  F   F121      1.0  0.59524  0.30674  0.35983  1.0000
  F   F122      1.0  0.60879  0.29074  0.85930  1.0000
  F   F123      1.0  0.59512  0.79291  0.39268  1.0000
  F   F124      1.0  0.59451  0.80866  0.87626  1.0000
  F   F125      1.0  0.85065  0.31595  0.34091  1.0000
  F   F126      1.0  0.85223  0.30673  0.87927  1.0000
  F   F127      1.0  0.85249  0.80624  0.36402  1.0000
  F   F128      1.0  0.84989  0.81730  0.87153  1.0000
  F   F129      1.0  0.06177  0.24885  0.14570  1.0000
  F   F130      1.0  0.06229  0.24782  0.65332  1.0000
  F   F131      1.0  0.07009  0.75165  0.13017  1.0000
  F   F132      1.0  0.07414  0.75075  0.62606  1.0000
  F   F133      1.0  0.32002  0.24689  0.14361  1.0000
  F   F134      1.0  0.31327  0.25534  0.64156  1.0000
  F   F135      1.0  0.31827  0.75655  0.13373  1.0000
  F   F136      1.0  0.30284  0.74114  0.65724  1.0000
  F   F137      1.0  0.56607  0.25727  0.12771  1.0000
  F   F138      1.0  0.56327  0.25422  0.64249  1.0000
  F   F139      1.0  0.55418  0.74597  0.15391  1.0000
  F   F140      1.0  0.56345  0.76366  0.63808  1.0000
  F   F141      1.0  0.81042  0.26004  0.13568  1.0000
  F   F142      1.0  0.81697  0.24101  0.64634  1.0000
  F   F143      1.0  0.80637  0.75335  0.14784  1.0000
  F   F144      1.0  0.81019  0.75216  0.63758  1.0000
  F   F145      1.0  0.12507  0.36279  0.11634  1.0000
  F   F146      1.0  0.12295  0.35902  0.62536  1.0000
  F   F147      1.0  0.12356  0.87572  0.09748  1.0000
  F   F148      1.0  0.12603  0.86028  0.61513  1.0000
  F   F149      1.0  0.36916  0.35734  0.13850  1.0000
  F   F150      1.0  0.37076  0.38888  0.59653  1.0000
  F   F151      1.0  0.37440  0.87205  0.12251  1.0000
  F   F152      1.0  0.37571  0.88345  0.59569  1.0000
  F   F153      1.0  0.62455  0.37016  0.10131  1.0000
  F   F154      1.0  0.62534  0.37342  0.60227  1.0000
  F   F155      1.0  0.62607  0.86570  0.09345  1.0000
  F   F156      1.0  0.62274  0.88008  0.59664  1.0000
  F   F157      1.0  0.87485  0.35493  0.11903  1.0000
  F   F158      1.0  0.87777  0.37937  0.59773  1.0000
  F   F159      1.0  0.87322  0.86441  0.11759  1.0000
  F   F160      1.0  0.87598  0.88676  0.59531  1.0000
  F   F161      1.0  0.17606  0.23868  0.38884  1.0000
  F   F162      1.0  0.19475  0.25387  0.85240  1.0000
  F   F163      1.0  0.18449  0.74770  0.35202  1.0000
  F   F164      1.0  0.18634  0.74995  0.86483  1.0000
  F   F165      1.0  0.43334  0.24916  0.35336  1.0000
  F   F166      1.0  0.43565  0.25100  0.86310  1.0000
  F   F167      1.0  0.43202  0.74374  0.36708  1.0000
  F   F168      1.0  0.43909  0.75002  0.85190  1.0000
  F   F169      1.0  0.67991  0.24690  0.35351  1.0000
  F   F170      1.0  0.68779  0.24862  0.85558  1.0000
  F   F171      1.0  0.68634  0.74573  0.35279  1.0000
  F   F172      1.0  0.68510  0.76588  0.84031  1.0000
  F   F173      1.0  0.92865  0.24576  0.37637  1.0000
  F   F174      1.0  0.94248  0.25535  0.84565  1.0000
  F   F175      1.0  0.94443  0.75495  0.33578  1.0000
  F   F176      1.0  0.93979  0.74835  0.85012  1.0000
  F   F177      1.0  0.12424  0.11573  0.39884  1.0000
  F   F178      1.0  0.12519  0.13380  0.90133  1.0000
  F   F179      1.0  0.12324  0.64010  0.38610  1.0000
  F   F180      1.0  0.12409  0.63271  0.89207  1.0000
  F   F181      1.0  0.37754  0.11335  0.39260  1.0000
  F   F182      1.0  0.37485  0.12065  0.90286  1.0000
  F   F183      1.0  0.37719  0.61416  0.39514  1.0000
  F   F184      1.0  0.37149  0.63366  0.89647  1.0000
  F   F185      1.0  0.62673  0.13127  0.37934  1.0000
  F   F186      1.0  0.63254  0.11882  0.88779  1.0000
  F   F187      1.0  0.62405  0.63547  0.38039  1.0000
  F   F188      1.0  0.62480  0.63887  0.88896  1.0000
  F   F189      1.0  0.87935  0.14086  0.38594  1.0000
  F   F190      1.0  0.87839  0.14849  0.87484  1.0000
  F   F191      1.0  0.87389  0.63498  0.38829  1.0000
  F   F192      1.0  0.87625  0.65497  0.87127  1.0000
  F   F193      1.0  0.00582  0.36235  0.07562  1.0000
  F   F194      1.0  0.01087  0.36529  0.56075  1.0000
  F   F195      1.0  0.00673  0.86266  0.08052  1.0000
  F   F196      1.0  0.00987  0.85505  0.57693  1.0000
  F   F197      1.0  0.25569  0.36503  0.07810  1.0000
  F   F198      1.0  0.25903  0.35524  0.56998  1.0000
  F   F199      1.0  0.25972  0.86319  0.07734  1.0000
  F   F200      1.0  0.25592  0.86207  0.57904  1.0000
  F   F201      1.0  0.51042  0.37844  0.05985  1.0000
  F   F202      1.0  0.50525  0.35081  0.59716  1.0000
  F   F203      1.0  0.50313  0.86884  0.08297  1.0000
  F   F204      1.0  0.50253  0.86234  0.57630  1.0000
  F   F205      1.0  0.75613  0.37007  0.06742  1.0000
  F   F206      1.0  0.76399  0.36442  0.56668  1.0000
  F   F207      1.0  0.75299  0.87211  0.07854  1.0000
  F   F208      1.0  0.75895  0.87378  0.55545  1.0000
  F   F209      1.0  0.07094  0.47651  0.18057  1.0000
  F   F210      1.0  0.07437  0.48789  0.66015  1.0000
  F   F211      1.0  0.07339  0.99198  0.17116  1.0000
  F   F212      1.0  0.07174  0.97549  0.69604  1.0000
  F   F213      1.0  0.32098  0.48511  0.17650  1.0000
  F   F214      1.0  0.31646  0.48249  0.67711  1.0000
  F   F215      1.0  0.32089  0.99732  0.16765  1.0000
  F   F216      1.0  0.31321  0.99068  0.68616  1.0000
  F   F217      1.0  0.56710  0.47895  0.17827  1.0000
  F   F218      1.0  0.55726  0.48194  0.70325  1.0000
  F   F219      1.0  0.57662  0.98951  0.16266  1.0000
  F   F220      1.0  0.57192  0.98298  0.67306  1.0000
  F   F221      1.0  0.82189  0.49655  0.15509  1.0000
  F   F222      1.0  0.82359  0.48214  0.68032  1.0000
  F   F223      1.0  0.82122  0.99395  0.16054  1.0000
  F   F224      1.0  0.81891  0.99831  0.66158  1.0000
  F   F225      1.0  0.24400  0.11942  0.43155  1.0000
  F   F226      1.0  0.24056  0.13434  0.93621  1.0000
  F   F227      1.0  0.23591  0.63355  0.43184  1.0000
  F   F228      1.0  0.24584  0.64249  0.92062  1.0000
  F   F229      1.0  0.49176  0.14642  0.42438  1.0000
  F   F230      1.0  0.49538  0.12445  0.92869  1.0000
  F   F231      1.0  0.49196  0.63370  0.42306  1.0000
  F   F232      1.0  0.49416  0.62848  0.93830  1.0000
  F   F233      1.0  0.74432  0.15334  0.40873  1.0000
  F   F234      1.0  0.73898  0.14303  0.93018  1.0000
  F   F235      1.0  0.74371  0.62902  0.42438  1.0000
  F   F236      1.0  0.74233  0.65313  0.90946  1.0000
  F   F237      1.0  0.99162  0.13183  0.43518  1.0000
  F   F238      1.0  0.99761  0.14164  0.92123  1.0000
  F   F239      1.0  0.99176  0.63772  0.43402  1.0000
  F   F240      1.0  0.99125  0.62593  0.92920  1.0000
  F   F241      1.0  0.18362  0.01159  0.32063  1.0000
  F   F242      1.0  0.18091  0.01435  0.83482  1.0000
  F   F243      1.0  0.17852  0.51565  0.31538  1.0000
  F   F244      1.0  0.17382  0.51317  0.83499  1.0000
  F   F245      1.0  0.44014  0.01141  0.30895  1.0000
  F   F246      1.0  0.43150  0.01772  0.81731  1.0000
  F   F247      1.0  0.43715  0.50253  0.32621  1.0000
  F   F248      1.0  0.42849  0.51372  0.82658  1.0000
  F   F249      1.0  0.68272  0.00473  0.33206  1.0000
  F   F250      1.0  0.68665  0.01841  0.81460  1.0000
  F   F251      1.0  0.67162  0.51326  0.33684  1.0000
  F   F252      1.0  0.68073  0.52339  0.81985  1.0000
  F   F253      1.0  0.93268  0.03114  0.31379  1.0000
  F   F254      1.0  0.93027  0.02126  0.82766  1.0000
  F   F255      1.0  0.93119  0.51234  0.33201  1.0000
  F   F256      1.0  0.92980  0.51880  0.82336  1.0000
  F   F257      1.0  0.99940  0.24253  0.00925  1.0000
  F   F258      1.0  0.00586  0.24865  0.50205  1.0000
  F   F259      1.0  0.00373  0.74414  0.99639  1.0000
  F   F260      1.0  0.99942  0.76077  0.49082  1.0000
  F   F261      1.0  0.25112  0.25054  0.00429  1.0000
  F   F262      1.0  0.24686  0.23850  0.50441  1.0000
  F   F263      1.0  0.25142  0.75444  0.99199  1.0000
  F   F264      1.0  0.24814  0.74078  0.50363  1.0000
  F   F265      1.0  0.50228  0.25234  0.99760  1.0000
  F   F266      1.0  0.50415  0.25905  0.49605  1.0000
  F   F267      1.0  0.50038  0.75886  0.99494  1.0000
  F   F268      1.0  0.49965  0.75372  0.49405  1.0000
  F   F269      1.0  0.75380  0.25368  0.98799  1.0000
  F   F270      1.0  0.75352  0.25320  0.48865  1.0000
  F   F271      1.0  0.75049  0.75373  0.99701  1.0000
  F   F272      1.0  0.74925  0.76498  0.48586  1.0000
  F   F273      1.0  0.13506  0.99313  0.24042  1.0000
  F   F274      1.0  0.12642  0.00027  0.76066  1.0000
  F   F275      1.0  0.12203  0.49585  0.24400  1.0000
  F   F276      1.0  0.12793  0.50133  0.74508  1.0000
  F   F277      1.0  0.37243  0.98659  0.26653  1.0000
  F   F278      1.0  0.37599  0.00281  0.74601  1.0000
  F   F279      1.0  0.37217  0.49904  0.25532  1.0000
  F   F280      1.0  0.37495  0.48916  0.74974  1.0000
  F   F281      1.0  0.63303  0.99752  0.24081  1.0000
  F   F282      1.0  0.62842  0.01096  0.73948  1.0000
  F   F283      1.0  0.63169  0.49594  0.23431  1.0000
  F   F284      1.0  0.61892  0.49727  0.75641  1.0000
  F   F285      1.0  0.88186  0.01116  0.23454  1.0000
  F   F286      1.0  0.87818  0.00318  0.75353  1.0000
  F   F287      1.0  0.86667  0.50727  0.26325  1.0000
  F   F288      1.0  0.88076  0.50712  0.73531  1.0000
  F   F289      1.0  0.04315  0.02736  0.02321  1.0000
  F   F290      1.0  0.04687  0.02689  0.53198  1.0000
  F   F291      1.0  0.04231  0.52819  0.02028  1.0000
  F   F292      1.0  0.04689  0.52804  0.51003  1.0000
  F   F293      1.0  0.28454  0.03050  0.03966  1.0000
  F   F294      1.0  0.29775  0.02216  0.52562  1.0000
  F   F295      1.0  0.29387  0.53337  0.01758  1.0000
  F   F296      1.0  0.29182  0.52990  0.50762  1.0000
  F   F297      1.0  0.54742  0.03275  0.01921  1.0000
  F   F298      1.0  0.54357  0.03538  0.52373  1.0000
  F   F299      1.0  0.55577  0.52970  0.00881  1.0000
  F   F300      1.0  0.54446  0.52631  0.53070  1.0000
  F   F301      1.0  0.79808  0.03449  0.00761  1.0000
  F   F302      1.0  0.79415  0.03857  0.51314  1.0000
  F   F303      1.0  0.78609  0.54284  0.02543  1.0000
  F   F304      1.0  0.79556  0.52233  0.52195  1.0000
  F   F305      1.0  0.23543  0.42402  0.22214  1.0000
  F   F306      1.0  0.23910  0.41192  0.73072  1.0000
  F   F307      1.0  0.22933  0.90690  0.22813  1.0000
  F   F308      1.0  0.23480  0.91675  0.72932  1.0000
  F   F309      1.0  0.48812  0.41702  0.22352  1.0000
  F   F310      1.0  0.48252  0.41379  0.73510  1.0000
  F   F311      1.0  0.48747  0.90205  0.24300  1.0000
  F   F312      1.0  0.48434  0.90781  0.72900  1.0000
  F   F313      1.0  0.73207  0.42300  0.23388  1.0000
  F   F314      1.0  0.73689  0.42747  0.71528  1.0000
  F   F315      1.0  0.73478  0.92099  0.22095  1.0000
  F   F316      1.0  0.73494  0.91903  0.71856  1.0000
  F   F317      1.0  0.98726  0.40405  0.23528  1.0000
  F   F318      1.0  0.98343  0.42747  0.71760  1.0000
  F   F319      1.0  0.98778  0.93764  0.20817  1.0000
  F   F320      1.0  0.98616  0.92125  0.72272  1.0000
  F   F321      1.0  0.19765  0.47717  0.49260  1.0000
  F   F322      1.0  0.21161  0.46699  0.97076  1.0000
  F   F323      1.0  0.21169  0.95394  0.47539  1.0000
  F   F324      1.0  0.20133  0.96207  0.00812  1.0000
  F   F325      1.0  0.45988  0.45759  0.48346  1.0000
  F   F326      1.0  0.45206  0.46206  0.98532  1.0000
  F   F327      1.0  0.45534  0.97555  0.47474  1.0000
  F   F328      1.0  0.45210  0.96450  0.98126  1.0000
  F   F329      1.0  0.71268  0.46150  0.46245  1.0000
  F   F330      1.0  0.70764  0.47104  0.97261  1.0000
  F   F331      1.0  0.70914  0.97322  0.46644  1.0000
  F   F332      1.0  0.70466  0.96814  0.98114  1.0000
  F   F333      1.0  0.95382  0.47875  0.48643  1.0000
  F   F334      1.0  0.96513  0.45504  0.96091  1.0000
  F   F335      1.0  0.96166  0.96376  0.46440  1.0000
  F   F336      1.0  0.95830  0.97519  0.98554  1.0000
  F   F337      1.0  0.01606  0.09743  0.26963  1.0000
  F   F338      1.0  0.01901  0.07155  0.79879  1.0000
  F   F339      1.0  0.01377  0.58481  0.27808  1.0000
  F   F340      1.0  0.01442  0.58831  0.76816  1.0000
  F   F341      1.0  0.26562  0.07101  0.28146  1.0000
  F   F342      1.0  0.26140  0.08241  0.78980  1.0000
  F   F343      1.0  0.26583  0.59014  0.27225  1.0000
  F   F344      1.0  0.26331  0.58615  0.77096  1.0000
  F   F345      1.0  0.51935  0.08109  0.27569  1.0000
  F   F346      1.0  0.51965  0.08836  0.76537  1.0000
  F   F347      1.0  0.51654  0.58094  0.26491  1.0000
  F   F348      1.0  0.50990  0.60410  0.77696  1.0000
  F   F349      1.0  0.76944  0.08433  0.27939  1.0000
  F   F350      1.0  0.77204  0.08679  0.77239  1.0000
  F   F351      1.0  0.76694  0.57985  0.26513  1.0000
  F   F352      1.0  0.76162  0.59458  0.75444  1.0000
  F   F353      1.0  0.09994  0.40034  0.47157  1.0000
  F   F354      1.0  0.10057  0.40893  0.96988  1.0000
  F   F355      1.0  0.10180  0.91956  0.46491  1.0000
  F   F356      1.0  0.09733  0.90629  0.96277  1.0000
  F   F357      1.0  0.35432  0.39720  0.45543  1.0000
  F   F358      1.0  0.35103  0.39599  0.97291  1.0000
  F   F359      1.0  0.34672  0.89711  0.46543  1.0000
  F   F360      1.0  0.34466  0.92593  0.95906  1.0000
  F   F361      1.0  0.59638  0.39834  0.45065  1.0000
  F   F362      1.0  0.60470  0.39522  0.94959  1.0000
  F   F363      1.0  0.60093  0.91360  0.45309  1.0000
  F   F364      1.0  0.60210  0.90601  0.95084  1.0000
  F   F365      1.0  0.85424  0.39129  0.46368  1.0000
  F   F366      1.0  0.85094  0.42466  0.95793  1.0000
  F   F367      1.0  0.85005  0.91264  0.45670  1.0000
  F   F368      1.0  0.85461  0.91094  0.96169  1.0000
  F   F369      1.0  0.05234  0.27542  0.28431  1.0000
  F   F370      1.0  0.04612  0.30615  0.79054  1.0000
  F   F371      1.0  0.04665  0.79700  0.28791  1.0000
  F   F372      1.0  0.04288  0.78140  0.78581  1.0000
  F   F373      1.0  0.28833  0.29596  0.29559  1.0000
  F   F374      1.0  0.30506  0.28703  0.78385  1.0000
  F   F375      1.0  0.28626  0.79561  0.29839  1.0000
  F   F376      1.0  0.30354  0.80505  0.78116  1.0000
  F   F377      1.0  0.54246  0.29204  0.28613  1.0000
  F   F378      1.0  0.53911  0.29250  0.79919  1.0000
  F   F379      1.0  0.55644  0.80161  0.28040  1.0000
  F   F380      1.0  0.54463  0.80615  0.78732  1.0000
  F   F381      1.0  0.79590  0.31192  0.27791  1.0000
  F   F382      1.0  0.80019  0.29724  0.78872  1.0000
  F   F383      1.0  0.79214  0.80923  0.28630  1.0000
  F   F384      1.0  0.79991  0.79976  0.78464  1.0000
