data_image0
_chemical_formula_structural       Hf96F384
_chemical_formula_sum              "Hf96 F384"
_cell_length_a       31.0428
_cell_length_b       15.5171
_cell_length_c       15.5103
_cell_angle_alpha    63.342
_cell_angle_beta     63.342
_cell_angle_gamma    80.1625

_space_group_name_H-M_alt    "P 1"
_space_group_IT_number       1

loop_
  _space_group_symop_operation_xyz
  'x, y, z'

loop_
  _atom_site_type_symbol
  _atom_site_label
  _atom_site_symmetry_multiplicity
  _atom_site_fract_x
  _atom_site_fract_y
  _atom_site_fract_z
  _atom_site_occupancy
  Hf  Hf1       1.0  0.19164  0.11427  0.38315  1.0000
  Hf  Hf2       1.0  0.19620  0.10505  0.88697  1.0000
  Hf  Hf3       1.0  0.19615  0.60038  0.38603  1.0000
  Hf  Hf4       1.0  0.19259  0.60754  0.87687  1.0000
  Hf  Hf5       1.0  0.44567  0.10942  0.37499  1.0000
  Hf  Hf6       1.0  0.44652  0.11269  0.87688  1.0000
  Hf  Hf7       1.0  0.44802  0.61218  0.37925  1.0000
  Hf  Hf8       1.0  0.44465  0.60778  0.87292  1.0000
  Hf  Hf9       1.0  0.69412  0.10294  0.38781  1.0000
  Hf  Hf10      1.0  0.69805  0.10650  0.87454  1.0000
  Hf  Hf11      1.0  0.69797  0.60671  0.37040  1.0000
  Hf  Hf12      1.0  0.69787  0.60437  0.86961  1.0000
  Hf  Hf13      1.0  0.94459  0.10427  0.37545  1.0000
  Hf  Hf14      1.0  0.94490  0.10535  0.87452  1.0000
  Hf  Hf15      1.0  0.94680  0.61045  0.37165  1.0000
  Hf  Hf16      1.0  0.94878  0.60305  0.87307  1.0000
  Hf  Hf17      1.0  0.05005  0.39155  0.12103  1.0000
  Hf  Hf18      1.0  0.05071  0.38418  0.63312  1.0000
  Hf  Hf19      1.0  0.05119  0.88754  0.13722  1.0000
  Hf  Hf20      1.0  0.05441  0.89116  0.61733  1.0000
  Hf  Hf21      1.0  0.29961  0.39297  0.13364  1.0000
  Hf  Hf22      1.0  0.30366  0.37702  0.62875  1.0000
  Hf  Hf23      1.0  0.30344  0.88596  0.13352  1.0000
  Hf  Hf24      1.0  0.30199  0.89492  0.61634  1.0000
  Hf  Hf25      1.0  0.55552  0.39916  0.11501  1.0000
  Hf  Hf26      1.0  0.55619  0.39582  0.62401  1.0000
  Hf  Hf27      1.0  0.55093  0.89394  0.12871  1.0000
  Hf  Hf28      1.0  0.55903  0.89260  0.62019  1.0000
  Hf  Hf29      1.0  0.80581  0.39882  0.12018  1.0000
  Hf  Hf30      1.0  0.80889  0.39582  0.61744  1.0000
  Hf  Hf31      1.0  0.80206  0.88632  0.12795  1.0000
  Hf  Hf32      1.0  0.80417  0.89043  0.62122  1.0000
  Hf  Hf33      1.0  0.05273  0.18233  0.41546  1.0000
  Hf  Hf34      1.0  0.05449  0.17755  0.92168  1.0000
  Hf  Hf35      1.0  0.05702  0.68120  0.41895  1.0000
  Hf  Hf36      1.0  0.05407  0.68360  0.92056  1.0000
  Hf  Hf37      1.0  0.30404  0.17867  0.42040  1.0000
  Hf  Hf38      1.0  0.30814  0.18364  0.91408  1.0000
  Hf  Hf39      1.0  0.30665  0.67733  0.42230  1.0000
  Hf  Hf40      1.0  0.30431  0.68451  0.91181  1.0000
  Hf  Hf41      1.0  0.55879  0.18910  0.41237  1.0000
  Hf  Hf42      1.0  0.56209  0.18424  0.91290  1.0000
  Hf  Hf43      1.0  0.55385  0.68550  0.42140  1.0000
  Hf  Hf44      1.0  0.55527  0.68730  0.91512  1.0000
  Hf  Hf45      1.0  0.80642  0.17615  0.42872  1.0000
  Hf  Hf46      1.0  0.80600  0.17782  0.92025  1.0000
  Hf  Hf47      1.0  0.80258  0.68054  0.42289  1.0000
  Hf  Hf48      1.0  0.80988  0.68243  0.90277  1.0000
  Hf  Hf49      1.0  0.15177  0.38887  0.34066  1.0000
  Hf  Hf50      1.0  0.15763  0.39238  0.82717  1.0000
  Hf  Hf51      1.0  0.15903  0.88908  0.33324  1.0000
  Hf  Hf52      1.0  0.16124  0.88560  0.83553  1.0000
  Hf  Hf53      1.0  0.40909  0.38896  0.33325  1.0000
  Hf  Hf54      1.0  0.40586  0.39109  0.83030  1.0000
  Hf  Hf55      1.0  0.40732  0.89452  0.33167  1.0000
  Hf  Hf56      1.0  0.40407  0.88880  0.84179  1.0000
  Hf  Hf57      1.0  0.66167  0.39495  0.33111  1.0000
  Hf  Hf58      1.0  0.66091  0.39129  0.82709  1.0000
  Hf  Hf59      1.0  0.65887  0.88520  0.33646  1.0000
  Hf  Hf60      1.0  0.66294  0.89703  0.82438  1.0000
  Hf  Hf61      1.0  0.90990  0.38966  0.33647  1.0000
  Hf  Hf62      1.0  0.90991  0.38470  0.83024  1.0000
  Hf  Hf63      1.0  0.90591  0.88351  0.33654  1.0000
  Hf  Hf64      1.0  0.90890  0.88958  0.82768  1.0000
  Hf  Hf65      1.0  0.19134  0.32163  0.08587  1.0000
  Hf  Hf66      1.0  0.19265  0.31001  0.58804  1.0000
  Hf  Hf67      1.0  0.19681  0.81557  0.08432  1.0000
  Hf  Hf68      1.0  0.19314  0.81828  0.58323  1.0000
  Hf  Hf69      1.0  0.44218  0.32458  0.08296  1.0000
  Hf  Hf70      1.0  0.44494  0.32510  0.57602  1.0000
  Hf  Hf71      1.0  0.44388  0.82081  0.08459  1.0000
  Hf  Hf72      1.0  0.44262  0.81837  0.58821  1.0000
  Hf  Hf73      1.0  0.69408  0.31798  0.08408  1.0000
  Hf  Hf74      1.0  0.69760  0.32348  0.57502  1.0000
  Hf  Hf75      1.0  0.69721  0.81966  0.07616  1.0000
  Hf  Hf76      1.0  0.69285  0.81589  0.58218  1.0000
  Hf  Hf77      1.0  0.94159  0.31153  0.09048  1.0000
  Hf  Hf78      1.0  0.94613  0.30999  0.58631  1.0000
  Hf  Hf79      1.0  0.94331  0.81193  0.08582  1.0000
  Hf  Hf80      1.0  0.94462  0.81301  0.57905  1.0000
  Hf  Hf81      1.0  0.09262  0.11322  0.16664  1.0000
  Hf  Hf82      1.0  0.09078  0.11163  0.66902  1.0000
  Hf  Hf83      1.0  0.08755  0.61505  0.16658  1.0000
  Hf  Hf84      1.0  0.08930  0.60895  0.67090  1.0000
  Hf  Hf85      1.0  0.34339  0.11939  0.16232  1.0000
  Hf  Hf86      1.0  0.33935  0.10852  0.67012  1.0000
  Hf  Hf87      1.0  0.34380  0.61170  0.16197  1.0000
  Hf  Hf88      1.0  0.34308  0.61450  0.66498  1.0000
  Hf  Hf89      1.0  0.59401  0.11668  0.16732  1.0000
  Hf  Hf90      1.0  0.58992  0.11084  0.67112  1.0000
  Hf  Hf91      1.0  0.59225  0.61326  0.16407  1.0000
  Hf  Hf92      1.0  0.59110  0.60968  0.66671  1.0000
  Hf  Hf93      1.0  0.83678  0.10487  0.17713  1.0000
  Hf  Hf94      1.0  0.84267  0.11058  0.66956  1.0000
  Hf  Hf95      1.0  0.84095  0.61531  0.16363  1.0000
  Hf  Hf96      1.0  0.84650  0.61390  0.65453  1.0000
  F   F1        1.0  0.07452  0.12285  0.31266  1.0000
  F   F2        1.0  0.07841  0.12059  0.81218  1.0000
  F   F3        1.0  0.07771  0.63142  0.30583  1.0000
  F   F4        1.0  0.08042  0.62736  0.80759  1.0000
  F   F5        1.0  0.32760  0.12851  0.30706  1.0000
  F   F6        1.0  0.33309  0.14328  0.79242  1.0000
  F   F7        1.0  0.32981  0.61831  0.31681  1.0000
  F   F8        1.0  0.32893  0.61225  0.80236  1.0000
  F   F9        1.0  0.58347  0.13084  0.29541  1.0000
  F   F10       1.0  0.57596  0.11247  0.81549  1.0000
  F   F11       1.0  0.58647  0.65087  0.29885  1.0000
  F   F12       1.0  0.57861  0.62468  0.81031  1.0000
  F   F13       1.0  0.83028  0.11217  0.31482  1.0000
  F   F14       1.0  0.83566  0.12011  0.80376  1.0000
  F   F15       1.0  0.82279  0.60449  0.31400  1.0000
  F   F16       1.0  0.83748  0.62811  0.78996  1.0000
  F   F17       1.0  0.18356  0.33878  0.44617  1.0000
  F   F18       1.0  0.17668  0.33521  0.95757  1.0000
  F   F19       1.0  0.18118  0.84036  0.45230  1.0000
  F   F20       1.0  0.19503  0.83601  0.94403  1.0000
  F   F21       1.0  0.44204  0.34768  0.43986  1.0000
  F   F22       1.0  0.44254  0.34971  0.92894  1.0000
  F   F23       1.0  0.43422  0.83885  0.44757  1.0000
  F   F24       1.0  0.43803  0.84620  0.93997  1.0000
  F   F25       1.0  0.69202  0.35431  0.43372  1.0000
  F   F26       1.0  0.67844  0.33092  0.96015  1.0000
  F   F27       1.0  0.68123  0.83589  0.46055  1.0000
  F   F28       1.0  0.68362  0.84731  0.93973  1.0000
  F   F29       1.0  0.93834  0.34537  0.44037  1.0000
  F   F30       1.0  0.92643  0.32991  0.96841  1.0000
  F   F31       1.0  0.93602  0.83244  0.44945  1.0000
  F   F32       1.0  0.93373  0.82011  0.94975  1.0000
  F   F33       1.0  0.17565  0.37767  0.19299  1.0000
  F   F34       1.0  0.16598  0.37243  0.69716  1.0000
  F   F35       1.0  0.17195  0.88703  0.19878  1.0000
  F   F36       1.0  0.17638  0.86376  0.69937  1.0000
  F   F37       1.0  0.42040  0.37661  0.19304  1.0000
  F   F38       1.0  0.41045  0.38119  0.69892  1.0000
  F   F39       1.0  0.42035  0.86735  0.19984  1.0000
  F   F40       1.0  0.42463  0.88517  0.69036  1.0000
  F   F41       1.0  0.67640  0.40201  0.18191  1.0000
  F   F42       1.0  0.66402  0.34808  0.71094  1.0000
  F   F43       1.0  0.67150  0.86166  0.19625  1.0000
  F   F44       1.0  0.67453  0.88320  0.68777  1.0000
  F   F45       1.0  0.91777  0.35803  0.19885  1.0000
  F   F46       1.0  0.91662  0.35686  0.70261  1.0000
  F   F47       1.0  0.92246  0.86481  0.19649  1.0000
  F   F48       1.0  0.91979  0.85656  0.69775  1.0000
  F   F49       1.0  0.06503  0.15665  0.05347  1.0000
  F   F50       1.0  0.06593  0.17572  0.53930  1.0000
  F   F51       1.0  0.05646  0.65654  0.06475  1.0000
  F   F52       1.0  0.06198  0.67407  0.55423  1.0000
  F   F53       1.0  0.31127  0.16488  0.05472  1.0000
  F   F54       1.0  0.31605  0.15896  0.55282  1.0000
  F   F55       1.0  0.31548  0.66095  0.04874  1.0000
  F   F56       1.0  0.31354  0.65142  0.55410  1.0000
  F   F57       1.0  0.57747  0.16935  0.04027  1.0000
  F   F58       1.0  0.57255  0.16668  0.53978  1.0000
  F   F59       1.0  0.55918  0.66828  0.05476  1.0000
  F   F60       1.0  0.55787  0.66040  0.55586  1.0000
  F   F61       1.0  0.81262  0.15866  0.06036  1.0000
  F   F62       1.0  0.81032  0.15768  0.56537  1.0000
  F   F63       1.0  0.81113  0.66267  0.04944  1.0000
  F   F64       1.0  0.81432  0.64306  0.55651  1.0000
  F   F65       1.0  0.19939  0.21249  0.21575  1.0000
  F   F66       1.0  0.20197  0.20470  0.72324  1.0000
  F   F67       1.0  0.20062  0.69197  0.21059  1.0000
  F   F68       1.0  0.19916  0.69596  0.71539  1.0000
  F   F69       1.0  0.45388  0.22099  0.20159  1.0000
  F   F70       1.0  0.44854  0.20287  0.71126  1.0000
  F   F71       1.0  0.45722  0.70788  0.20432  1.0000
  F   F72       1.0  0.45606  0.70465  0.70985  1.0000
  F   F73       1.0  0.70098  0.20154  0.20622  1.0000
  F   F74       1.0  0.70785  0.20741  0.69327  1.0000
  F   F75       1.0  0.71093  0.70822  0.19420  1.0000
  F   F76       1.0  0.70077  0.70955  0.71580  1.0000
  F   F77       1.0  0.94804  0.18851  0.21030  1.0000
  F   F78       1.0  0.95393  0.17629  0.72366  1.0000
  F   F79       1.0  0.95643  0.69725  0.21181  1.0000
  F   F80       1.0  0.95682  0.68449  0.69994  1.0000
  F   F81       1.0  0.15560  0.08172  0.04965  1.0000
  F   F82       1.0  0.14662  0.10973  0.52891  1.0000
  F   F83       1.0  0.14598  0.59982  0.02841  1.0000
  F   F84       1.0  0.15024  0.58292  0.54917  1.0000
  F   F85       1.0  0.39983  0.09310  0.04287  1.0000
  F   F86       1.0  0.40092  0.08802  0.54398  1.0000
  F   F87       1.0  0.39386  0.58030  0.03821  1.0000
  F   F88       1.0  0.40079  0.60172  0.53271  1.0000
  F   F89       1.0  0.65279  0.10165  0.02423  1.0000
  F   F90       1.0  0.64651  0.08436  0.54152  1.0000
  F   F91       1.0  0.66074  0.58963  0.02123  1.0000
  F   F92       1.0  0.64550  0.58187  0.54908  1.0000
  F   F93       1.0  0.89452  0.08030  0.04589  1.0000
  F   F94       1.0  0.89532  0.08831  0.53593  1.0000
  F   F95       1.0  0.90240  0.60458  0.04948  1.0000
  F   F96       1.0  0.89631  0.58599  0.52741  1.0000
  F   F97       1.0  0.14673  0.20330  0.13198  1.0000
  F   F98       1.0  0.14765  0.19676  0.63195  1.0000
  F   F99       1.0  0.14247  0.69185  0.12814  1.0000
  F   F100      1.0  0.15019  0.70464  0.61453  1.0000
  F   F101      1.0  0.39744  0.20593  0.13054  1.0000
  F   F102      1.0  0.39857  0.19295  0.61582  1.0000
  F   F103      1.0  0.40347  0.68710  0.13241  1.0000
  F   F104      1.0  0.40175  0.70497  0.63669  1.0000
  F   F105      1.0  0.64931  0.19432  0.12477  1.0000
  F   F106      1.0  0.64420  0.20285  0.62049  1.0000
  F   F107      1.0  0.65120  0.69447  0.12603  1.0000
  F   F108      1.0  0.65344  0.69328  0.63393  1.0000
  F   F109      1.0  0.89594  0.16787  0.13561  1.0000
  F   F110      1.0  0.90858  0.20303  0.60891  1.0000
  F   F111      1.0  0.89865  0.70293  0.14296  1.0000
  F   F112      1.0  0.91068  0.68784  0.60476  1.0000
  F   F113      1.0  0.10303  0.30409  0.34153  1.0000
  F   F114      1.0  0.09029  0.31256  0.87854  1.0000
  F   F115      1.0  0.10043  0.79286  0.37792  1.0000
  F   F116      1.0  0.10262  0.79222  0.88992  1.0000
  F   F117      1.0  0.35191  0.29404  0.35617  1.0000
  F   F118      1.0  0.34255  0.30979  0.86451  1.0000
  F   F119      1.0  0.34921  0.80454  0.37712  1.0000
  F   F120      1.0  0.34517  0.81385  0.87142  1.0000
  F   F121      1.0  0.59966  0.30757  0.36176  1.0000
  F   F122      1.0  0.60448  0.29867  0.88708  1.0000
  F   F123      1.0  0.59777  0.80086  0.38046  1.0000
  F   F124      1.0  0.60064  0.80933  0.86849  1.0000
  F   F125      1.0  0.85365  0.30176  0.37923  1.0000
  F   F126      1.0  0.84453  0.30298  0.87147  1.0000
  F   F127      1.0  0.84291  0.80204  0.39110  1.0000
  F   F128      1.0  0.84941  0.80190  0.85758  1.0000
  F   F129      1.0  0.05634  0.25257  0.14217  1.0000
  F   F130      1.0  0.06352  0.24703  0.65167  1.0000
  F   F131      1.0  0.06100  0.74851  0.14379  1.0000
  F   F132      1.0  0.05879  0.74441  0.66254  1.0000
  F   F133      1.0  0.30879  0.25888  0.13669  1.0000
  F   F134      1.0  0.30631  0.24413  0.64012  1.0000
  F   F135      1.0  0.31571  0.74882  0.15063  1.0000
  F   F136      1.0  0.31983  0.75636  0.62576  1.0000
  F   F137      1.0  0.56775  0.25986  0.12873  1.0000
  F   F138      1.0  0.55835  0.25011  0.65793  1.0000
  F   F139      1.0  0.56576  0.75572  0.13631  1.0000
  F   F140      1.0  0.56922  0.74795  0.63906  1.0000
  F   F141      1.0  0.81490  0.24623  0.14551  1.0000
  F   F142      1.0  0.82727  0.25013  0.62434  1.0000
  F   F143      1.0  0.81915  0.75597  0.13714  1.0000
  F   F144      1.0  0.82408  0.75348  0.61752  1.0000
  F   F145      1.0  0.11937  0.36844  0.12009  1.0000
  F   F146      1.0  0.12319  0.36146  0.62462  1.0000
  F   F147      1.0  0.12612  0.85634  0.12176  1.0000
  F   F148      1.0  0.12649  0.87846  0.60406  1.0000
  F   F149      1.0  0.36983  0.37691  0.10270  1.0000
  F   F150      1.0  0.37402  0.35136  0.60959  1.0000
  F   F151      1.0  0.37487  0.87303  0.10508  1.0000
  F   F152      1.0  0.37888  0.88223  0.59771  1.0000
  F   F153      1.0  0.62502  0.36651  0.12736  1.0000
  F   F154      1.0  0.62950  0.38896  0.58264  1.0000
  F   F155      1.0  0.62719  0.88145  0.09797  1.0000
  F   F156      1.0  0.62693  0.87799  0.61265  1.0000
  F   F157      1.0  0.87358  0.36153  0.10726  1.0000
  F   F158      1.0  0.87744  0.37758  0.59909  1.0000
  F   F159      1.0  0.87610  0.87992  0.09957  1.0000
  F   F160      1.0  0.87487  0.87392  0.59592  1.0000
  F   F161      1.0  0.17710  0.25478  0.36311  1.0000
  F   F162      1.0  0.18435  0.24535  0.86428  1.0000
  F   F163      1.0  0.18730  0.74550  0.35076  1.0000
  F   F164      1.0  0.19152  0.75192  0.85662  1.0000
  F   F165      1.0  0.42911  0.24648  0.37391  1.0000
  F   F166      1.0  0.42568  0.24498  0.87797  1.0000
  F   F167      1.0  0.44182  0.75055  0.35411  1.0000
  F   F168      1.0  0.42140  0.74363  0.88241  1.0000
  F   F169      1.0  0.68299  0.25304  0.36493  1.0000
  F   F170      1.0  0.69891  0.25553  0.83531  1.0000
  F   F171      1.0  0.67562  0.74471  0.37600  1.0000
  F   F172      1.0  0.68610  0.74540  0.86001  1.0000
  F   F173      1.0  0.93977  0.24404  0.34111  1.0000
  F   F174      1.0  0.93295  0.25211  0.84979  1.0000
  F   F175      1.0  0.94079  0.74924  0.34553  1.0000
  F   F176      1.0  0.93308  0.74479  0.85063  1.0000
  F   F177      1.0  0.12520  0.11021  0.39258  1.0000
  F   F178      1.0  0.12536  0.13320  0.89637  1.0000
  F   F179      1.0  0.12557  0.62810  0.39450  1.0000
  F   F180      1.0  0.12463  0.63900  0.89031  1.0000
  F   F181      1.0  0.37289  0.11208  0.40317  1.0000
  F   F182      1.0  0.37494  0.13050  0.89828  1.0000
  F   F183      1.0  0.38034  0.64255  0.38383  1.0000
  F   F184      1.0  0.37304  0.63899  0.87859  1.0000
  F   F185      1.0  0.62596  0.13998  0.38627  1.0000
  F   F186      1.0  0.63188  0.12832  0.87198  1.0000
  F   F187      1.0  0.62624  0.61886  0.40354  1.0000
  F   F188      1.0  0.62691  0.63858  0.89126  1.0000
  F   F189      1.0  0.87387  0.12713  0.39395  1.0000
  F   F190      1.0  0.87711  0.13236  0.89082  1.0000
  F   F191      1.0  0.87473  0.64960  0.37085  1.0000
  F   F192      1.0  0.87601  0.61481  0.91092  1.0000
  F   F193      1.0  0.00436  0.36086  0.06665  1.0000
  F   F194      1.0  0.00414  0.35239  0.60270  1.0000
  F   F195      1.0  0.00933  0.86236  0.06537  1.0000
  F   F196      1.0  0.00763  0.85070  0.57605  1.0000
  F   F197      1.0  0.25404  0.37842  0.07350  1.0000
  F   F198      1.0  0.25906  0.36407  0.56140  1.0000
  F   F199      1.0  0.25692  0.85070  0.08576  1.0000
  F   F200      1.0  0.25642  0.86079  0.56559  1.0000
  F   F201      1.0  0.50440  0.37211  0.05998  1.0000
  F   F202      1.0  0.50702  0.36359  0.56995  1.0000
  F   F203      1.0  0.50608  0.87897  0.07083  1.0000
  F   F204      1.0  0.51140  0.85193  0.57718  1.0000
  F   F205      1.0  0.75610  0.36542  0.07467  1.0000
  F   F206      1.0  0.76200  0.36462  0.57484  1.0000
  F   F207      1.0  0.75858  0.86114  0.07212  1.0000
  F   F208      1.0  0.75526  0.86445  0.58093  1.0000
  F   F209      1.0  0.07084  0.49800  0.15110  1.0000
  F   F210      1.0  0.06296  0.48003  0.67944  1.0000
  F   F211      1.0  0.07048  0.98266  0.17360  1.0000
  F   F212      1.0  0.07123  0.99162  0.66423  1.0000
  F   F213      1.0  0.32005  0.47884  0.20390  1.0000
  F   F214      1.0  0.32464  0.48694  0.67106  1.0000
  F   F215      1.0  0.31999  0.98954  0.17556  1.0000
  F   F216      1.0  0.31452  0.98451  0.66685  1.0000
  F   F217      1.0  0.58232  0.50622  0.13256  1.0000
  F   F218      1.0  0.55873  0.47701  0.68983  1.0000
  F   F219      1.0  0.56463  0.99607  0.16977  1.0000
  F   F220      1.0  0.56368  0.98830  0.68170  1.0000
  F   F221      1.0  0.82481  0.48496  0.16441  1.0000
  F   F222      1.0  0.82032  0.47823  0.66909  1.0000
  F   F223      1.0  0.81209  0.97556  0.18576  1.0000
  F   F224      1.0  0.81749  0.98377  0.68032  1.0000
  F   F225      1.0  0.23590  0.14523  0.43853  1.0000
  F   F226      1.0  0.24431  0.14126  0.92579  1.0000
  F   F227      1.0  0.24284  0.62415  0.44314  1.0000
  F   F228      1.0  0.24231  0.62223  0.93458  1.0000
  F   F229      1.0  0.49653  0.15170  0.40970  1.0000
  F   F230      1.0  0.49613  0.14745  0.91165  1.0000
  F   F231      1.0  0.49102  0.63000  0.44582  1.0000
  F   F232      1.0  0.49553  0.64839  0.91683  1.0000
  F   F233      1.0  0.74451  0.14297  0.42951  1.0000
  F   F234      1.0  0.74547  0.13240  0.92007  1.0000
  F   F235      1.0  0.74275  0.65347  0.40231  1.0000
  F   F236      1.0  0.74765  0.64583  0.90966  1.0000
  F   F237      1.0  0.99010  0.12554  0.43362  1.0000
  F   F238      1.0  0.98852  0.12822  0.92861  1.0000
  F   F239      1.0  0.98871  0.63799  0.42590  1.0000
  F   F240      1.0  0.99193  0.63843  0.92108  1.0000
  F   F241      1.0  0.18392  0.00391  0.33144  1.0000
  F   F242      1.0  0.18198  0.01198  0.83105  1.0000
  F   F243      1.0  0.17716  0.51202  0.33187  1.0000
  F   F244      1.0  0.18055  0.50477  0.82856  1.0000
  F   F245      1.0  0.43360  0.01306  0.33297  1.0000
  F   F246      1.0  0.42756  0.01656  0.81796  1.0000
  F   F247      1.0  0.42555  0.51750  0.33692  1.0000
  F   F248      1.0  0.43656  0.52395  0.80474  1.0000
  F   F249      1.0  0.67778  0.01811  0.33734  1.0000
  F   F250      1.0  0.69363  0.01858  0.81104  1.0000
  F   F251      1.0  0.68200  0.52295  0.32083  1.0000
  F   F252      1.0  0.67816  0.51599  0.81907  1.0000
  F   F253      1.0  0.93141  0.01239  0.32750  1.0000
  F   F254      1.0  0.93129  0.00617  0.83536  1.0000
  F   F255      1.0  0.93050  0.51268  0.33054  1.0000
  F   F256      1.0  0.93505  0.50669  0.83715  1.0000
  F   F257      1.0  0.99471  0.23915  0.00124  1.0000
  F   F258      1.0  0.00132  0.25479  0.49987  1.0000
  F   F259      1.0  0.99577  0.74933  0.00273  1.0000
  F   F260      1.0  0.00486  0.75903  0.48805  1.0000
  F   F261      1.0  0.24894  0.25871  0.99792  1.0000
  F   F262      1.0  0.24982  0.25158  0.50243  1.0000
  F   F263      1.0  0.25301  0.73886  0.00121  1.0000
  F   F264      1.0  0.24960  0.75024  0.49184  1.0000
  F   F265      1.0  0.50329  0.24723  0.99793  1.0000
  F   F266      1.0  0.50699  0.25049  0.49850  1.0000
  F   F267      1.0  0.49949  0.75621  0.00972  1.0000
  F   F268      1.0  0.49453  0.74687  0.50941  1.0000
  F   F269      1.0  0.74696  0.25545  0.99232  1.0000
  F   F270      1.0  0.74966  0.24921  0.50625  1.0000
  F   F271      1.0  0.75319  0.74918  0.98392  1.0000
  F   F272      1.0  0.74746  0.74503  0.50383  1.0000
  F   F273      1.0  0.12018  0.99347  0.25945  1.0000
  F   F274      1.0  0.13314  0.99692  0.73886  1.0000
  F   F275      1.0  0.12581  0.50439  0.25385  1.0000
  F   F276      1.0  0.12418  0.50098  0.74650  1.0000
  F   F277      1.0  0.37732  0.00489  0.24374  1.0000
  F   F278      1.0  0.37159  0.99926  0.75254  1.0000
  F   F279      1.0  0.38270  0.51086  0.23881  1.0000
  F   F280      1.0  0.38846  0.51868  0.72346  1.0000
  F   F281      1.0  0.63080  0.99216  0.25208  1.0000
  F   F282      1.0  0.63622  0.01008  0.73024  1.0000
  F   F283      1.0  0.61817  0.51226  0.25831  1.0000
  F   F284      1.0  0.61899  0.49575  0.75708  1.0000
  F   F285      1.0  0.87840  0.99551  0.24548  1.0000
  F   F286      1.0  0.88184  0.00671  0.74496  1.0000
  F   F287      1.0  0.88185  0.49164  0.24303  1.0000
  F   F288      1.0  0.88695  0.50504  0.73482  1.0000
  F   F289      1.0  0.03785  0.03313  0.02506  1.0000
  F   F290      1.0  0.04306  0.03242  0.52628  1.0000
  F   F291      1.0  0.03320  0.53256  0.02555  1.0000
  F   F292      1.0  0.04485  0.52688  0.51298  1.0000
  F   F293      1.0  0.30513  0.02363  0.01507  1.0000
  F   F294      1.0  0.28973  0.02890  0.51784  1.0000
  F   F295      1.0  0.30336  0.53014  0.01090  1.0000
  F   F296      1.0  0.29847  0.52638  0.52413  1.0000
  F   F297      1.0  0.54613  0.04449  0.02469  1.0000
  F   F298      1.0  0.54878  0.02106  0.51721  1.0000
  F   F299      1.0  0.52869  0.54234  0.03058  1.0000
  F   F300      1.0  0.54693  0.52614  0.52144  1.0000
  F   F301      1.0  0.79027  0.03445  0.02959  1.0000
  F   F302      1.0  0.79158  0.03138  0.52958  1.0000
  F   F303      1.0  0.79246  0.53519  0.01725  1.0000
  F   F304      1.0  0.78543  0.53310  0.52537  1.0000
  F   F305      1.0  0.23690  0.42534  0.22822  1.0000
  F   F306      1.0  0.23495  0.41418  0.71945  1.0000
  F   F307      1.0  0.23823  0.90651  0.23428  1.0000
  F   F308      1.0  0.23506  0.92863  0.71417  1.0000
  F   F309      1.0  0.48029  0.41843  0.23040  1.0000
  F   F310      1.0  0.48223  0.39388  0.73129  1.0000
  F   F311      1.0  0.48453  0.91950  0.21916  1.0000
  F   F312      1.0  0.48798  0.89090  0.72964  1.0000
  F   F313      1.0  0.74142  0.42202  0.22816  1.0000
  F   F314      1.0  0.72990  0.42895  0.72352  1.0000
  F   F315      1.0  0.73222  0.89571  0.23578  1.0000
  F   F316      1.0  0.73831  0.90594  0.72721  1.0000
  F   F317      1.0  0.97852  0.41423  0.21857  1.0000
  F   F318      1.0  0.98449  0.41629  0.73265  1.0000
  F   F319      1.0  0.98165  0.91928  0.22294  1.0000
  F   F320      1.0  0.98219  0.90930  0.72274  1.0000
  F   F321      1.0  0.20494  0.45879  0.47377  1.0000
  F   F322      1.0  0.20134  0.46640  0.97640  1.0000
  F   F323      1.0  0.20745  0.97880  0.48308  1.0000
  F   F324      1.0  0.20863  0.96596  0.99098  1.0000
  F   F325      1.0  0.45695  0.47104  0.48093  1.0000
  F   F326      1.0  0.45362  0.46991  0.97373  1.0000
  F   F327      1.0  0.46102  0.97953  0.47611  1.0000
  F   F328      1.0  0.45838  0.98182  0.96216  1.0000
  F   F329      1.0  0.71098  0.48216  0.47417  1.0000
  F   F330      1.0  0.70971  0.47303  0.96605  1.0000
  F   F331      1.0  0.71153  0.96750  0.46846  1.0000
  F   F332      1.0  0.71318  0.96718  0.98006  1.0000
  F   F333      1.0  0.96267  0.45494  0.48542  1.0000
  F   F334      1.0  0.95453  0.47781  0.98277  1.0000
  F   F335      1.0  0.96316  0.96498  0.47295  1.0000
  F   F336      1.0  0.94933  0.96153  0.98200  1.0000
  F   F337      1.0  0.01979  0.08238  0.26975  1.0000
  F   F338      1.0  0.02269  0.07498  0.77065  1.0000
  F   F339      1.0  0.01523  0.57801  0.27851  1.0000
  F   F340      1.0  0.01716  0.57807  0.77074  1.0000
  F   F341      1.0  0.26162  0.10610  0.27970  1.0000
  F   F342      1.0  0.26294  0.08286  0.77508  1.0000
  F   F343      1.0  0.26130  0.59818  0.27218  1.0000
  F   F344      1.0  0.26093  0.58962  0.76569  1.0000
  F   F345      1.0  0.51692  0.09033  0.26835  1.0000
  F   F346      1.0  0.51236  0.09778  0.76878  1.0000
  F   F347      1.0  0.52173  0.57683  0.28544  1.0000
  F   F348      1.0  0.51933  0.59038  0.77150  1.0000
  F   F349      1.0  0.76328  0.09787  0.27578  1.0000
  F   F350      1.0  0.76963  0.09547  0.76826  1.0000
  F   F351      1.0  0.76529  0.58590  0.26533  1.0000
  F   F352      1.0  0.76993  0.58465  0.76532  1.0000
  F   F353      1.0  0.09755  0.39372  0.46711  1.0000
  F   F354      1.0  0.09861  0.42460  0.95681  1.0000
  F   F355      1.0  0.10064  0.90735  0.45996  1.0000
  F   F356      1.0  0.10805  0.90617  0.97066  1.0000
  F   F357      1.0  0.34887  0.41074  0.45713  1.0000
  F   F358      1.0  0.35428  0.40647  0.95098  1.0000
  F   F359      1.0  0.35301  0.92042  0.45163  1.0000
  F   F360      1.0  0.34666  0.89856  0.96963  1.0000
  F   F361      1.0  0.60406  0.39456  0.45825  1.0000
  F   F362      1.0  0.60354  0.43421  0.95794  1.0000
  F   F363      1.0  0.60292  0.89576  0.46032  1.0000
  F   F364      1.0  0.59673  0.93143  0.94686  1.0000
  F   F365      1.0  0.85557  0.42455  0.45896  1.0000
  F   F366      1.0  0.85249  0.41198  0.94689  1.0000
  F   F367      1.0  0.85158  0.91859  0.44951  1.0000
  F   F368      1.0  0.85043  0.90753  0.96051  1.0000
  F   F369      1.0  0.03320  0.29494  0.29636  1.0000
  F   F370      1.0  0.04116  0.28409  0.79800  1.0000
  F   F371      1.0  0.04100  0.79382  0.28596  1.0000
  F   F372      1.0  0.04817  0.79842  0.79590  1.0000
  F   F373      1.0  0.29933  0.28720  0.28494  1.0000
  F   F374      1.0  0.28700  0.30278  0.78668  1.0000
  F   F375      1.0  0.29712  0.79845  0.29921  1.0000
  F   F376      1.0  0.29101  0.79625  0.78398  1.0000
  F   F377      1.0  0.54553  0.30324  0.28057  1.0000
  F   F378      1.0  0.56261  0.30145  0.78038  1.0000
  F   F379      1.0  0.54425  0.79605  0.29679  1.0000
  F   F380      1.0  0.54484  0.79783  0.79339  1.0000
  F   F381      1.0  0.80446  0.29142  0.29471  1.0000
  F   F382      1.0  0.80477  0.29051  0.77489  1.0000
  F   F383      1.0  0.80184  0.79782  0.28245  1.0000
  F   F384      1.0  0.80123  0.80400  0.76688  1.0000
