data_image0
_chemical_formula_structural       Hf96F384
_chemical_formula_sum              "Hf96 F384"
_cell_length_a       31.0568
_cell_length_b       15.5236
_cell_length_c       15.52
_cell_angle_alpha    63.342
_cell_angle_beta     63.342
_cell_angle_gamma    80.1625

_space_group_name_H-M_alt    "P 1"
_space_group_IT_number       1

loop_
  _space_group_symop_operation_xyz
  'x, y, z'

loop_
  _atom_site_type_symbol
  _atom_site_label
  _atom_site_symmetry_multiplicity
  _atom_site_fract_x
  _atom_site_fract_y
  _atom_site_fract_z
  _atom_site_occupancy
  Hf  Hf1       1.0  0.19411  0.10810  0.38671  1.0000
  Hf  Hf2       1.0  0.19731  0.12141  0.86196  1.0000
  Hf  Hf3       1.0  0.19436  0.60848  0.37926  1.0000
  Hf  Hf4       1.0  0.19787  0.60733  0.87599  1.0000
  Hf  Hf5       1.0  0.44805  0.09889  0.38042  1.0000
  Hf  Hf6       1.0  0.44523  0.10116  0.87546  1.0000
  Hf  Hf7       1.0  0.44658  0.60257  0.37907  1.0000
  Hf  Hf8       1.0  0.44574  0.60069  0.87390  1.0000
  Hf  Hf9       1.0  0.69724  0.11785  0.36988  1.0000
  Hf  Hf10      1.0  0.69643  0.11262  0.87140  1.0000
  Hf  Hf11      1.0  0.69923  0.61178  0.37554  1.0000
  Hf  Hf12      1.0  0.70201  0.60881  0.86081  1.0000
  Hf  Hf13      1.0  0.94458  0.10672  0.37573  1.0000
  Hf  Hf14      1.0  0.94739  0.11864  0.86726  1.0000
  Hf  Hf15      1.0  0.94092  0.60193  0.37874  1.0000
  Hf  Hf16      1.0  0.94657  0.60700  0.88062  1.0000
  Hf  Hf17      1.0  0.05437  0.39031  0.13235  1.0000
  Hf  Hf18      1.0  0.05264  0.39119  0.62504  1.0000
  Hf  Hf19      1.0  0.05766  0.89801  0.12100  1.0000
  Hf  Hf20      1.0  0.05134  0.89649  0.62370  1.0000
  Hf  Hf21      1.0  0.30087  0.38386  0.13649  1.0000
  Hf  Hf22      1.0  0.30166  0.38973  0.63043  1.0000
  Hf  Hf23      1.0  0.29883  0.88534  0.14070  1.0000
  Hf  Hf24      1.0  0.30484  0.89518  0.61640  1.0000
  Hf  Hf25      1.0  0.54950  0.39141  0.12437  1.0000
  Hf  Hf26      1.0  0.55354  0.38794  0.62341  1.0000
  Hf  Hf27      1.0  0.55524  0.88306  0.12621  1.0000
  Hf  Hf28      1.0  0.55291  0.88448  0.63125  1.0000
  Hf  Hf29      1.0  0.80747  0.39379  0.12304  1.0000
  Hf  Hf30      1.0  0.80608  0.40020  0.61700  1.0000
  Hf  Hf31      1.0  0.80609  0.89648  0.12271  1.0000
  Hf  Hf32      1.0  0.80676  0.89522  0.61812  1.0000
  Hf  Hf33      1.0  0.05490  0.18081  0.41724  1.0000
  Hf  Hf34      1.0  0.05567  0.18333  0.91772  1.0000
  Hf  Hf35      1.0  0.05694  0.68484  0.41600  1.0000
  Hf  Hf36      1.0  0.05417  0.68961  0.92107  1.0000
  Hf  Hf37      1.0  0.30649  0.17339  0.42257  1.0000
  Hf  Hf38      1.0  0.30144  0.17139  0.92174  1.0000
  Hf  Hf39      1.0  0.30673  0.67717  0.41929  1.0000
  Hf  Hf40      1.0  0.30794  0.67858  0.92229  1.0000
  Hf  Hf41      1.0  0.55749  0.17561  0.41275  1.0000
  Hf  Hf42      1.0  0.55774  0.18150  0.91427  1.0000
  Hf  Hf43      1.0  0.55837  0.68625  0.41230  1.0000
  Hf  Hf44      1.0  0.55784  0.67115  0.91813  1.0000
  Hf  Hf45      1.0  0.80480  0.18940  0.41486  1.0000
  Hf  Hf46      1.0  0.80427  0.17910  0.92462  1.0000
  Hf  Hf47      1.0  0.80381  0.69098  0.41898  1.0000
  Hf  Hf48      1.0  0.80519  0.69781  0.91381  1.0000
  Hf  Hf49      1.0  0.15676  0.39165  0.32695  1.0000
  Hf  Hf50      1.0  0.15986  0.39297  0.83253  1.0000
  Hf  Hf51      1.0  0.15344  0.88513  0.34456  1.0000
  Hf  Hf52      1.0  0.15900  0.88982  0.83514  1.0000
  Hf  Hf53      1.0  0.40884  0.39069  0.32997  1.0000
  Hf  Hf54      1.0  0.40799  0.38189  0.83371  1.0000
  Hf  Hf55      1.0  0.41457  0.88431  0.32134  1.0000
  Hf  Hf56      1.0  0.41259  0.88484  0.82599  1.0000
  Hf  Hf57      1.0  0.66093  0.39335  0.33069  1.0000
  Hf  Hf58      1.0  0.65664  0.38522  0.83862  1.0000
  Hf  Hf59      1.0  0.66159  0.89688  0.32298  1.0000
  Hf  Hf60      1.0  0.65996  0.89100  0.83465  1.0000
  Hf  Hf61      1.0  0.91038  0.38545  0.32880  1.0000
  Hf  Hf62      1.0  0.90738  0.39405  0.83499  1.0000
  Hf  Hf63      1.0  0.90957  0.88605  0.33258  1.0000
  Hf  Hf64      1.0  0.90861  0.89061  0.83332  1.0000
  Hf  Hf65      1.0  0.19797  0.30851  0.08396  1.0000
  Hf  Hf66      1.0  0.18870  0.31870  0.58888  1.0000
  Hf  Hf67      1.0  0.19544  0.82114  0.08246  1.0000
  Hf  Hf68      1.0  0.19567  0.81833  0.57885  1.0000
  Hf  Hf69      1.0  0.44018  0.30811  0.08186  1.0000
  Hf  Hf70      1.0  0.44257  0.31069  0.59029  1.0000
  Hf  Hf71      1.0  0.44389  0.80915  0.08024  1.0000
  Hf  Hf72      1.0  0.44513  0.81492  0.58056  1.0000
  Hf  Hf73      1.0  0.69256  0.32107  0.08776  1.0000
  Hf  Hf74      1.0  0.69565  0.31717  0.57671  1.0000
  Hf  Hf75      1.0  0.69550  0.82779  0.08281  1.0000
  Hf  Hf76      1.0  0.69722  0.82280  0.57251  1.0000
  Hf  Hf77      1.0  0.94342  0.31006  0.08919  1.0000
  Hf  Hf78      1.0  0.94168  0.32263  0.58245  1.0000
  Hf  Hf79      1.0  0.94535  0.83833  0.07388  1.0000
  Hf  Hf80      1.0  0.94591  0.81953  0.58113  1.0000
  Hf  Hf81      1.0  0.09038  0.11128  0.16559  1.0000
  Hf  Hf82      1.0  0.09004  0.11107  0.66843  1.0000
  Hf  Hf83      1.0  0.08829  0.61246  0.16816  1.0000
  Hf  Hf84      1.0  0.08721  0.60827  0.67305  1.0000
  Hf  Hf85      1.0  0.33832  0.10401  0.17802  1.0000
  Hf  Hf86      1.0  0.34325  0.11066  0.66869  1.0000
  Hf  Hf87      1.0  0.33634  0.61289  0.16633  1.0000
  Hf  Hf88      1.0  0.34061  0.61020  0.67004  1.0000
  Hf  Hf89      1.0  0.59319  0.11005  0.16516  1.0000
  Hf  Hf90      1.0  0.59029  0.11035  0.66576  1.0000
  Hf  Hf91      1.0  0.59219  0.61018  0.16433  1.0000
  Hf  Hf92      1.0  0.59456  0.61081  0.65998  1.0000
  Hf  Hf93      1.0  0.84144  0.11219  0.16955  1.0000
  Hf  Hf94      1.0  0.83984  0.11939  0.66554  1.0000
  Hf  Hf95      1.0  0.84016  0.61271  0.17093  1.0000
  Hf  Hf96      1.0  0.84281  0.61139  0.67065  1.0000
  F   F1        1.0  0.07583  0.13601  0.30119  1.0000
  F   F2        1.0  0.07437  0.12567  0.80759  1.0000
  F   F3        1.0  0.07906  0.63798  0.29064  1.0000
  F   F4        1.0  0.08125  0.64264  0.79323  1.0000
  F   F5        1.0  0.32942  0.13064  0.30197  1.0000
  F   F6        1.0  0.32747  0.11382  0.80871  1.0000
  F   F7        1.0  0.33249  0.63880  0.29354  1.0000
  F   F8        1.0  0.33453  0.62357  0.80963  1.0000
  F   F9        1.0  0.58661  0.15353  0.27913  1.0000
  F   F10       1.0  0.57379  0.12575  0.80765  1.0000
  F   F11       1.0  0.57785  0.63402  0.29877  1.0000
  F   F12       1.0  0.57963  0.60921  0.81778  1.0000
  F   F13       1.0  0.83049  0.13356  0.30624  1.0000
  F   F14       1.0  0.83393  0.12617  0.79785  1.0000
  F   F15       1.0  0.83267  0.65409  0.28953  1.0000
  F   F16       1.0  0.82634  0.62394  0.80495  1.0000
  F   F17       1.0  0.18518  0.35372  0.44096  1.0000
  F   F18       1.0  0.18353  0.32623  0.96250  1.0000
  F   F19       1.0  0.17849  0.83664  0.45885  1.0000
  F   F20       1.0  0.19046  0.84375  0.94578  1.0000
  F   F21       1.0  0.43260  0.33289  0.45399  1.0000
  F   F22       1.0  0.43863  0.34239  0.94107  1.0000
  F   F23       1.0  0.44331  0.84652  0.43121  1.0000
  F   F24       1.0  0.44066  0.83671  0.93691  1.0000
  F   F25       1.0  0.68954  0.34555  0.44149  1.0000
  F   F26       1.0  0.68676  0.34672  0.94782  1.0000
  F   F27       1.0  0.68505  0.84803  0.44438  1.0000
  F   F28       1.0  0.68447  0.84679  0.95002  1.0000
  F   F29       1.0  0.93167  0.33917  0.44593  1.0000
  F   F30       1.0  0.93170  0.34544  0.94378  1.0000
  F   F31       1.0  0.93065  0.83063  0.45290  1.0000
  F   F32       1.0  0.93180  0.84867  0.95048  1.0000
  F   F33       1.0  0.16882  0.37311  0.19370  1.0000
  F   F34       1.0  0.16761  0.38228  0.69880  1.0000
  F   F35       1.0  0.16564  0.87503  0.20140  1.0000
  F   F36       1.0  0.17329  0.87257  0.69433  1.0000
  F   F37       1.0  0.42138  0.37197  0.19663  1.0000
  F   F38       1.0  0.42631  0.37491  0.68723  1.0000
  F   F39       1.0  0.42191  0.87340  0.18779  1.0000
  F   F40       1.0  0.41890  0.85615  0.70338  1.0000
  F   F41       1.0  0.66936  0.38646  0.18360  1.0000
  F   F42       1.0  0.67266  0.38013  0.69554  1.0000
  F   F43       1.0  0.66418  0.87347  0.19186  1.0000
  F   F44       1.0  0.67321  0.87036  0.69705  1.0000
  F   F45       1.0  0.92261  0.37801  0.18199  1.0000
  F   F46       1.0  0.91716  0.37136  0.69596  1.0000
  F   F47       1.0  0.92604  0.89682  0.17536  1.0000
  F   F48       1.0  0.91929  0.85096  0.70967  1.0000
  F   F49       1.0  0.05139  0.16674  0.06219  1.0000
  F   F50       1.0  0.06358  0.15900  0.54815  1.0000
  F   F51       1.0  0.05608  0.65559  0.06002  1.0000
  F   F52       1.0  0.05979  0.65422  0.55528  1.0000
  F   F53       1.0  0.30855  0.15223  0.07197  1.0000
  F   F54       1.0  0.31202  0.14642  0.56248  1.0000
  F   F55       1.0  0.30763  0.63781  0.06569  1.0000
  F   F56       1.0  0.30864  0.66979  0.55657  1.0000
  F   F57       1.0  0.56237  0.15649  0.05328  1.0000
  F   F58       1.0  0.55409  0.15181  0.55796  1.0000
  F   F59       1.0  0.57082  0.65836  0.04275  1.0000
  F   F60       1.0  0.55791  0.65622  0.56597  1.0000
  F   F61       1.0  0.80870  0.14535  0.07227  1.0000
  F   F62       1.0  0.80923  0.16981  0.54798  1.0000
  F   F63       1.0  0.80948  0.65167  0.07106  1.0000
  F   F64       1.0  0.81476  0.68033  0.54886  1.0000
  F   F65       1.0  0.20527  0.18482  0.21367  1.0000
  F   F66       1.0  0.19504  0.20462  0.71582  1.0000
  F   F67       1.0  0.20150  0.71113  0.21889  1.0000
  F   F68       1.0  0.21050  0.69863  0.70681  1.0000
  F   F69       1.0  0.46032  0.21415  0.18939  1.0000
  F   F70       1.0  0.44837  0.19704  0.72090  1.0000
  F   F71       1.0  0.44719  0.69720  0.21285  1.0000
  F   F72       1.0  0.45177  0.68964  0.70962  1.0000
  F   F73       1.0  0.70264  0.21693  0.21439  1.0000
  F   F74       1.0  0.71271  0.19922  0.70762  1.0000
  F   F75       1.0  0.71301  0.70589  0.21282  1.0000
  F   F76       1.0  0.71134  0.71560  0.70618  1.0000
  F   F77       1.0  0.95368  0.19890  0.21193  1.0000
  F   F78       1.0  0.95466  0.19938  0.71198  1.0000
  F   F79       1.0  0.94409  0.71727  0.20113  1.0000
  F   F80       1.0  0.95329  0.70449  0.69497  1.0000
  F   F81       1.0  0.14681  0.09665  0.04738  1.0000
  F   F82       1.0  0.14765  0.10560  0.54528  1.0000
  F   F83       1.0  0.14777  0.58667  0.03876  1.0000
  F   F84       1.0  0.14760  0.59303  0.53768  1.0000
  F   F85       1.0  0.39158  0.08279  0.04923  1.0000
  F   F86       1.0  0.39543  0.09183  0.53673  1.0000
  F   F87       1.0  0.39124  0.57862  0.05003  1.0000
  F   F88       1.0  0.39903  0.59761  0.54424  1.0000
  F   F89       1.0  0.65157  0.09324  0.02823  1.0000
  F   F90       1.0  0.64893  0.10199  0.53057  1.0000
  F   F91       1.0  0.64957  0.60292  0.04478  1.0000
  F   F92       1.0  0.64877  0.60109  0.53313  1.0000
  F   F93       1.0  0.90348  0.10525  0.03736  1.0000
  F   F94       1.0  0.89681  0.11163  0.53695  1.0000
  F   F95       1.0  0.89735  0.57971  0.02481  1.0000
  F   F96       1.0  0.89903  0.59095  0.53719  1.0000
  F   F97       1.0  0.15634  0.18873  0.13177  1.0000
  F   F98       1.0  0.14662  0.20693  0.62672  1.0000
  F   F99       1.0  0.15424  0.68317  0.13114  1.0000
  F   F100      1.0  0.15351  0.69518  0.62435  1.0000
  F   F101      1.0  0.40523  0.18443  0.12330  1.0000
  F   F102      1.0  0.39783  0.18018  0.64424  1.0000
  F   F103      1.0  0.40043  0.70229  0.10209  1.0000
  F   F104      1.0  0.40027  0.70679  0.61821  1.0000
  F   F105      1.0  0.65721  0.19157  0.12235  1.0000
  F   F106      1.0  0.65385  0.19926  0.64234  1.0000
  F   F107      1.0  0.65229  0.71112  0.12598  1.0000
  F   F108      1.0  0.66076  0.69322  0.61891  1.0000
  F   F109      1.0  0.90295  0.20017  0.12025  1.0000
  F   F110      1.0  0.90004  0.19381  0.63301  1.0000
  F   F111      1.0  0.90211  0.67808  0.11693  1.0000
  F   F112      1.0  0.89234  0.71010  0.63390  1.0000
  F   F113      1.0  0.10411  0.29549  0.36513  1.0000
  F   F114      1.0  0.09961  0.29567  0.87207  1.0000
  F   F115      1.0  0.09149  0.79670  0.39813  1.0000
  F   F116      1.0  0.09269  0.81695  0.88770  1.0000
  F   F117      1.0  0.35434  0.29371  0.37269  1.0000
  F   F118      1.0  0.34452  0.30521  0.86215  1.0000
  F   F119      1.0  0.35490  0.79995  0.35624  1.0000
  F   F120      1.0  0.34788  0.80054  0.87807  1.0000
  F   F121      1.0  0.60002  0.30806  0.37676  1.0000
  F   F122      1.0  0.59549  0.30864  0.88457  1.0000
  F   F123      1.0  0.60094  0.79653  0.38016  1.0000
  F   F124      1.0  0.59880  0.79228  0.85067  1.0000
  F   F125      1.0  0.85116  0.30330  0.36607  1.0000
  F   F126      1.0  0.85224  0.31519  0.87546  1.0000
  F   F127      1.0  0.84663  0.81289  0.35860  1.0000
  F   F128      1.0  0.84912  0.81294  0.88963  1.0000
  F   F129      1.0  0.07746  0.25747  0.13654  1.0000
  F   F130      1.0  0.06842  0.25139  0.62946  1.0000
  F   F131      1.0  0.06810  0.75762  0.11927  1.0000
  F   F132      1.0  0.05944  0.74665  0.63896  1.0000
  F   F133      1.0  0.32529  0.25025  0.12289  1.0000
  F   F134      1.0  0.32218  0.24950  0.62148  1.0000
  F   F135      1.0  0.30839  0.74367  0.13603  1.0000
  F   F136      1.0  0.30871  0.74704  0.65909  1.0000
  F   F137      1.0  0.56627  0.25215  0.13250  1.0000
  F   F138      1.0  0.56858  0.24805  0.63231  1.0000
  F   F139      1.0  0.56111  0.74472  0.14641  1.0000
  F   F140      1.0  0.57675  0.74753  0.63510  1.0000
  F   F141      1.0  0.82066  0.25672  0.13363  1.0000
  F   F142      1.0  0.82573  0.25863  0.63291  1.0000
  F   F143      1.0  0.81758  0.75450  0.13851  1.0000
  F   F144      1.0  0.81094  0.75401  0.65085  1.0000
  F   F145      1.0  0.12267  0.37671  0.10750  1.0000
  F   F146      1.0  0.12623  0.39143  0.59479  1.0000
  F   F147      1.0  0.12923  0.87166  0.10592  1.0000
  F   F148      1.0  0.12497  0.86602  0.61846  1.0000
  F   F149      1.0  0.36823  0.34880  0.12745  1.0000
  F   F150      1.0  0.37455  0.35590  0.62286  1.0000
  F   F151      1.0  0.36796  0.84408  0.12051  1.0000
  F   F152      1.0  0.37709  0.87854  0.60186  1.0000
  F   F153      1.0  0.61735  0.35411  0.13354  1.0000
  F   F154      1.0  0.62485  0.36976  0.60685  1.0000
  F   F155      1.0  0.62781  0.88674  0.09080  1.0000
  F   F156      1.0  0.62611  0.86192  0.61589  1.0000
  F   F157      1.0  0.87769  0.37462  0.10591  1.0000
  F   F158      1.0  0.87459  0.38980  0.59685  1.0000
  F   F159      1.0  0.87410  0.87066  0.12695  1.0000
  F   F160      1.0  0.87423  0.89516  0.59244  1.0000
  F   F161      1.0  0.18186  0.24723  0.36240  1.0000
  F   F162      1.0  0.18968  0.25134  0.84736  1.0000
  F   F163      1.0  0.18113  0.75563  0.35945  1.0000
  F   F164      1.0  0.18915  0.74852  0.86251  1.0000
  F   F165      1.0  0.44258  0.24141  0.35072  1.0000
  F   F166      1.0  0.43005  0.23554  0.87322  1.0000
  F   F167      1.0  0.44403  0.74145  0.34335  1.0000
  F   F168      1.0  0.44194  0.74405  0.84897  1.0000
  F   F169      1.0  0.68076  0.25514  0.35966  1.0000
  F   F170      1.0  0.68661  0.25122  0.85718  1.0000
  F   F171      1.0  0.68507  0.74679  0.36320  1.0000
  F   F172      1.0  0.67027  0.75125  0.88341  1.0000
  F   F173      1.0  0.93410  0.24771  0.35574  1.0000
  F   F174      1.0  0.93859  0.25661  0.84649  1.0000
  F   F175      1.0  0.92861  0.74260  0.35969  1.0000
  F   F176      1.0  0.94129  0.74322  0.86682  1.0000
  F   F177      1.0  0.12434  0.11825  0.39869  1.0000
  F   F178      1.0  0.12520  0.12023  0.90722  1.0000
  F   F179      1.0  0.12088  0.63225  0.40247  1.0000
  F   F180      1.0  0.13043  0.66523  0.87138  1.0000
  F   F181      1.0  0.37652  0.13778  0.38596  1.0000
  F   F182      1.0  0.36948  0.13714  0.88760  1.0000
  F   F183      1.0  0.37385  0.62699  0.40131  1.0000
  F   F184      1.0  0.37671  0.63204  0.89394  1.0000
  F   F185      1.0  0.62597  0.12389  0.39237  1.0000
  F   F186      1.0  0.62456  0.13849  0.87652  1.0000
  F   F187      1.0  0.62407  0.63105  0.39505  1.0000
  F   F188      1.0  0.62893  0.60954  0.90358  1.0000
  F   F189      1.0  0.87535  0.11764  0.39580  1.0000
  F   F190      1.0  0.87529  0.14219  0.89621  1.0000
  F   F191      1.0  0.87453  0.62265  0.39191  1.0000
  F   F192      1.0  0.87726  0.64280  0.87505  1.0000
  F   F193      1.0  0.01401  0.34446  0.08888  1.0000
  F   F194      1.0  0.00005  0.34670  0.60455  1.0000
  F   F195      1.0  0.01454  0.86222  0.05737  1.0000
  F   F196      1.0  0.00515  0.87538  0.56649  1.0000
  F   F197      1.0  0.25826  0.35200  0.07692  1.0000
  F   F198      1.0  0.25212  0.35252  0.60231  1.0000
  F   F199      1.0  0.26221  0.87425  0.06401  1.0000
  F   F200      1.0  0.25501  0.86263  0.57421  1.0000
  F   F201      1.0  0.50530  0.36855  0.06752  1.0000
  F   F202      1.0  0.51259  0.35423  0.56697  1.0000
  F   F203      1.0  0.50450  0.86289  0.07737  1.0000
  F   F204      1.0  0.50577  0.84796  0.59950  1.0000
  F   F205      1.0  0.75728  0.35863  0.07143  1.0000
  F   F206      1.0  0.75968  0.35358  0.57397  1.0000
  F   F207      1.0  0.75948  0.86982  0.05938  1.0000
  F   F208      1.0  0.75817  0.87511  0.54837  1.0000
  F   F209      1.0  0.06878  0.48320  0.18540  1.0000
  F   F210      1.0  0.06703  0.47955  0.68504  1.0000
  F   F211      1.0  0.06655  0.98957  0.17289  1.0000
  F   F212      1.0  0.07067  0.98908  0.66984  1.0000
  F   F213      1.0  0.31455  0.46751  0.19619  1.0000
  F   F214      1.0  0.32046  0.48993  0.65969  1.0000
  F   F215      1.0  0.31544  0.97248  0.20036  1.0000
  F   F216      1.0  0.31591  0.97868  0.67603  1.0000
  F   F217      1.0  0.56817  0.48101  0.17629  1.0000
  F   F218      1.0  0.57081  0.47343  0.68188  1.0000
  F   F219      1.0  0.57563  0.98056  0.19074  1.0000
  F   F220      1.0  0.57226  0.99025  0.66019  1.0000
  F   F221      1.0  0.82566  0.48099  0.17394  1.0000
  F   F222      1.0  0.82321  0.48167  0.68572  1.0000
  F   F223      1.0  0.81212  0.97213  0.19080  1.0000
  F   F224      1.0  0.81814  0.98014  0.67319  1.0000
  F   F225      1.0  0.24052  0.14426  0.42893  1.0000
  F   F226      1.0  0.23988  0.12697  0.93500  1.0000
  F   F227      1.0  0.24216  0.63648  0.42369  1.0000
  F   F228      1.0  0.24497  0.63550  0.92107  1.0000
  F   F229      1.0  0.49242  0.11983  0.44861  1.0000
  F   F230      1.0  0.49111  0.12917  0.93498  1.0000
  F   F231      1.0  0.49663  0.64140  0.42445  1.0000
  F   F232      1.0  0.49126  0.62903  0.92798  1.0000
  F   F233      1.0  0.74212  0.14706  0.42398  1.0000
  F   F234      1.0  0.74151  0.13355  0.92760  1.0000
  F   F235      1.0  0.74193  0.62728  0.43698  1.0000
  F   F236      1.0  0.74445  0.65479  0.91259  1.0000
  F   F237      1.0  0.98653  0.14554  0.42106  1.0000
  F   F238      1.0  0.99381  0.13523  0.92736  1.0000
  F   F239      1.0  0.99128  0.64124  0.42723  1.0000
  F   F240      1.0  0.99888  0.62862  0.92034  1.0000
  F   F241      1.0  0.18124  0.00491  0.33448  1.0000
  F   F242      1.0  0.18903  0.01241  0.80476  1.0000
  F   F243      1.0  0.18055  0.52017  0.32064  1.0000
  F   F244      1.0  0.17671  0.50691  0.83956  1.0000
  F   F245      1.0  0.42565  0.00964  0.34069  1.0000
  F   F246      1.0  0.43174  0.01711  0.81294  1.0000
  F   F247      1.0  0.42612  0.51261  0.33895  1.0000
  F   F248      1.0  0.42731  0.50823  0.83207  1.0000
  F   F249      1.0  0.68418  0.02652  0.31054  1.0000
  F   F250      1.0  0.67388  0.01246  0.83397  1.0000
  F   F251      1.0  0.67996  0.51784  0.31751  1.0000
  F   F252      1.0  0.68300  0.51567  0.81316  1.0000
  F   F253      1.0  0.93424  0.00800  0.31552  1.0000
  F   F254      1.0  0.93154  0.01323  0.83008  1.0000
  F   F255      1.0  0.93722  0.50759  0.32339  1.0000
  F   F256      1.0  0.93449  0.52933  0.81994  1.0000
  F   F257      1.0  0.00201  0.27635  0.97790  1.0000
  F   F258      1.0  0.00507  0.26567  0.48676  1.0000
  F   F259      1.0  0.99192  0.75263  0.99449  1.0000
  F   F260      1.0  0.99262  0.75270  0.49714  1.0000
  F   F261      1.0  0.25452  0.25539  0.98712  1.0000
  F   F262      1.0  0.25004  0.24962  0.51505  1.0000
  F   F263      1.0  0.24875  0.73795  0.01577  1.0000
  F   F264      1.0  0.25699  0.76988  0.47184  1.0000
  F   F265      1.0  0.50146  0.25209  0.98754  1.0000
  F   F266      1.0  0.49993  0.26403  0.48478  1.0000
  F   F267      1.0  0.50104  0.74394  0.99335  1.0000
  F   F268      1.0  0.50550  0.76491  0.49771  1.0000
  F   F269      1.0  0.75172  0.25340  0.00440  1.0000
  F   F270      1.0  0.75043  0.26639  0.48054  1.0000
  F   F271      1.0  0.75270  0.75117  0.00333  1.0000
  F   F272      1.0  0.74846  0.74025  0.50783  1.0000
  F   F273      1.0  0.11597  0.99114  0.27315  1.0000
  F   F274      1.0  0.12356  0.99684  0.74674  1.0000
  F   F275      1.0  0.11976  0.50373  0.25820  1.0000
  F   F276      1.0  0.12488  0.50808  0.74451  1.0000
  F   F277      1.0  0.37929  0.99707  0.24985  1.0000
  F   F278      1.0  0.37596  0.98843  0.74896  1.0000
  F   F279      1.0  0.37291  0.49322  0.25733  1.0000
  F   F280      1.0  0.37418  0.49573  0.75457  1.0000
  F   F281      1.0  0.62559  0.00848  0.25993  1.0000
  F   F282      1.0  0.61913  0.99832  0.75323  1.0000
  F   F283      1.0  0.61729  0.50171  0.26236  1.0000
  F   F284      1.0  0.62841  0.50140  0.73851  1.0000
  F   F285      1.0  0.87296  0.99676  0.24703  1.0000
  F   F286      1.0  0.88242  0.00895  0.73534  1.0000
  F   F287      1.0  0.87023  0.49122  0.26239  1.0000
  F   F288      1.0  0.88003  0.51891  0.74574  1.0000
  F   F289      1.0  0.04675  0.02546  0.03418  1.0000
  F   F290      1.0  0.03624  0.03351  0.53005  1.0000
  F   F291      1.0  0.05934  0.52843  0.01190  1.0000
  F   F292      1.0  0.04671  0.52273  0.51733  1.0000
  F   F293      1.0  0.30305  0.02514  0.02404  1.0000
  F   F294      1.0  0.29355  0.02865  0.50890  1.0000
  F   F295      1.0  0.29262  0.51475  0.02590  1.0000
  F   F296      1.0  0.28517  0.53760  0.52840  1.0000
  F   F297      1.0  0.54877  0.02485  0.02872  1.0000
  F   F298      1.0  0.55636  0.01700  0.50821  1.0000
  F   F299      1.0  0.54069  0.52657  0.03082  1.0000
  F   F300      1.0  0.54197  0.52769  0.52202  1.0000
  F   F301      1.0  0.79045  0.03005  0.02428  1.0000
  F   F302      1.0  0.79058  0.03448  0.52808  1.0000
  F   F303      1.0  0.78777  0.52942  0.03486  1.0000
  F   F304      1.0  0.79486  0.53374  0.52353  1.0000
  F   F305      1.0  0.23172  0.40638  0.22715  1.0000
  F   F306      1.0  0.23658  0.43771  0.71727  1.0000
  F   F307      1.0  0.23104  0.92841  0.22224  1.0000
  F   F308      1.0  0.23901  0.88966  0.72961  1.0000
  F   F309      1.0  0.48123  0.42009  0.22585  1.0000
  F   F310      1.0  0.48236  0.40591  0.72998  1.0000
  F   F311      1.0  0.48895  0.90950  0.22489  1.0000
  F   F312      1.0  0.48628  0.92203  0.71267  1.0000
  F   F313      1.0  0.73332  0.40150  0.23377  1.0000
  F   F314      1.0  0.73848  0.41090  0.72735  1.0000
  F   F315      1.0  0.73447  0.90578  0.21838  1.0000
  F   F316      1.0  0.73721  0.89213  0.73560  1.0000
  F   F317      1.0  0.98332  0.42786  0.21669  1.0000
  F   F318      1.0  0.98306  0.43386  0.72096  1.0000
  F   F319      1.0  0.98581  0.88615  0.23836  1.0000
  F   F320      1.0  0.98559  0.91114  0.72833  1.0000
  F   F321      1.0  0.21175  0.46901  0.47847  1.0000
  F   F322      1.0  0.21488  0.46934  0.95879  1.0000
  F   F323      1.0  0.20598  0.97336  0.48545  1.0000
  F   F324      1.0  0.20337  0.97961  0.96375  1.0000
  F   F325      1.0  0.44831  0.46668  0.48918  1.0000
  F   F326      1.0  0.45140  0.46778  0.98070  1.0000
  F   F327      1.0  0.45556  0.96409  0.50211  1.0000
  F   F328      1.0  0.44908  0.96545  0.97361  1.0000
  F   F329      1.0  0.70364  0.47436  0.47459  1.0000
  F   F330      1.0  0.70286  0.48472  0.96903  1.0000
  F   F331      1.0  0.70082  0.97828  0.47064  1.0000
  F   F332      1.0  0.70661  0.98477  0.97672  1.0000
  F   F333      1.0  0.96540  0.46670  0.46616  1.0000
  F   F334      1.0  0.96243  0.46859  0.97496  1.0000
  F   F335      1.0  0.95366  0.97055  0.47561  1.0000
  F   F336      1.0  0.95655  0.98087  0.97791  1.0000
  F   F337      1.0  0.01627  0.09348  0.26163  1.0000
  F   F338      1.0  0.01514  0.08364  0.77212  1.0000
  F   F339      1.0  0.00835  0.60753  0.26928  1.0000
  F   F340      1.0  0.01498  0.59358  0.76650  1.0000
  F   F341      1.0  0.26164  0.08382  0.29109  1.0000
  F   F342      1.0  0.26825  0.10966  0.76042  1.0000
  F   F343      1.0  0.26536  0.57543  0.28109  1.0000
  F   F344      1.0  0.26942  0.57054  0.78072  1.0000
  F   F345      1.0  0.51628  0.08286  0.28388  1.0000
  F   F346      1.0  0.51071  0.07022  0.78799  1.0000
  F   F347      1.0  0.51237  0.57692  0.26974  1.0000
  F   F348      1.0  0.51662  0.59312  0.76704  1.0000
  F   F349      1.0  0.76828  0.08891  0.28138  1.0000
  F   F350      1.0  0.76779  0.09225  0.77555  1.0000
  F   F351      1.0  0.76487  0.56701  0.28392  1.0000
  F   F352      1.0  0.76657  0.58548  0.76634  1.0000
  F   F353      1.0  0.10030  0.40071  0.46808  1.0000
  F   F354      1.0  0.10068  0.39844  0.95482  1.0000
  F   F355      1.0  0.09838  0.90466  0.47402  1.0000
  F   F356      1.0  0.11116  0.93510  0.94933  1.0000
  F   F357      1.0  0.34822  0.40327  0.47363  1.0000
  F   F358      1.0  0.35476  0.40571  0.96348  1.0000
  F   F359      1.0  0.35497  0.88163  0.46352  1.0000
  F   F360      1.0  0.35344  0.89946  0.95139  1.0000
  F   F361      1.0  0.59985  0.40483  0.47572  1.0000
  F   F362      1.0  0.60283  0.41231  0.96544  1.0000
  F   F363      1.0  0.60823  0.89607  0.46544  1.0000
  F   F364      1.0  0.59779  0.89593  0.95229  1.0000
  F   F365      1.0  0.85094  0.41618  0.45605  1.0000
  F   F366      1.0  0.85322  0.42554  0.95684  1.0000
  F   F367      1.0  0.84882  0.89934  0.45201  1.0000
  F   F368      1.0  0.85509  0.91075  0.97105  1.0000
  F   F369      1.0  0.04574  0.30216  0.28901  1.0000
  F   F370      1.0  0.04798  0.29645  0.77563  1.0000
  F   F371      1.0  0.05443  0.80899  0.28164  1.0000
  F   F372      1.0  0.04603  0.80456  0.78976  1.0000
  F   F373      1.0  0.29178  0.29097  0.29243  1.0000
  F   F374      1.0  0.28829  0.28926  0.78378  1.0000
  F   F375      1.0  0.28514  0.80029  0.29202  1.0000
  F   F376      1.0  0.29697  0.79937  0.80642  1.0000
  F   F377      1.0  0.53684  0.29464  0.29172  1.0000
  F   F378      1.0  0.55179  0.29307  0.78809  1.0000
  F   F379      1.0  0.55123  0.80330  0.28557  1.0000
  F   F380      1.0  0.54261  0.79364  0.78237  1.0000
  F   F381      1.0  0.79572  0.30038  0.28989  1.0000
  F   F382      1.0  0.80672  0.28479  0.79358  1.0000
  F   F383      1.0  0.78676  0.79841  0.28724  1.0000
  F   F384      1.0  0.79878  0.80667  0.78638  1.0000
