data_image0
_chemical_formula_structural       Hf96F384
_chemical_formula_sum              "Hf96 F384"
_cell_length_a       31.0295
_cell_length_b       15.5153
_cell_length_c       15.5074
_cell_angle_alpha    63.342
_cell_angle_beta     63.342
_cell_angle_gamma    80.1625

_space_group_name_H-M_alt    "P 1"
_space_group_IT_number       1

loop_
  _space_group_symop_operation_xyz
  'x, y, z'

loop_
  _atom_site_type_symbol
  _atom_site_label
  _atom_site_symmetry_multiplicity
  _atom_site_fract_x
  _atom_site_fract_y
  _atom_site_fract_z
  _atom_site_occupancy
  Hf  Hf1       1.0  0.19602  0.11268  0.37411  1.0000
  Hf  Hf2       1.0  0.19594  0.11130  0.87473  1.0000
  Hf  Hf3       1.0  0.19546  0.60524  0.37833  1.0000
  Hf  Hf4       1.0  0.20030  0.61019  0.86770  1.0000
  Hf  Hf5       1.0  0.44383  0.11055  0.38204  1.0000
  Hf  Hf6       1.0  0.44727  0.11050  0.87605  1.0000
  Hf  Hf7       1.0  0.44778  0.61026  0.37289  1.0000
  Hf  Hf8       1.0  0.44707  0.60695  0.88297  1.0000
  Hf  Hf9       1.0  0.69183  0.09802  0.38219  1.0000
  Hf  Hf10      1.0  0.69796  0.10886  0.86579  1.0000
  Hf  Hf11      1.0  0.69625  0.60417  0.37005  1.0000
  Hf  Hf12      1.0  0.69559  0.60147  0.87313  1.0000
  Hf  Hf13      1.0  0.94531  0.10644  0.37157  1.0000
  Hf  Hf14      1.0  0.94476  0.10939  0.87030  1.0000
  Hf  Hf15      1.0  0.94863  0.60317  0.36901  1.0000
  Hf  Hf16      1.0  0.94491  0.59855  0.88209  1.0000
  Hf  Hf17      1.0  0.05538  0.39181  0.12433  1.0000
  Hf  Hf18      1.0  0.05137  0.39305  0.62496  1.0000
  Hf  Hf19      1.0  0.05610  0.89140  0.12061  1.0000
  Hf  Hf20      1.0  0.05400  0.88814  0.61896  1.0000
  Hf  Hf21      1.0  0.30333  0.39535  0.11816  1.0000
  Hf  Hf22      1.0  0.30433  0.40418  0.61615  1.0000
  Hf  Hf23      1.0  0.30321  0.88487  0.13238  1.0000
  Hf  Hf24      1.0  0.30559  0.89614  0.62198  1.0000
  Hf  Hf25      1.0  0.55557  0.39027  0.12732  1.0000
  Hf  Hf26      1.0  0.55265  0.39196  0.63208  1.0000
  Hf  Hf27      1.0  0.55007  0.88984  0.13816  1.0000
  Hf  Hf28      1.0  0.55476  0.88516  0.61998  1.0000
  Hf  Hf29      1.0  0.80358  0.38991  0.12877  1.0000
  Hf  Hf30      1.0  0.80214  0.39120  0.63092  1.0000
  Hf  Hf31      1.0  0.80570  0.89079  0.12179  1.0000
  Hf  Hf32      1.0  0.80424  0.89546  0.62071  1.0000
  Hf  Hf33      1.0  0.05469  0.17973  0.41868  1.0000
  Hf  Hf34      1.0  0.05360  0.18376  0.91065  1.0000
  Hf  Hf35      1.0  0.05594  0.68497  0.41831  1.0000
  Hf  Hf36      1.0  0.05798  0.68887  0.91390  1.0000
  Hf  Hf37      1.0  0.30650  0.18849  0.41920  1.0000
  Hf  Hf38      1.0  0.30607  0.17885  0.92744  1.0000
  Hf  Hf39      1.0  0.30918  0.68780  0.41690  1.0000
  Hf  Hf40      1.0  0.30779  0.69686  0.90994  1.0000
  Hf  Hf41      1.0  0.55391  0.17978  0.42395  1.0000
  Hf  Hf42      1.0  0.55328  0.18258  0.92436  1.0000
  Hf  Hf43      1.0  0.55381  0.68264  0.41799  1.0000
  Hf  Hf44      1.0  0.55741  0.68645  0.91457  1.0000
  Hf  Hf45      1.0  0.80206  0.17768  0.41416  1.0000
  Hf  Hf46      1.0  0.80461  0.18314  0.91824  1.0000
  Hf  Hf47      1.0  0.80858  0.68403  0.41430  1.0000
  Hf  Hf48      1.0  0.80393  0.68364  0.91057  1.0000
  Hf  Hf49      1.0  0.15537  0.38995  0.34016  1.0000
  Hf  Hf50      1.0  0.16160  0.39015  0.83972  1.0000
  Hf  Hf51      1.0  0.16039  0.89385  0.32534  1.0000
  Hf  Hf52      1.0  0.16270  0.89051  0.82538  1.0000
  Hf  Hf53      1.0  0.41023  0.38555  0.33137  1.0000
  Hf  Hf54      1.0  0.40767  0.39153  0.83051  1.0000
  Hf  Hf55      1.0  0.40984  0.89350  0.34046  1.0000
  Hf  Hf56      1.0  0.41200  0.89547  0.83188  1.0000
  Hf  Hf57      1.0  0.65609  0.38470  0.33366  1.0000
  Hf  Hf58      1.0  0.65978  0.38586  0.83141  1.0000
  Hf  Hf59      1.0  0.66001  0.88216  0.32922  1.0000
  Hf  Hf60      1.0  0.66307  0.89131  0.82513  1.0000
  Hf  Hf61      1.0  0.90667  0.38030  0.33601  1.0000
  Hf  Hf62      1.0  0.90580  0.39102  0.82848  1.0000
  Hf  Hf63      1.0  0.91386  0.88851  0.32941  1.0000
  Hf  Hf64      1.0  0.91111  0.88738  0.82822  1.0000
  Hf  Hf65      1.0  0.19385  0.31352  0.09164  1.0000
  Hf  Hf66      1.0  0.19141  0.32124  0.59107  1.0000
  Hf  Hf67      1.0  0.19672  0.82056  0.08110  1.0000
  Hf  Hf68      1.0  0.19514  0.82439  0.57682  1.0000
  Hf  Hf69      1.0  0.44490  0.31890  0.08396  1.0000
  Hf  Hf70      1.0  0.44589  0.32634  0.57534  1.0000
  Hf  Hf71      1.0  0.44431  0.81169  0.09022  1.0000
  Hf  Hf72      1.0  0.44202  0.81029  0.59606  1.0000
  Hf  Hf73      1.0  0.69691  0.31950  0.08135  1.0000
  Hf  Hf74      1.0  0.69054  0.31797  0.58466  1.0000
  Hf  Hf75      1.0  0.69308  0.81874  0.07564  1.0000
  Hf  Hf76      1.0  0.69446  0.81742  0.58333  1.0000
  Hf  Hf77      1.0  0.94186  0.32010  0.08598  1.0000
  Hf  Hf78      1.0  0.94289  0.31136  0.58325  1.0000
  Hf  Hf79      1.0  0.94778  0.81643  0.07817  1.0000
  Hf  Hf80      1.0  0.94378  0.81483  0.58432  1.0000
  Hf  Hf81      1.0  0.09176  0.11090  0.16609  1.0000
  Hf  Hf82      1.0  0.08993  0.10551  0.66814  1.0000
  Hf  Hf83      1.0  0.09333  0.61093  0.16575  1.0000
  Hf  Hf84      1.0  0.09494  0.61414  0.66857  1.0000
  Hf  Hf85      1.0  0.33760  0.11043  0.17650  1.0000
  Hf  Hf86      1.0  0.33834  0.12027  0.67198  1.0000
  Hf  Hf87      1.0  0.33940  0.60234  0.17148  1.0000
  Hf  Hf88      1.0  0.34201  0.61898  0.66478  1.0000
  Hf  Hf89      1.0  0.58741  0.10359  0.17683  1.0000
  Hf  Hf90      1.0  0.59023  0.10854  0.67032  1.0000
  Hf  Hf91      1.0  0.59068  0.61066  0.16520  1.0000
  Hf  Hf92      1.0  0.58988  0.60922  0.66995  1.0000
  Hf  Hf93      1.0  0.83652  0.10149  0.17642  1.0000
  Hf  Hf94      1.0  0.84270  0.11046  0.66203  1.0000
  Hf  Hf95      1.0  0.84051  0.61190  0.16358  1.0000
  Hf  Hf96      1.0  0.83903  0.61843  0.66299  1.0000
  F   F1        1.0  0.08479  0.14328  0.29544  1.0000
  F   F2        1.0  0.07439  0.12859  0.80030  1.0000
  F   F3        1.0  0.08487  0.63943  0.29739  1.0000
  F   F4        1.0  0.08404  0.63683  0.79815  1.0000
  F   F5        1.0  0.33072  0.12815  0.30883  1.0000
  F   F6        1.0  0.32725  0.12721  0.80570  1.0000
  F   F7        1.0  0.33369  0.62153  0.30850  1.0000
  F   F8        1.0  0.32919  0.63143  0.80251  1.0000
  F   F9        1.0  0.57623  0.12328  0.30930  1.0000
  F   F10       1.0  0.57681  0.12330  0.81130  1.0000
  F   F11       1.0  0.57240  0.63807  0.30243  1.0000
  F   F12       1.0  0.57987  0.62304  0.80437  1.0000
  F   F13       1.0  0.82738  0.12511  0.30369  1.0000
  F   F14       1.0  0.83009  0.14066  0.79187  1.0000
  F   F15       1.0  0.82396  0.61652  0.31183  1.0000
  F   F16       1.0  0.82265  0.63075  0.80608  1.0000
  F   F17       1.0  0.18047  0.34662  0.45615  1.0000
  F   F18       1.0  0.19234  0.34034  0.94659  1.0000
  F   F19       1.0  0.18661  0.84736  0.43996  1.0000
  F   F20       1.0  0.19269  0.85500  0.93359  1.0000
  F   F21       1.0  0.43282  0.34620  0.44448  1.0000
  F   F22       1.0  0.43475  0.34511  0.94721  1.0000
  F   F23       1.0  0.43499  0.83521  0.45310  1.0000
  F   F24       1.0  0.45212  0.85235  0.93678  1.0000
  F   F25       1.0  0.67858  0.33863  0.45600  1.0000
  F   F26       1.0  0.67819  0.32643  0.96159  1.0000
  F   F27       1.0  0.68731  0.83096  0.43798  1.0000
  F   F28       1.0  0.69248  0.85986  0.93011  1.0000
  F   F29       1.0  0.93004  0.33734  0.45261  1.0000
  F   F30       1.0  0.92690  0.32792  0.95328  1.0000
  F   F31       1.0  0.94450  0.83674  0.43606  1.0000
  F   F32       1.0  0.94368  0.83923  0.94021  1.0000
  F   F33       1.0  0.16836  0.36494  0.20612  1.0000
  F   F34       1.0  0.16550  0.38267  0.69986  1.0000
  F   F35       1.0  0.17307  0.87252  0.19818  1.0000
  F   F36       1.0  0.17228  0.88057  0.69151  1.0000
  F   F37       1.0  0.42407  0.36870  0.19650  1.0000
  F   F38       1.0  0.41723  0.36238  0.70445  1.0000
  F   F39       1.0  0.42433  0.86785  0.19717  1.0000
  F   F40       1.0  0.42382  0.86664  0.70204  1.0000
  F   F41       1.0  0.66952  0.37148  0.18871  1.0000
  F   F42       1.0  0.67626  0.38141  0.68785  1.0000
  F   F43       1.0  0.66642  0.86790  0.20151  1.0000
  F   F44       1.0  0.67273  0.88634  0.68360  1.0000
  F   F45       1.0  0.92166  0.36162  0.19731  1.0000
  F   F46       1.0  0.91992  0.37521  0.68634  1.0000
  F   F47       1.0  0.92721  0.88403  0.18261  1.0000
  F   F48       1.0  0.93099  0.90369  0.66820  1.0000
  F   F49       1.0  0.06003  0.15931  0.06148  1.0000
  F   F50       1.0  0.06672  0.17062  0.54595  1.0000
  F   F51       1.0  0.06363  0.66315  0.05592  1.0000
  F   F52       1.0  0.06579  0.65099  0.55242  1.0000
  F   F53       1.0  0.30822  0.15892  0.06787  1.0000
  F   F54       1.0  0.30985  0.16611  0.55958  1.0000
  F   F55       1.0  0.31915  0.66793  0.04556  1.0000
  F   F56       1.0  0.31584  0.67300  0.54713  1.0000
  F   F57       1.0  0.54672  0.15480  0.07816  1.0000
  F   F58       1.0  0.56065  0.15818  0.55486  1.0000
  F   F59       1.0  0.57281  0.67451  0.03049  1.0000
  F   F60       1.0  0.56388  0.66445  0.54982  1.0000
  F   F61       1.0  0.80723  0.15149  0.06083  1.0000
  F   F62       1.0  0.81693  0.15879  0.54582  1.0000
  F   F63       1.0  0.81871  0.66647  0.04236  1.0000
  F   F64       1.0  0.80877  0.66416  0.55356  1.0000
  F   F65       1.0  0.21101  0.20900  0.21566  1.0000
  F   F66       1.0  0.19748  0.20497  0.71896  1.0000
  F   F67       1.0  0.20328  0.70150  0.21572  1.0000
  F   F68       1.0  0.20866  0.71230  0.70543  1.0000
  F   F69       1.0  0.45829  0.20160  0.21159  1.0000
  F   F70       1.0  0.45544  0.19746  0.70648  1.0000
  F   F71       1.0  0.45112  0.69083  0.21800  1.0000
  F   F72       1.0  0.45901  0.69683  0.71653  1.0000
  F   F73       1.0  0.70839  0.19957  0.22250  1.0000
  F   F74       1.0  0.70705  0.20200  0.69956  1.0000
  F   F75       1.0  0.70231  0.70468  0.19443  1.0000
  F   F76       1.0  0.69739  0.69348  0.71545  1.0000
  F   F77       1.0  0.96253  0.19579  0.21213  1.0000
  F   F78       1.0  0.94703  0.19518  0.71335  1.0000
  F   F79       1.0  0.94736  0.69332  0.21285  1.0000
  F   F80       1.0  0.94977  0.71111  0.71167  1.0000
  F   F81       1.0  0.14910  0.10533  0.03270  1.0000
  F   F82       1.0  0.14965  0.09709  0.54959  1.0000
  F   F83       1.0  0.15052  0.59561  0.03897  1.0000
  F   F84       1.0  0.15197  0.58429  0.54757  1.0000
  F   F85       1.0  0.39223  0.10486  0.05410  1.0000
  F   F86       1.0  0.39317  0.11008  0.53316  1.0000
  F   F87       1.0  0.39718  0.57822  0.03488  1.0000
  F   F88       1.0  0.39568  0.58409  0.54906  1.0000
  F   F89       1.0  0.64064  0.10122  0.03398  1.0000
  F   F90       1.0  0.64811  0.08643  0.53550  1.0000
  F   F91       1.0  0.65096  0.58741  0.03921  1.0000
  F   F92       1.0  0.64748  0.58577  0.53702  1.0000
  F   F93       1.0  0.89562  0.10226  0.04948  1.0000
  F   F94       1.0  0.90053  0.08727  0.54277  1.0000
  F   F95       1.0  0.90236  0.56546  0.02961  1.0000
  F   F96       1.0  0.89857  0.59702  0.52914  1.0000
  F   F97       1.0  0.15360  0.19424  0.12627  1.0000
  F   F98       1.0  0.14516  0.19379  0.63615  1.0000
  F   F99       1.0  0.15501  0.70557  0.11600  1.0000
  F   F100      1.0  0.15606  0.70917  0.61259  1.0000
  F   F101      1.0  0.40363  0.19899  0.13305  1.0000
  F   F102      1.0  0.40124  0.20540  0.61993  1.0000
  F   F103      1.0  0.39805  0.70578  0.10576  1.0000
  F   F104      1.0  0.40453  0.68351  0.63479  1.0000
  F   F105      1.0  0.65093  0.18967  0.14863  1.0000
  F   F106      1.0  0.64472  0.19873  0.62773  1.0000
  F   F107      1.0  0.64243  0.70443  0.12217  1.0000
  F   F108      1.0  0.65195  0.70568  0.62067  1.0000
  F   F109      1.0  0.90347  0.20648  0.13234  1.0000
  F   F110      1.0  0.90609  0.18146  0.62395  1.0000
  F   F111      1.0  0.89835  0.68876  0.11701  1.0000
  F   F112      1.0  0.90033  0.69416  0.62077  1.0000
  F   F113      1.0  0.09661  0.29247  0.37190  1.0000
  F   F114      1.0  0.09574  0.30995  0.88796  1.0000
  F   F115      1.0  0.10533  0.80525  0.37738  1.0000
  F   F116      1.0  0.10349  0.79933  0.87354  1.0000
  F   F117      1.0  0.35241  0.30679  0.37875  1.0000
  F   F118      1.0  0.34845  0.29857  0.89480  1.0000
  F   F119      1.0  0.34936  0.80793  0.37459  1.0000
  F   F120      1.0  0.34407  0.81614  0.85855  1.0000
  F   F121      1.0  0.60249  0.30604  0.36048  1.0000
  F   F122      1.0  0.60020  0.29709  0.86386  1.0000
  F   F123      1.0  0.59584  0.81089  0.36603  1.0000
  F   F124      1.0  0.60116  0.79608  0.84625  1.0000
  F   F125      1.0  0.85066  0.29308  0.38167  1.0000
  F   F126      1.0  0.85455  0.29048  0.88257  1.0000
  F   F127      1.0  0.85382  0.79930  0.38143  1.0000
  F   F128      1.0  0.84703  0.80179  0.87026  1.0000
  F   F129      1.0  0.07409  0.25663  0.12755  1.0000
  F   F130      1.0  0.06532  0.25383  0.64396  1.0000
  F   F131      1.0  0.07270  0.75517  0.13080  1.0000
  F   F132      1.0  0.06558  0.74920  0.63543  1.0000
  F   F133      1.0  0.31448  0.25839  0.13921  1.0000
  F   F134      1.0  0.30926  0.25994  0.64916  1.0000
  F   F135      1.0  0.31042  0.74625  0.15229  1.0000
  F   F136      1.0  0.32250  0.75856  0.62841  1.0000
  F   F137      1.0  0.56518  0.24995  0.14271  1.0000
  F   F138      1.0  0.56548  0.25571  0.63112  1.0000
  F   F139      1.0  0.55810  0.74577  0.14699  1.0000
  F   F140      1.0  0.56748  0.74803  0.63385  1.0000
  F   F141      1.0  0.81596  0.25444  0.13987  1.0000
  F   F142      1.0  0.81242  0.25406  0.64218  1.0000
  F   F143      1.0  0.81135  0.74580  0.14326  1.0000
  F   F144      1.0  0.81856  0.75490  0.63211  1.0000
  F   F145      1.0  0.12657  0.36713  0.12084  1.0000
  F   F146      1.0  0.12377  0.38002  0.60209  1.0000
  F   F147      1.0  0.12737  0.87716  0.11087  1.0000
  F   F148      1.0  0.12319  0.86166  0.61273  1.0000
  F   F149      1.0  0.37533  0.38743  0.10103  1.0000
  F   F150      1.0  0.37416  0.37314  0.60081  1.0000
  F   F151      1.0  0.37580  0.86242  0.11209  1.0000
  F   F152      1.0  0.37658  0.85832  0.61575  1.0000
  F   F153      1.0  0.62800  0.40790  0.07088  1.0000
  F   F154      1.0  0.62093  0.36553  0.62070  1.0000
  F   F155      1.0  0.62123  0.87444  0.11161  1.0000
  F   F156      1.0  0.62580  0.87293  0.60464  1.0000
  F   F157      1.0  0.87787  0.38411  0.10115  1.0000
  F   F158      1.0  0.87173  0.35740  0.61642  1.0000
  F   F159      1.0  0.87519  0.86174  0.10683  1.0000
  F   F160      1.0  0.87859  0.87105  0.60013  1.0000
  F   F161      1.0  0.18112  0.24266  0.37656  1.0000
  F   F162      1.0  0.18301  0.25724  0.85182  1.0000
  F   F163      1.0  0.18181  0.73955  0.37119  1.0000
  F   F164      1.0  0.18565  0.74810  0.86310  1.0000
  F   F165      1.0  0.43980  0.25302  0.34899  1.0000
  F   F166      1.0  0.43427  0.24718  0.86053  1.0000
  F   F167      1.0  0.43480  0.75602  0.35902  1.0000
  F   F168      1.0  0.43062  0.75370  0.87568  1.0000
  F   F169      1.0  0.68043  0.24555  0.36733  1.0000
  F   F170      1.0  0.68711  0.24806  0.85243  1.0000
  F   F171      1.0  0.69244  0.74341  0.34391  1.0000
  F   F172      1.0  0.68254  0.75550  0.84767  1.0000
  F   F173      1.0  0.93399  0.23837  0.37386  1.0000
  F   F174      1.0  0.94006  0.24938  0.83879  1.0000
  F   F175      1.0  0.94481  0.75076  0.33562  1.0000
  F   F176      1.0  0.93364  0.74199  0.86370  1.0000
  F   F177      1.0  0.12616  0.10465  0.40726  1.0000
  F   F178      1.0  0.12184  0.14312  0.88986  1.0000
  F   F179      1.0  0.12806  0.61412  0.40053  1.0000
  F   F180      1.0  0.13013  0.62405  0.88904  1.0000
  F   F181      1.0  0.37817  0.13366  0.38730  1.0000
  F   F182      1.0  0.37770  0.12948  0.88455  1.0000
  F   F183      1.0  0.37477  0.63947  0.39840  1.0000
  F   F184      1.0  0.37640  0.64765  0.87684  1.0000
  F   F185      1.0  0.62437  0.13876  0.37923  1.0000
  F   F186      1.0  0.62524  0.12835  0.88631  1.0000
  F   F187      1.0  0.62504  0.62847  0.38479  1.0000
  F   F188      1.0  0.62782  0.61486  0.89609  1.0000
  F   F189      1.0  0.87262  0.13323  0.38369  1.0000
  F   F190      1.0  0.87406  0.10170  0.91194  1.0000
  F   F191      1.0  0.87747  0.63499  0.38033  1.0000
  F   F192      1.0  0.87799  0.64302  0.87321  1.0000
  F   F193      1.0  0.00812  0.36546  0.08158  1.0000
  F   F194      1.0  0.00697  0.35166  0.58642  1.0000
  F   F195      1.0  0.00960  0.85904  0.06110  1.0000
  F   F196      1.0  0.01037  0.86208  0.56977  1.0000
  F   F197      1.0  0.25930  0.36370  0.05508  1.0000
  F   F198      1.0  0.25383  0.35937  0.57975  1.0000
  F   F199      1.0  0.25490  0.85086  0.09369  1.0000
  F   F200      1.0  0.26020  0.85106  0.58143  1.0000
  F   F201      1.0  0.50368  0.36339  0.09135  1.0000
  F   F202      1.0  0.50629  0.36151  0.59001  1.0000
  F   F203      1.0  0.50591  0.85576  0.07097  1.0000
  F   F204      1.0  0.50965  0.85566  0.56293  1.0000
  F   F205      1.0  0.76135  0.36103  0.06265  1.0000
  F   F206      1.0  0.75459  0.37091  0.57577  1.0000
  F   F207      1.0  0.75566  0.85858  0.06753  1.0000
  F   F208      1.0  0.75629  0.86296  0.57719  1.0000
  F   F209      1.0  0.06550  0.48035  0.17992  1.0000
  F   F210      1.0  0.06749  0.48706  0.66938  1.0000
  F   F211      1.0  0.06935  0.97680  0.18326  1.0000
  F   F212      1.0  0.06537  0.98475  0.67329  1.0000
  F   F213      1.0  0.31069  0.47757  0.19256  1.0000
  F   F214      1.0  0.31689  0.48892  0.67404  1.0000
  F   F215      1.0  0.32041  0.99158  0.16329  1.0000
  F   F216      1.0  0.32011  0.98566  0.67758  1.0000
  F   F217      1.0  0.56635  0.48255  0.19032  1.0000
  F   F218      1.0  0.56031  0.48803  0.68817  1.0000
  F   F219      1.0  0.56577  0.98201  0.19707  1.0000
  F   F220      1.0  0.57465  0.98163  0.67950  1.0000
  F   F221      1.0  0.82074  0.48528  0.17836  1.0000
  F   F222      1.0  0.82030  0.49477  0.67050  1.0000
  F   F223      1.0  0.82413  0.98262  0.16683  1.0000
  F   F224      1.0  0.81974  0.98840  0.66027  1.0000
  F   F225      1.0  0.24527  0.13688  0.42071  1.0000
  F   F226      1.0  0.24072  0.14232  0.91766  1.0000
  F   F227      1.0  0.24512  0.64988  0.40770  1.0000
  F   F228      1.0  0.24625  0.63284  0.92585  1.0000
  F   F229      1.0  0.49017  0.13926  0.43804  1.0000
  F   F230      1.0  0.48691  0.14262  0.95079  1.0000
  F   F231      1.0  0.49074  0.62589  0.44184  1.0000
  F   F232      1.0  0.49102  0.64094  0.93636  1.0000
  F   F233      1.0  0.73885  0.13640  0.43258  1.0000
  F   F234      1.0  0.74220  0.13568  0.92595  1.0000
  F   F235      1.0  0.74539  0.63362  0.42227  1.0000
  F   F236      1.0  0.74020  0.63343  0.93118  1.0000
  F   F237      1.0  0.99279  0.11914  0.43976  1.0000
  F   F238      1.0  0.98230  0.14113  0.93283  1.0000
  F   F239      1.0  0.99858  0.64843  0.41423  1.0000
  F   F240      1.0  0.99678  0.63771  0.92956  1.0000
  F   F241      1.0  0.18078  0.02495  0.31203  1.0000
  F   F242      1.0  0.17947  0.02081  0.82838  1.0000
  F   F243      1.0  0.18418  0.50201  0.32742  1.0000
  F   F244      1.0  0.18115  0.52280  0.82680  1.0000
  F   F245      1.0  0.42764  0.02140  0.32417  1.0000
  F   F246      1.0  0.43229  0.00468  0.83647  1.0000
  F   F247      1.0  0.42681  0.51915  0.33676  1.0000
  F   F248      1.0  0.43097  0.51815  0.82940  1.0000
  F   F249      1.0  0.67854  0.00575  0.33286  1.0000
  F   F250      1.0  0.68159  0.01882  0.82067  1.0000
  F   F251      1.0  0.68257  0.50623  0.31814  1.0000
  F   F252      1.0  0.67863  0.50903  0.83312  1.0000
  F   F253      1.0  0.93330  0.02250  0.30510  1.0000
  F   F254      1.0  0.93356  0.00935  0.81168  1.0000
  F   F255      1.0  0.92557  0.50890  0.33822  1.0000
  F   F256      1.0  0.93059  0.52470  0.81338  1.0000
  F   F257      1.0  0.99387  0.25662  0.99952  1.0000
  F   F258      1.0  0.99867  0.24805  0.49539  1.0000
  F   F259      1.0  0.99430  0.72732  0.02199  1.0000
  F   F260      1.0  0.00346  0.74345  0.50342  1.0000
  F   F261      1.0  0.25011  0.24052  0.00732  1.0000
  F   F262      1.0  0.24727  0.24897  0.51020  1.0000
  F   F263      1.0  0.24540  0.73950  0.01486  1.0000
  F   F264      1.0  0.25009  0.76219  0.48691  1.0000
  F   F265      1.0  0.50292  0.26153  0.99668  1.0000
  F   F266      1.0  0.49831  0.26916  0.48618  1.0000
  F   F267      1.0  0.50352  0.72935  0.01989  1.0000
  F   F268      1.0  0.49715  0.73850  0.50760  1.0000
  F   F269      1.0  0.74862  0.23925  0.00591  1.0000
  F   F270      1.0  0.74959  0.26018  0.49111  1.0000
  F   F271      1.0  0.74660  0.75233  0.99428  1.0000
  F   F272      1.0  0.75133  0.75520  0.49365  1.0000
  F   F273      1.0  0.13150  0.00692  0.23747  1.0000
  F   F274      1.0  0.11605  0.98779  0.76646  1.0000
  F   F275      1.0  0.12027  0.49707  0.25436  1.0000
  F   F276      1.0  0.12078  0.50899  0.75821  1.0000
  F   F277      1.0  0.37838  0.99765  0.24426  1.0000
  F   F278      1.0  0.37492  0.99652  0.76326  1.0000
  F   F279      1.0  0.38366  0.49850  0.24154  1.0000
  F   F280      1.0  0.37197  0.48903  0.74331  1.0000
  F   F281      1.0  0.62992  0.00743  0.24522  1.0000
  F   F282      1.0  0.62658  0.99895  0.74683  1.0000
  F   F283      1.0  0.62920  0.50434  0.24201  1.0000
  F   F284      1.0  0.62563  0.50346  0.75021  1.0000
  F   F285      1.0  0.86429  0.98830  0.27362  1.0000
  F   F286      1.0  0.86688  0.98893  0.76766  1.0000
  F   F287      1.0  0.88150  0.49594  0.24096  1.0000
  F   F288      1.0  0.87530  0.50630  0.73425  1.0000
  F   F289      1.0  0.04352  0.03290  0.01753  1.0000
  F   F290      1.0  0.04348  0.03333  0.52132  1.0000
  F   F291      1.0  0.04937  0.53587  0.01945  1.0000
  F   F292      1.0  0.03840  0.52990  0.52134  1.0000
  F   F293      1.0  0.29027  0.02486  0.02038  1.0000
  F   F294      1.0  0.29355  0.03546  0.52242  1.0000
  F   F295      1.0  0.29356  0.53476  0.02031  1.0000
  F   F296      1.0  0.29033  0.54174  0.51730  1.0000
  F   F297      1.0  0.55155  0.01798  0.01694  1.0000
  F   F298      1.0  0.54874  0.01598  0.51714  1.0000
  F   F299      1.0  0.54863  0.52739  0.03177  1.0000
  F   F300      1.0  0.55472  0.52466  0.51554  1.0000
  F   F301      1.0  0.79384  0.02540  0.01969  1.0000
  F   F302      1.0  0.78957  0.02779  0.51870  1.0000
  F   F303      1.0  0.80041  0.52793  0.02154  1.0000
  F   F304      1.0  0.79096  0.53745  0.53546  1.0000
  F   F305      1.0  0.23360  0.39267  0.23090  1.0000
  F   F306      1.0  0.23723  0.41441  0.72941  1.0000
  F   F307      1.0  0.23375  0.90797  0.22742  1.0000
  F   F308      1.0  0.23615  0.92498  0.71997  1.0000
  F   F309      1.0  0.48432  0.42335  0.22706  1.0000
  F   F310      1.0  0.48344  0.42642  0.71906  1.0000
  F   F311      1.0  0.48460  0.93441  0.22261  1.0000
  F   F312      1.0  0.48950  0.93294  0.70964  1.0000
  F   F313      1.0  0.73781  0.40133  0.23242  1.0000
  F   F314      1.0  0.73546  0.41603  0.73544  1.0000
  F   F315      1.0  0.73838  0.91098  0.21908  1.0000
  F   F316      1.0  0.73460  0.93496  0.71855  1.0000
  F   F317      1.0  0.98385  0.39709  0.24422  1.0000
  F   F318      1.0  0.98214  0.41752  0.73771  1.0000
  F   F319      1.0  0.98563  0.91190  0.22739  1.0000
  F   F320      1.0  0.98977  0.89745  0.72686  1.0000
  F   F321      1.0  0.21240  0.46714  0.47592  1.0000
  F   F322      1.0  0.20151  0.47451  0.98583  1.0000
  F   F323      1.0  0.21181  0.97401  0.47697  1.0000
  F   F324      1.0  0.20685  0.97961  0.98069  1.0000
  F   F325      1.0  0.46024  0.46459  0.46575  1.0000
  F   F326      1.0  0.45890  0.47493  0.98159  1.0000
  F   F327      1.0  0.44822  0.97465  0.49514  1.0000
  F   F328      1.0  0.45653  0.97642  0.98024  1.0000
  F   F329      1.0  0.69814  0.46888  0.48205  1.0000
  F   F330      1.0  0.71434  0.46356  0.96222  1.0000
  F   F331      1.0  0.70821  0.95775  0.46981  1.0000
  F   F332      1.0  0.71032  0.97558  0.96784  1.0000
  F   F333      1.0  0.95882  0.47451  0.46863  1.0000
  F   F334      1.0  0.96779  0.45547  0.96841  1.0000
  F   F335      1.0  0.96096  0.96233  0.46253  1.0000
  F   F336      1.0  0.95692  0.97317  0.96927  1.0000
  F   F337      1.0  0.02095  0.09436  0.27531  1.0000
  F   F338      1.0  0.01063  0.07716  0.77709  1.0000
  F   F339      1.0  0.01684  0.58946  0.27126  1.0000
  F   F340      1.0  0.01206  0.58521  0.77863  1.0000
  F   F341      1.0  0.26506  0.06458  0.29188  1.0000
  F   F342      1.0  0.26244  0.08594  0.77332  1.0000
  F   F343      1.0  0.26743  0.58184  0.28088  1.0000
  F   F344      1.0  0.26922  0.58831  0.76224  1.0000
  F   F345      1.0  0.50863  0.08869  0.28630  1.0000
  F   F346      1.0  0.51565  0.09103  0.77187  1.0000
  F   F347      1.0  0.51478  0.58401  0.27019  1.0000
  F   F348      1.0  0.51747  0.59164  0.77199  1.0000
  F   F349      1.0  0.76125  0.07302  0.27381  1.0000
  F   F350      1.0  0.76893  0.08168  0.76550  1.0000
  F   F351      1.0  0.76262  0.59185  0.25645  1.0000
  F   F352      1.0  0.76004  0.58588  0.77018  1.0000
  F   F353      1.0  0.09418  0.40014  0.45966  1.0000
  F   F354      1.0  0.10711  0.41562  0.96774  1.0000
  F   F355      1.0  0.09971  0.90914  0.45603  1.0000
  F   F356      1.0  0.10203  0.90623  0.96417  1.0000
  F   F357      1.0  0.34110  0.41310  0.46706  1.0000
  F   F358      1.0  0.34884  0.41768  0.94762  1.0000
  F   F359      1.0  0.35345  0.91016  0.46771  1.0000
  F   F360      1.0  0.35183  0.88913  0.96645  1.0000
  F   F361      1.0  0.59756  0.39922  0.45986  1.0000
  F   F362      1.0  0.59580  0.39685  0.95770  1.0000
  F   F363      1.0  0.59839  0.88918  0.46184  1.0000
  F   F364      1.0  0.60545  0.88267  0.96029  1.0000
  F   F365      1.0  0.84927  0.40399  0.46082  1.0000
  F   F366      1.0  0.85003  0.41507  0.94470  1.0000
  F   F367      1.0  0.85499  0.91732  0.46267  1.0000
  F   F368      1.0  0.84881  0.88807  0.96862  1.0000
  F   F369      1.0  0.04220  0.29238  0.28352  1.0000
  F   F370      1.0  0.04715  0.30036  0.78851  1.0000
  F   F371      1.0  0.05128  0.81356  0.27802  1.0000
  F   F372      1.0  0.04636  0.79462  0.79356  1.0000
  F   F373      1.0  0.30233  0.29598  0.29754  1.0000
  F   F374      1.0  0.30067  0.29773  0.80293  1.0000
  F   F375      1.0  0.29960  0.80747  0.28482  1.0000
  F   F376      1.0  0.29095  0.79966  0.78412  1.0000
  F   F377      1.0  0.54902  0.29239  0.28681  1.0000
  F   F378      1.0  0.54029  0.29979  0.79434  1.0000
  F   F379      1.0  0.54487  0.80221  0.28758  1.0000
  F   F380      1.0  0.54127  0.79757  0.77793  1.0000
  F   F381      1.0  0.80765  0.30335  0.27394  1.0000
  F   F382      1.0  0.79069  0.30862  0.80518  1.0000
  F   F383      1.0  0.80381  0.80340  0.27565  1.0000
  F   F384      1.0  0.79050  0.79783  0.78604  1.0000
