data_image0
_chemical_formula_structural       Hf96F384
_chemical_formula_sum              "Hf96 F384"
_cell_length_a       31.0555
_cell_length_b       15.5307
_cell_length_c       15.5152
_cell_angle_alpha    63.342
_cell_angle_beta     63.342
_cell_angle_gamma    80.1625

_space_group_name_H-M_alt    "P 1"
_space_group_IT_number       1

loop_
  _space_group_symop_operation_xyz
  'x, y, z'

loop_
  _atom_site_type_symbol
  _atom_site_label
  _atom_site_symmetry_multiplicity
  _atom_site_fract_x
  _atom_site_fract_y
  _atom_site_fract_z
  _atom_site_occupancy
  Hf  Hf1       1.0  0.19472  0.10539  0.36518  1.0000
  Hf  Hf2       1.0  0.19817  0.10746  0.86804  1.0000
  Hf  Hf3       1.0  0.19324  0.60904  0.37751  1.0000
  Hf  Hf4       1.0  0.19961  0.61115  0.87438  1.0000
  Hf  Hf5       1.0  0.45050  0.11613  0.36535  1.0000
  Hf  Hf6       1.0  0.44624  0.10452  0.88655  1.0000
  Hf  Hf7       1.0  0.44810  0.61288  0.37211  1.0000
  Hf  Hf8       1.0  0.44961  0.61478  0.86789  1.0000
  Hf  Hf9       1.0  0.69315  0.10042  0.38026  1.0000
  Hf  Hf10      1.0  0.69375  0.10280  0.87476  1.0000
  Hf  Hf11      1.0  0.69978  0.61335  0.36597  1.0000
  Hf  Hf12      1.0  0.69396  0.60025  0.88410  1.0000
  Hf  Hf13      1.0  0.94440  0.11062  0.36944  1.0000
  Hf  Hf14      1.0  0.95044  0.11835  0.86800  1.0000
  Hf  Hf15      1.0  0.94328  0.60832  0.37818  1.0000
  Hf  Hf16      1.0  0.94556  0.60220  0.87061  1.0000
  Hf  Hf17      1.0  0.05407  0.39669  0.11539  1.0000
  Hf  Hf18      1.0  0.05322  0.38427  0.62891  1.0000
  Hf  Hf19      1.0  0.05010  0.89697  0.13283  1.0000
  Hf  Hf20      1.0  0.05640  0.89532  0.61691  1.0000
  Hf  Hf21      1.0  0.30282  0.39025  0.13260  1.0000
  Hf  Hf22      1.0  0.30420  0.39892  0.61554  1.0000
  Hf  Hf23      1.0  0.30443  0.88886  0.12040  1.0000
  Hf  Hf24      1.0  0.30402  0.89892  0.63112  1.0000
  Hf  Hf25      1.0  0.55946  0.39551  0.11791  1.0000
  Hf  Hf26      1.0  0.54930  0.38697  0.63302  1.0000
  Hf  Hf27      1.0  0.55236  0.88259  0.13823  1.0000
  Hf  Hf28      1.0  0.55566  0.89977  0.61069  1.0000
  Hf  Hf29      1.0  0.80099  0.39473  0.13135  1.0000
  Hf  Hf30      1.0  0.80339  0.38256  0.62960  1.0000
  Hf  Hf31      1.0  0.80849  0.89292  0.11822  1.0000
  Hf  Hf32      1.0  0.80274  0.89301  0.62971  1.0000
  Hf  Hf33      1.0  0.05170  0.18109  0.42049  1.0000
  Hf  Hf34      1.0  0.05624  0.18288  0.91315  1.0000
  Hf  Hf35      1.0  0.04968  0.67922  0.42335  1.0000
  Hf  Hf36      1.0  0.05066  0.67476  0.92240  1.0000
  Hf  Hf37      1.0  0.30842  0.18323  0.41265  1.0000
  Hf  Hf38      1.0  0.30681  0.18933  0.91139  1.0000
  Hf  Hf39      1.0  0.30266  0.68489  0.41678  1.0000
  Hf  Hf40      1.0  0.30849  0.67801  0.92225  1.0000
  Hf  Hf41      1.0  0.55701  0.18691  0.41329  1.0000
  Hf  Hf42      1.0  0.55414  0.17603  0.92271  1.0000
  Hf  Hf43      1.0  0.55857  0.67381  0.42138  1.0000
  Hf  Hf44      1.0  0.55570  0.68033  0.91762  1.0000
  Hf  Hf45      1.0  0.80033  0.18081  0.41717  1.0000
  Hf  Hf46      1.0  0.80861  0.17841  0.91298  1.0000
  Hf  Hf47      1.0  0.80295  0.67717  0.42472  1.0000
  Hf  Hf48      1.0  0.80990  0.68218  0.91539  1.0000
  Hf  Hf49      1.0  0.16120  0.39104  0.33085  1.0000
  Hf  Hf50      1.0  0.15917  0.39013  0.83082  1.0000
  Hf  Hf51      1.0  0.15708  0.89266  0.32459  1.0000
  Hf  Hf52      1.0  0.15560  0.89031  0.83945  1.0000
  Hf  Hf53      1.0  0.41169  0.39707  0.32173  1.0000
  Hf  Hf54      1.0  0.40745  0.39590  0.82901  1.0000
  Hf  Hf55      1.0  0.40887  0.89148  0.33917  1.0000
  Hf  Hf56      1.0  0.41155  0.88965  0.83625  1.0000
  Hf  Hf57      1.0  0.66086  0.38780  0.32815  1.0000
  Hf  Hf58      1.0  0.65881  0.38740  0.83664  1.0000
  Hf  Hf59      1.0  0.66383  0.88200  0.33099  1.0000
  Hf  Hf60      1.0  0.65590  0.88194  0.83362  1.0000
  Hf  Hf61      1.0  0.90626  0.38192  0.32952  1.0000
  Hf  Hf62      1.0  0.90474  0.38608  0.83639  1.0000
  Hf  Hf63      1.0  0.90353  0.88515  0.34382  1.0000
  Hf  Hf64      1.0  0.91141  0.88804  0.83196  1.0000
  Hf  Hf65      1.0  0.19221  0.32613  0.07539  1.0000
  Hf  Hf66      1.0  0.19482  0.30571  0.59289  1.0000
  Hf  Hf67      1.0  0.19227  0.81423  0.08585  1.0000
  Hf  Hf68      1.0  0.19291  0.81432  0.59345  1.0000
  Hf  Hf69      1.0  0.44685  0.31369  0.08055  1.0000
  Hf  Hf70      1.0  0.44195  0.32677  0.58384  1.0000
  Hf  Hf71      1.0  0.44835  0.82079  0.08192  1.0000
  Hf  Hf72      1.0  0.44047  0.81506  0.59254  1.0000
  Hf  Hf73      1.0  0.70036  0.31689  0.08194  1.0000
  Hf  Hf74      1.0  0.69281  0.32902  0.58043  1.0000
  Hf  Hf75      1.0  0.69412  0.82074  0.07822  1.0000
  Hf  Hf76      1.0  0.69691  0.81745  0.58580  1.0000
  Hf  Hf77      1.0  0.94831  0.32010  0.07734  1.0000
  Hf  Hf78      1.0  0.94573  0.32399  0.57883  1.0000
  Hf  Hf79      1.0  0.94611  0.82920  0.07713  1.0000
  Hf  Hf80      1.0  0.94176  0.82339  0.58127  1.0000
  Hf  Hf81      1.0  0.09281  0.11928  0.16597  1.0000
  Hf  Hf82      1.0  0.09392  0.10658  0.65962  1.0000
  Hf  Hf83      1.0  0.09035  0.61674  0.16836  1.0000
  Hf  Hf84      1.0  0.09203  0.61923  0.65120  1.0000
  Hf  Hf85      1.0  0.34083  0.11091  0.16420  1.0000
  Hf  Hf86      1.0  0.34393  0.10877  0.66744  1.0000
  Hf  Hf87      1.0  0.34039  0.61299  0.17174  1.0000
  Hf  Hf88      1.0  0.34446  0.61715  0.66098  1.0000
  Hf  Hf89      1.0  0.59458  0.10333  0.16519  1.0000
  Hf  Hf90      1.0  0.58406  0.10738  0.67484  1.0000
  Hf  Hf91      1.0  0.59388  0.60668  0.17202  1.0000
  Hf  Hf92      1.0  0.58651  0.61238  0.67575  1.0000
  Hf  Hf93      1.0  0.84337  0.11009  0.17022  1.0000
  Hf  Hf94      1.0  0.84042  0.10541  0.66519  1.0000
  Hf  Hf95      1.0  0.84436  0.61281  0.16273  1.0000
  Hf  Hf96      1.0  0.83467  0.60348  0.67520  1.0000
  F   F1        1.0  0.07163  0.13630  0.30581  1.0000
  F   F2        1.0  0.07374  0.12288  0.80841  1.0000
  F   F3        1.0  0.07702  0.61541  0.30987  1.0000
  F   F4        1.0  0.07698  0.62010  0.80434  1.0000
  F   F5        1.0  0.32712  0.12092  0.30597  1.0000
  F   F6        1.0  0.32533  0.12719  0.80873  1.0000
  F   F7        1.0  0.32027  0.61668  0.31753  1.0000
  F   F8        1.0  0.33657  0.64799  0.79070  1.0000
  F   F9        1.0  0.58785  0.13856  0.29320  1.0000
  F   F10       1.0  0.57395  0.11643  0.81282  1.0000
  F   F11       1.0  0.58800  0.62411  0.29826  1.0000
  F   F12       1.0  0.57470  0.62267  0.80814  1.0000
  F   F13       1.0  0.82873  0.13069  0.31317  1.0000
  F   F14       1.0  0.83279  0.10409  0.80617  1.0000
  F   F15       1.0  0.82505  0.62414  0.30113  1.0000
  F   F16       1.0  0.82455  0.61993  0.81508  1.0000
  F   F17       1.0  0.19344  0.33766  0.44962  1.0000
  F   F18       1.0  0.18713  0.35184  0.94069  1.0000
  F   F19       1.0  0.18630  0.84532  0.43210  1.0000
  F   F20       1.0  0.18808  0.83488  0.95323  1.0000
  F   F21       1.0  0.43045  0.34220  0.45138  1.0000
  F   F22       1.0  0.43756  0.34535  0.94977  1.0000
  F   F23       1.0  0.43055  0.83755  0.45503  1.0000
  F   F24       1.0  0.44544  0.84488  0.93141  1.0000
  F   F25       1.0  0.67991  0.34660  0.45408  1.0000
  F   F26       1.0  0.68980  0.32893  0.95046  1.0000
  F   F27       1.0  0.68952  0.83909  0.44382  1.0000
  F   F28       1.0  0.69493  0.84265  0.93710  1.0000
  F   F29       1.0  0.93360  0.34536  0.44435  1.0000
  F   F30       1.0  0.92317  0.33447  0.96816  1.0000
  F   F31       1.0  0.92360  0.83438  0.46135  1.0000
  F   F32       1.0  0.93801  0.85194  0.94346  1.0000
  F   F33       1.0  0.17157  0.38170  0.19211  1.0000
  F   F34       1.0  0.17509  0.36928  0.69564  1.0000
  F   F35       1.0  0.16870  0.89056  0.18821  1.0000
  F   F36       1.0  0.16196  0.86238  0.71229  1.0000
  F   F37       1.0  0.41970  0.38022  0.19333  1.0000
  F   F38       1.0  0.42115  0.39510  0.68346  1.0000
  F   F39       1.0  0.41861  0.86082  0.19894  1.0000
  F   F40       1.0  0.41770  0.87868  0.69937  1.0000
  F   F41       1.0  0.66919  0.34896  0.20935  1.0000
  F   F42       1.0  0.66853  0.36731  0.70788  1.0000
  F   F43       1.0  0.66813  0.86512  0.20350  1.0000
  F   F44       1.0  0.67082  0.87111  0.69748  1.0000
  F   F45       1.0  0.91802  0.35677  0.19757  1.0000
  F   F46       1.0  0.91665  0.35526  0.70738  1.0000
  F   F47       1.0  0.92779  0.91497  0.18551  1.0000
  F   F48       1.0  0.92606  0.87711  0.69581  1.0000
  F   F49       1.0  0.06474  0.17038  0.05257  1.0000
  F   F50       1.0  0.06024  0.15483  0.55386  1.0000
  F   F51       1.0  0.06728  0.66655  0.04250  1.0000
  F   F52       1.0  0.05677  0.66850  0.55637  1.0000
  F   F53       1.0  0.30670  0.15235  0.06520  1.0000
  F   F54       1.0  0.31951  0.14524  0.55117  1.0000
  F   F55       1.0  0.31635  0.65127  0.06241  1.0000
  F   F56       1.0  0.31309  0.66334  0.54698  1.0000
  F   F57       1.0  0.56125  0.14695  0.05999  1.0000
  F   F58       1.0  0.55507  0.15923  0.55308  1.0000
  F   F59       1.0  0.57431  0.66195  0.04906  1.0000
  F   F60       1.0  0.56170  0.64317  0.55910  1.0000
  F   F61       1.0  0.82479  0.17048  0.03718  1.0000
  F   F62       1.0  0.81055  0.16539  0.55153  1.0000
  F   F63       1.0  0.82180  0.66092  0.04439  1.0000
  F   F64       1.0  0.80554  0.63953  0.57008  1.0000
  F   F65       1.0  0.20205  0.19599  0.22284  1.0000
  F   F66       1.0  0.20627  0.19161  0.71160  1.0000
  F   F67       1.0  0.20714  0.70066  0.19707  1.0000
  F   F68       1.0  0.20945  0.69456  0.71365  1.0000
  F   F69       1.0  0.45543  0.20215  0.21525  1.0000
  F   F70       1.0  0.44911  0.21020  0.71604  1.0000
  F   F71       1.0  0.46615  0.70255  0.21056  1.0000
  F   F72       1.0  0.45135  0.69914  0.71378  1.0000
  F   F73       1.0  0.70898  0.20070  0.21234  1.0000
  F   F74       1.0  0.68713  0.20580  0.69897  1.0000
  F   F75       1.0  0.69388  0.70425  0.21272  1.0000
  F   F76       1.0  0.70515  0.70919  0.71830  1.0000
  F   F77       1.0  0.96171  0.20847  0.20448  1.0000
  F   F78       1.0  0.96016  0.20174  0.70309  1.0000
  F   F79       1.0  0.95336  0.72669  0.20225  1.0000
  F   F80       1.0  0.95247  0.70415  0.72439  1.0000
  F   F81       1.0  0.15036  0.11169  0.03471  1.0000
  F   F82       1.0  0.14860  0.08516  0.54157  1.0000
  F   F83       1.0  0.14822  0.59039  0.03062  1.0000
  F   F84       1.0  0.14988  0.60878  0.53346  1.0000
  F   F85       1.0  0.39873  0.10364  0.03040  1.0000
  F   F86       1.0  0.40390  0.08560  0.53852  1.0000
  F   F87       1.0  0.39983  0.59560  0.04897  1.0000
  F   F88       1.0  0.40521  0.59433  0.53205  1.0000
  F   F89       1.0  0.64814  0.07585  0.03984  1.0000
  F   F90       1.0  0.64572  0.08530  0.53021  1.0000
  F   F91       1.0  0.65022  0.56743  0.03180  1.0000
  F   F92       1.0  0.64679  0.61084  0.54344  1.0000
  F   F93       1.0  0.90335  0.10116  0.03605  1.0000
  F   F94       1.0  0.89816  0.08718  0.54383  1.0000
  F   F95       1.0  0.89728  0.58700  0.03563  1.0000
  F   F96       1.0  0.89511  0.60871  0.53641  1.0000
  F   F97       1.0  0.15230  0.20491  0.13319  1.0000
  F   F98       1.0  0.15206  0.19498  0.62775  1.0000
  F   F99       1.0  0.15126  0.67519  0.12731  1.0000
  F   F100      1.0  0.15232  0.70757  0.63173  1.0000
  F   F101      1.0  0.40539  0.19959  0.12575  1.0000
  F   F102      1.0  0.40254  0.19337  0.62199  1.0000
  F   F103      1.0  0.40404  0.70916  0.12861  1.0000
  F   F104      1.0  0.40495  0.69210  0.62388  1.0000
  F   F105      1.0  0.66000  0.18091  0.11817  1.0000
  F   F106      1.0  0.63932  0.19482  0.61222  1.0000
  F   F107      1.0  0.65077  0.69428  0.11196  1.0000
  F   F108      1.0  0.65357  0.69286  0.65009  1.0000
  F   F109      1.0  0.90227  0.18836  0.15283  1.0000
  F   F110      1.0  0.91458  0.19600  0.60995  1.0000
  F   F111      1.0  0.90423  0.69393  0.11677  1.0000
  F   F112      1.0  0.90487  0.70287  0.63132  1.0000
  F   F113      1.0  0.09956  0.29294  0.36444  1.0000
  F   F114      1.0  0.09887  0.30066  0.86008  1.0000
  F   F115      1.0  0.09506  0.80573  0.38367  1.0000
  F   F116      1.0  0.09362  0.84212  0.87732  1.0000
  F   F117      1.0  0.34889  0.30811  0.37515  1.0000
  F   F118      1.0  0.34788  0.30142  0.86254  1.0000
  F   F119      1.0  0.34617  0.81492  0.38202  1.0000
  F   F120      1.0  0.34871  0.79751  0.86939  1.0000
  F   F121      1.0  0.60411  0.29165  0.37761  1.0000
  F   F122      1.0  0.59703  0.30266  0.88222  1.0000
  F   F123      1.0  0.60679  0.77434  0.39026  1.0000
  F   F124      1.0  0.59706  0.79969  0.86976  1.0000
  F   F125      1.0  0.84976  0.30203  0.35953  1.0000
  F   F126      1.0  0.84633  0.30699  0.87838  1.0000
  F   F127      1.0  0.84663  0.80144  0.39237  1.0000
  F   F128      1.0  0.85118  0.80238  0.87371  1.0000
  F   F129      1.0  0.07346  0.26648  0.12802  1.0000
  F   F130      1.0  0.06745  0.24157  0.64319  1.0000
  F   F131      1.0  0.05943  0.75662  0.13810  1.0000
  F   F132      1.0  0.07242  0.75524  0.62605  1.0000
  F   F133      1.0  0.30616  0.25037  0.15261  1.0000
  F   F134      1.0  0.31558  0.24476  0.65154  1.0000
  F   F135      1.0  0.32121  0.75327  0.12774  1.0000
  F   F136      1.0  0.31890  0.75384  0.62864  1.0000
  F   F137      1.0  0.57545  0.25061  0.12806  1.0000
  F   F138      1.0  0.55119  0.25210  0.65020  1.0000
  F   F139      1.0  0.56534  0.74008  0.15800  1.0000
  F   F140      1.0  0.56924  0.75882  0.61988  1.0000
  F   F141      1.0  0.81888  0.25232  0.14334  1.0000
  F   F142      1.0  0.82881  0.25369  0.61637  1.0000
  F   F143      1.0  0.81370  0.74362  0.14705  1.0000
  F   F144      1.0  0.81622  0.74103  0.64849  1.0000
  F   F145      1.0  0.12388  0.38924  0.09810  1.0000
  F   F146      1.0  0.12182  0.35723  0.63074  1.0000
  F   F147      1.0  0.12120  0.83479  0.13774  1.0000
  F   F148      1.0  0.12619  0.85452  0.60640  1.0000
  F   F149      1.0  0.37140  0.36577  0.11354  1.0000
  F   F150      1.0  0.37242  0.36361  0.61645  1.0000
  F   F151      1.0  0.38338  0.87474  0.08441  1.0000
  F   F152      1.0  0.37364  0.86845  0.62383  1.0000
  F   F153      1.0  0.63108  0.37488  0.08991  1.0000
  F   F154      1.0  0.62743  0.38891  0.60332  1.0000
  F   F155      1.0  0.62559  0.87554  0.09578  1.0000
  F   F156      1.0  0.62546  0.85946  0.61036  1.0000
  F   F157      1.0  0.87234  0.40217  0.09531  1.0000
  F   F158      1.0  0.88008  0.38883  0.58101  1.0000
  F   F159      1.0  0.87644  0.85183  0.12605  1.0000
  F   F160      1.0  0.86905  0.87705  0.62551  1.0000
  F   F161      1.0  0.18451  0.25453  0.36204  1.0000
  F   F162      1.0  0.18278  0.25583  0.86093  1.0000
  F   F163      1.0  0.17726  0.75435  0.34004  1.0000
  F   F164      1.0  0.19109  0.74994  0.85475  1.0000
  F   F165      1.0  0.43135  0.25596  0.36581  1.0000
  F   F166      1.0  0.43265  0.24943  0.86581  1.0000
  F   F167      1.0  0.43488  0.75370  0.35966  1.0000
  F   F168      1.0  0.43150  0.74564  0.86101  1.0000
  F   F169      1.0  0.68872  0.23753  0.36924  1.0000
  F   F170      1.0  0.68494  0.24467  0.85098  1.0000
  F   F171      1.0  0.70321  0.75666  0.33643  1.0000
  F   F172      1.0  0.67179  0.73482  0.88178  1.0000
  F   F173      1.0  0.93188  0.24722  0.36636  1.0000
  F   F174      1.0  0.93962  0.25206  0.83949  1.0000
  F   F175      1.0  0.92833  0.74907  0.35940  1.0000
  F   F176      1.0  0.93010  0.74592  0.88002  1.0000
  F   F177      1.0  0.12228  0.12393  0.39690  1.0000
  F   F178      1.0  0.12559  0.12167  0.89332  1.0000
  F   F179      1.0  0.11933  0.63819  0.39102  1.0000
  F   F180      1.0  0.12150  0.66416  0.87320  1.0000
  F   F181      1.0  0.37981  0.12425  0.38883  1.0000
  F   F182      1.0  0.37385  0.12272  0.89576  1.0000
  F   F183      1.0  0.37611  0.64479  0.38543  1.0000
  F   F184      1.0  0.37743  0.61039  0.90194  1.0000
  F   F185      1.0  0.62918  0.12549  0.38328  1.0000
  F   F186      1.0  0.62143  0.12882  0.89056  1.0000
  F   F187      1.0  0.63014  0.60831  0.40345  1.0000
  F   F188      1.0  0.62209  0.61629  0.89248  1.0000
  F   F189      1.0  0.87408  0.12287  0.40750  1.0000
  F   F190      1.0  0.88320  0.13684  0.87298  1.0000
  F   F191      1.0  0.87380  0.63565  0.37899  1.0000
  F   F192      1.0  0.87459  0.61212  0.88977  1.0000
  F   F193      1.0  0.00956  0.36980  0.05841  1.0000
  F   F194      1.0  0.00928  0.35725  0.58042  1.0000
  F   F195      1.0  0.00715  0.88377  0.07010  1.0000
  F   F196      1.0  0.00567  0.85817  0.58498  1.0000
  F   F197      1.0  0.25219  0.36822  0.08674  1.0000
  F   F198      1.0  0.26437  0.34996  0.56889  1.0000
  F   F199      1.0  0.25721  0.85833  0.08192  1.0000
  F   F200      1.0  0.25321  0.85979  0.58483  1.0000
  F   F201      1.0  0.50653  0.35660  0.07990  1.0000
  F   F202      1.0  0.50407  0.37085  0.56831  1.0000
  F   F203      1.0  0.50754  0.87842  0.07965  1.0000
  F   F204      1.0  0.50050  0.85590  0.59833  1.0000
  F   F205      1.0  0.75658  0.35444  0.08852  1.0000
  F   F206      1.0  0.76055  0.35208  0.57360  1.0000
  F   F207      1.0  0.75774  0.85375  0.07842  1.0000
  F   F208      1.0  0.75655  0.87024  0.58241  1.0000
  F   F209      1.0  0.06746  0.49895  0.17602  1.0000
  F   F210      1.0  0.07787  0.49053  0.65807  1.0000
  F   F211      1.0  0.07316  0.98980  0.16796  1.0000
  F   F212      1.0  0.07532  0.98219  0.66503  1.0000
  F   F213      1.0  0.32201  0.48426  0.19058  1.0000
  F   F214      1.0  0.31939  0.49601  0.65878  1.0000
  F   F215      1.0  0.32003  0.97577  0.18381  1.0000
  F   F216      1.0  0.31693  0.98083  0.69303  1.0000
  F   F217      1.0  0.57110  0.48758  0.16448  1.0000
  F   F218      1.0  0.56702  0.48303  0.68655  1.0000
  F   F219      1.0  0.56584  0.97905  0.17997  1.0000
  F   F220      1.0  0.56602  0.98558  0.67605  1.0000
  F   F221      1.0  0.81081  0.48110  0.19477  1.0000
  F   F222      1.0  0.81427  0.46684  0.69526  1.0000
  F   F223      1.0  0.82450  0.99585  0.15714  1.0000
  F   F224      1.0  0.80696  0.98501  0.69172  1.0000
  F   F225      1.0  0.24611  0.15171  0.41590  1.0000
  F   F226      1.0  0.23959  0.13628  0.92784  1.0000
  F   F227      1.0  0.23939  0.63884  0.42210  1.0000
  F   F228      1.0  0.24151  0.62128  0.95091  1.0000
  F   F229      1.0  0.49973  0.15385  0.40661  1.0000
  F   F230      1.0  0.49370  0.12926  0.94192  1.0000
  F   F231      1.0  0.49863  0.64915  0.40847  1.0000
  F   F232      1.0  0.48827  0.64780  0.93148  1.0000
  F   F233      1.0  0.73765  0.10658  0.45957  1.0000
  F   F234      1.0  0.73896  0.13208  0.94298  1.0000
  F   F235      1.0  0.74246  0.61948  0.43863  1.0000
  F   F236      1.0  0.74325  0.65051  0.90827  1.0000
  F   F237      1.0  0.98866  0.13799  0.42790  1.0000
  F   F238      1.0  0.99113  0.11822  0.94774  1.0000
  F   F239      1.0  0.98843  0.63455  0.43069  1.0000
  F   F240      1.0  0.99115  0.62313  0.93697  1.0000
  F   F241      1.0  0.17824  0.02117  0.30839  1.0000
  F   F242      1.0  0.18213  0.00851  0.83442  1.0000
  F   F243      1.0  0.17431  0.52199  0.33281  1.0000
  F   F244      1.0  0.18184  0.52927  0.82739  1.0000
  F   F245      1.0  0.43993  0.02228  0.32045  1.0000
  F   F246      1.0  0.43364  0.01710  0.83210  1.0000
  F   F247      1.0  0.43249  0.53025  0.30866  1.0000
  F   F248      1.0  0.43223  0.51860  0.81947  1.0000
  F   F249      1.0  0.68808  0.00733  0.31490  1.0000
  F   F250      1.0  0.67397  0.01389  0.83111  1.0000
  F   F251      1.0  0.68374  0.50992  0.31483  1.0000
  F   F252      1.0  0.68355  0.50927  0.81737  1.0000
  F   F253      1.0  0.92574  0.01866  0.32363  1.0000
  F   F254      1.0  0.93522  0.00908  0.80978  1.0000
  F   F255      1.0  0.92944  0.51495  0.33651  1.0000
  F   F256      1.0  0.93732  0.50870  0.82712  1.0000
  F   F257      1.0  0.99886  0.25555  0.98913  1.0000
  F   F258      1.0  0.00119  0.25975  0.48615  1.0000
  F   F259      1.0  0.00302  0.76167  0.00331  1.0000
  F   F260      1.0  0.99714  0.76683  0.48602  1.0000
  F   F261      1.0  0.25238  0.26666  0.98680  1.0000
  F   F262      1.0  0.25323  0.23435  0.51677  1.0000
  F   F263      1.0  0.25311  0.74311  0.00304  1.0000
  F   F264      1.0  0.24536  0.74174  0.49359  1.0000
  F   F265      1.0  0.50353  0.24057  0.00926  1.0000
  F   F266      1.0  0.49639  0.25440  0.49890  1.0000
  F   F267      1.0  0.50496  0.76093  0.99587  1.0000
  F   F268      1.0  0.50206  0.74405  0.50668  1.0000
  F   F269      1.0  0.75560  0.24129  0.99661  1.0000
  F   F270      1.0  0.75018  0.27238  0.48319  1.0000
  F   F271      1.0  0.75155  0.74712  0.00923  1.0000
  F   F272      1.0  0.75167  0.75328  0.50114  1.0000
  F   F273      1.0  0.11586  0.00206  0.26258  1.0000
  F   F274      1.0  0.12672  0.01157  0.75231  1.0000
  F   F275      1.0  0.12456  0.49320  0.25419  1.0000
  F   F276      1.0  0.13224  0.50133  0.74427  1.0000
  F   F277      1.0  0.37944  0.00433  0.24835  1.0000
  F   F278      1.0  0.38239  0.01436  0.75197  1.0000
  F   F279      1.0  0.37433  0.50690  0.26050  1.0000
  F   F280      1.0  0.36820  0.49437  0.75420  1.0000
  F   F281      1.0  0.62120  0.98295  0.26010  1.0000
  F   F282      1.0  0.62558  0.99673  0.75090  1.0000
  F   F283      1.0  0.62249  0.47963  0.24455  1.0000
  F   F284      1.0  0.62606  0.49026  0.75626  1.0000
  F   F285      1.0  0.85534  0.99053  0.28134  1.0000
  F   F286      1.0  0.87066  0.99196  0.74454  1.0000
  F   F287      1.0  0.87737  0.50441  0.23946  1.0000
  F   F288      1.0  0.87392  0.50528  0.75040  1.0000
  F   F289      1.0  0.04503  0.03758  0.02906  1.0000
  F   F290      1.0  0.03877  0.02705  0.52472  1.0000
  F   F291      1.0  0.04847  0.52815  0.02057  1.0000
  F   F292      1.0  0.04107  0.53068  0.52695  1.0000
  F   F293      1.0  0.29296  0.02885  0.02559  1.0000
  F   F294      1.0  0.29635  0.02955  0.51716  1.0000
  F   F295      1.0  0.29762  0.52269  0.02642  1.0000
  F   F296      1.0  0.28443  0.53352  0.52605  1.0000
  F   F297      1.0  0.54302  0.02735  0.02495  1.0000
  F   F298      1.0  0.54032  0.02893  0.52376  1.0000
  F   F299      1.0  0.53857  0.53690  0.01955  1.0000
  F   F300      1.0  0.54256  0.52649  0.52134  1.0000
  F   F301      1.0  0.79579  0.03353  0.01680  1.0000
  F   F302      1.0  0.78863  0.02563  0.54408  1.0000
  F   F303      1.0  0.79220  0.52214  0.03114  1.0000
  F   F304      1.0  0.79314  0.52152  0.52868  1.0000
  F   F305      1.0  0.23184  0.43243  0.21999  1.0000
  F   F306      1.0  0.23478  0.41760  0.73316  1.0000
  F   F307      1.0  0.23929  0.90136  0.23820  1.0000
  F   F308      1.0  0.23426  0.91197  0.72042  1.0000
  F   F309      1.0  0.48544  0.40553  0.23321  1.0000
  F   F310      1.0  0.48139  0.42658  0.72092  1.0000
  F   F311      1.0  0.48060  0.91936  0.22836  1.0000
  F   F312      1.0  0.48570  0.92221  0.72129  1.0000
  F   F313      1.0  0.73165  0.42504  0.22829  1.0000
  F   F314      1.0  0.73300  0.40948  0.72157  1.0000
  F   F315      1.0  0.73699  0.91941  0.20921  1.0000
  F   F316      1.0  0.72982  0.90021  0.75002  1.0000
  F   F317      1.0  0.98291  0.41146  0.22119  1.0000
  F   F318      1.0  0.98427  0.41328  0.72674  1.0000
  F   F319      1.0  0.98845  0.90332  0.25147  1.0000
  F   F320      1.0  0.99129  0.90974  0.72989  1.0000
  F   F321      1.0  0.20307  0.47185  0.48736  1.0000
  F   F322      1.0  0.20713  0.47448  0.97133  1.0000
  F   F323      1.0  0.20373  0.96290  0.46807  1.0000
  F   F324      1.0  0.20491  0.96781  0.98016  1.0000
  F   F325      1.0  0.45826  0.46839  0.46470  1.0000
  F   F326      1.0  0.45617  0.47850  0.98205  1.0000
  F   F327      1.0  0.45777  0.95996  0.48215  1.0000
  F   F328      1.0  0.46649  0.97261  0.97319  1.0000
  F   F329      1.0  0.71271  0.47173  0.46191  1.0000
  F   F330      1.0  0.71628  0.46068  0.96999  1.0000
  F   F331      1.0  0.70235  0.96225  0.48143  1.0000
  F   F332      1.0  0.71062  0.97179  0.95750  1.0000
  F   F333      1.0  0.96275  0.47962  0.47312  1.0000
  F   F334      1.0  0.95319  0.46409  0.98013  1.0000
  F   F335      1.0  0.95499  0.96851  0.46699  1.0000
  F   F336      1.0  0.94677  0.97608  0.98279  1.0000
  F   F337      1.0  0.01489  0.09878  0.27051  1.0000
  F   F338      1.0  0.01600  0.07571  0.78688  1.0000
  F   F339      1.0  0.00556  0.59813  0.27025  1.0000
  F   F340      1.0  0.01544  0.60230  0.75747  1.0000
  F   F341      1.0  0.26323  0.08499  0.27014  1.0000
  F   F342      1.0  0.26578  0.08437  0.76996  1.0000
  F   F343      1.0  0.25906  0.57894  0.27416  1.0000
  F   F344      1.0  0.27030  0.56787  0.78997  1.0000
  F   F345      1.0  0.52053  0.08142  0.26957  1.0000
  F   F346      1.0  0.51307  0.08722  0.77442  1.0000
  F   F347      1.0  0.51717  0.57554  0.27811  1.0000
  F   F348      1.0  0.51523  0.58823  0.77426  1.0000
  F   F349      1.0  0.76627  0.08708  0.27348  1.0000
  F   F350      1.0  0.76126  0.11173  0.75196  1.0000
  F   F351      1.0  0.76172  0.58922  0.26445  1.0000
  F   F352      1.0  0.76248  0.57909  0.77709  1.0000
  F   F353      1.0  0.10110  0.40193  0.47830  1.0000
  F   F354      1.0  0.10433  0.41244  0.94892  1.0000
  F   F355      1.0  0.10671  0.91387  0.46044  1.0000
  F   F356      1.0  0.10533  0.90718  0.98036  1.0000
  F   F357      1.0  0.34721  0.41983  0.46245  1.0000
  F   F358      1.0  0.34876  0.39651  0.96409  1.0000
  F   F359      1.0  0.35241  0.92534  0.45535  1.0000
  F   F360      1.0  0.35016  0.91623  0.95089  1.0000
  F   F361      1.0  0.59826  0.40127  0.46875  1.0000
  F   F362      1.0  0.60270  0.42002  0.96393  1.0000
  F   F363      1.0  0.60365  0.91946  0.45083  1.0000
  F   F364      1.0  0.59842  0.87647  0.96830  1.0000
  F   F365      1.0  0.84829  0.41831  0.43925  1.0000
  F   F366      1.0  0.84789  0.40485  0.95826  1.0000
  F   F367      1.0  0.84676  0.90741  0.47496  1.0000
  F   F368      1.0  0.85295  0.90326  0.97213  1.0000
  F   F369      1.0  0.04346  0.30387  0.28393  1.0000
  F   F370      1.0  0.03907  0.28329  0.78159  1.0000
  F   F371      1.0  0.04239  0.79022  0.29160  1.0000
  F   F372      1.0  0.05473  0.78630  0.78174  1.0000
  F   F373      1.0  0.29745  0.30082  0.29194  1.0000
  F   F374      1.0  0.28786  0.30062  0.78665  1.0000
  F   F375      1.0  0.29973  0.78804  0.28653  1.0000
  F   F376      1.0  0.28963  0.79674  0.79174  1.0000
  F   F377      1.0  0.55265  0.30497  0.28766  1.0000
  F   F378      1.0  0.53689  0.28867  0.79897  1.0000
  F   F379      1.0  0.55518  0.80564  0.27935  1.0000
  F   F380      1.0  0.54760  0.79053  0.77704  1.0000
  F   F381      1.0  0.78074  0.30118  0.29299  1.0000
  F   F382      1.0  0.80563  0.28325  0.77510  1.0000
  F   F383      1.0  0.79860  0.78879  0.29326  1.0000
  F   F384      1.0  0.79936  0.79781  0.79617  1.0000
