data_image0
_chemical_formula_structural       Hf96F384
_chemical_formula_sum              "Hf96 F384"
_cell_length_a       31.009
_cell_length_b       15.5046
_cell_length_c       15.4974
_cell_angle_alpha    63.342
_cell_angle_beta     63.342
_cell_angle_gamma    80.1625

_space_group_name_H-M_alt    "P 1"
_space_group_IT_number       1

loop_
  _space_group_symop_operation_xyz
  'x, y, z'

loop_
  _atom_site_type_symbol
  _atom_site_label
  _atom_site_symmetry_multiplicity
  _atom_site_fract_x
  _atom_site_fract_y
  _atom_site_fract_z
  _atom_site_occupancy
  Hf  Hf1       1.0  0.19511  0.11130  0.37679  1.0000
  Hf  Hf2       1.0  0.19325  0.11511  0.87173  1.0000
  Hf  Hf3       1.0  0.19751  0.61168  0.36921  1.0000
  Hf  Hf4       1.0  0.19527  0.61211  0.87418  1.0000
  Hf  Hf5       1.0  0.44543  0.10104  0.37817  1.0000
  Hf  Hf6       1.0  0.44232  0.11614  0.87396  1.0000
  Hf  Hf7       1.0  0.44957  0.60403  0.36929  1.0000
  Hf  Hf8       1.0  0.44739  0.60652  0.87326  1.0000
  Hf  Hf9       1.0  0.69717  0.10200  0.37813  1.0000
  Hf  Hf10      1.0  0.69246  0.10645  0.87935  1.0000
  Hf  Hf11      1.0  0.69657  0.60136  0.38130  1.0000
  Hf  Hf12      1.0  0.69718  0.60573  0.87547  1.0000
  Hf  Hf13      1.0  0.94767  0.10724  0.37855  1.0000
  Hf  Hf14      1.0  0.94699  0.10291  0.87134  1.0000
  Hf  Hf15      1.0  0.94527  0.60944  0.37487  1.0000
  Hf  Hf16      1.0  0.94508  0.60788  0.88290  1.0000
  Hf  Hf17      1.0  0.05568  0.39996  0.11641  1.0000
  Hf  Hf18      1.0  0.05493  0.40149  0.61382  1.0000
  Hf  Hf19      1.0  0.05337  0.89341  0.13135  1.0000
  Hf  Hf20      1.0  0.05517  0.89802  0.62159  1.0000
  Hf  Hf21      1.0  0.30602  0.39308  0.11613  1.0000
  Hf  Hf22      1.0  0.30224  0.38785  0.62471  1.0000
  Hf  Hf23      1.0  0.30683  0.89700  0.12046  1.0000
  Hf  Hf24      1.0  0.30775  0.89253  0.62435  1.0000
  Hf  Hf25      1.0  0.55377  0.38786  0.12757  1.0000
  Hf  Hf26      1.0  0.55579  0.38704  0.62611  1.0000
  Hf  Hf27      1.0  0.55343  0.89012  0.12529  1.0000
  Hf  Hf28      1.0  0.55489  0.89077  0.62371  1.0000
  Hf  Hf29      1.0  0.80180  0.39449  0.11632  1.0000
  Hf  Hf30      1.0  0.80238  0.39325  0.62607  1.0000
  Hf  Hf31      1.0  0.80753  0.89261  0.12453  1.0000
  Hf  Hf32      1.0  0.80297  0.88463  0.62857  1.0000
  Hf  Hf33      1.0  0.05476  0.18949  0.41368  1.0000
  Hf  Hf34      1.0  0.05475  0.18374  0.91610  1.0000
  Hf  Hf35      1.0  0.05292  0.68486  0.42484  1.0000
  Hf  Hf36      1.0  0.05560  0.68510  0.91493  1.0000
  Hf  Hf37      1.0  0.30588  0.18124  0.41719  1.0000
  Hf  Hf38      1.0  0.30286  0.18803  0.91528  1.0000
  Hf  Hf39      1.0  0.30466  0.67939  0.41882  1.0000
  Hf  Hf40      1.0  0.30715  0.68552  0.91252  1.0000
  Hf  Hf41      1.0  0.55518  0.18461  0.41961  1.0000
  Hf  Hf42      1.0  0.55235  0.17744  0.92054  1.0000
  Hf  Hf43      1.0  0.55842  0.67756  0.42146  1.0000
  Hf  Hf44      1.0  0.55612  0.67985  0.91493  1.0000
  Hf  Hf45      1.0  0.80498  0.18118  0.42577  1.0000
  Hf  Hf46      1.0  0.80555  0.18510  0.91328  1.0000
  Hf  Hf47      1.0  0.80436  0.68388  0.41834  1.0000
  Hf  Hf48      1.0  0.80891  0.68294  0.91344  1.0000
  Hf  Hf49      1.0  0.15760  0.39799  0.33014  1.0000
  Hf  Hf50      1.0  0.16007  0.38610  0.83848  1.0000
  Hf  Hf51      1.0  0.15786  0.89100  0.33218  1.0000
  Hf  Hf52      1.0  0.16122  0.89446  0.82735  1.0000
  Hf  Hf53      1.0  0.41036  0.38120  0.33261  1.0000
  Hf  Hf54      1.0  0.40828  0.38686  0.83266  1.0000
  Hf  Hf55      1.0  0.40884  0.88494  0.33796  1.0000
  Hf  Hf56      1.0  0.41116  0.89314  0.82603  1.0000
  Hf  Hf57      1.0  0.65699  0.38021  0.33847  1.0000
  Hf  Hf58      1.0  0.65853  0.38922  0.83353  1.0000
  Hf  Hf59      1.0  0.66086  0.88627  0.33129  1.0000
  Hf  Hf60      1.0  0.65805  0.88317  0.84180  1.0000
  Hf  Hf61      1.0  0.90867  0.38805  0.32808  1.0000
  Hf  Hf62      1.0  0.90825  0.38711  0.82911  1.0000
  Hf  Hf63      1.0  0.90720  0.88211  0.34226  1.0000
  Hf  Hf64      1.0  0.91096  0.88967  0.82669  1.0000
  Hf  Hf65      1.0  0.19063  0.31586  0.09111  1.0000
  Hf  Hf66      1.0  0.19672  0.31904  0.58148  1.0000
  Hf  Hf67      1.0  0.19620  0.82473  0.07682  1.0000
  Hf  Hf68      1.0  0.19136  0.81894  0.58332  1.0000
  Hf  Hf69      1.0  0.44368  0.31533  0.08406  1.0000
  Hf  Hf70      1.0  0.44311  0.31080  0.58737  1.0000
  Hf  Hf71      1.0  0.44387  0.82745  0.07611  1.0000
  Hf  Hf72      1.0  0.44827  0.82407  0.57425  1.0000
  Hf  Hf73      1.0  0.69237  0.30731  0.08840  1.0000
  Hf  Hf74      1.0  0.69244  0.31343  0.58706  1.0000
  Hf  Hf75      1.0  0.69640  0.81203  0.08633  1.0000
  Hf  Hf76      1.0  0.69531  0.81519  0.58233  1.0000
  Hf  Hf77      1.0  0.94335  0.31967  0.08119  1.0000
  Hf  Hf78      1.0  0.94299  0.31918  0.58489  1.0000
  Hf  Hf79      1.0  0.94605  0.81316  0.08634  1.0000
  Hf  Hf80      1.0  0.94264  0.81871  0.58703  1.0000
  Hf  Hf81      1.0  0.08929  0.11812  0.16096  1.0000
  Hf  Hf82      1.0  0.09424  0.11409  0.66324  1.0000
  Hf  Hf83      1.0  0.09098  0.62459  0.16415  1.0000
  Hf  Hf84      1.0  0.09127  0.61244  0.66146  1.0000
  Hf  Hf85      1.0  0.34057  0.10924  0.16816  1.0000
  Hf  Hf86      1.0  0.33984  0.11546  0.67223  1.0000
  Hf  Hf87      1.0  0.34179  0.61342  0.16392  1.0000
  Hf  Hf88      1.0  0.34802  0.61481  0.65884  1.0000
  Hf  Hf89      1.0  0.58856  0.11150  0.16977  1.0000
  Hf  Hf90      1.0  0.59018  0.10779  0.67349  1.0000
  Hf  Hf91      1.0  0.59180  0.60569  0.16950  1.0000
  Hf  Hf92      1.0  0.59210  0.60962  0.67029  1.0000
  Hf  Hf93      1.0  0.83963  0.10750  0.17078  1.0000
  Hf  Hf94      1.0  0.83806  0.11080  0.66858  1.0000
  Hf  Hf95      1.0  0.83981  0.61184  0.16521  1.0000
  Hf  Hf96      1.0  0.83892  0.60885  0.66834  1.0000
  F   F1        1.0  0.07935  0.13724  0.28974  1.0000
  F   F2        1.0  0.08132  0.12884  0.80014  1.0000
  F   F3        1.0  0.07575  0.61447  0.31469  1.0000
  F   F4        1.0  0.08161  0.63255  0.79821  1.0000
  F   F5        1.0  0.31943  0.10261  0.32311  1.0000
  F   F6        1.0  0.32187  0.11633  0.81994  1.0000
  F   F7        1.0  0.32829  0.63730  0.29734  1.0000
  F   F8        1.0  0.33429  0.64153  0.78977  1.0000
  F   F9        1.0  0.58138  0.12608  0.30989  1.0000
  F   F10       1.0  0.57569  0.11856  0.81239  1.0000
  F   F11       1.0  0.58630  0.64836  0.29520  1.0000
  F   F12       1.0  0.58140  0.63845  0.79462  1.0000
  F   F13       1.0  0.83173  0.12941  0.29796  1.0000
  F   F14       1.0  0.82869  0.14061  0.79245  1.0000
  F   F15       1.0  0.82771  0.62868  0.30149  1.0000
  F   F16       1.0  0.83371  0.64563  0.79115  1.0000
  F   F17       1.0  0.18657  0.34924  0.43965  1.0000
  F   F18       1.0  0.18842  0.33912  0.94632  1.0000
  F   F19       1.0  0.18743  0.83840  0.44434  1.0000
  F   F20       1.0  0.19206  0.83848  0.94578  1.0000
  F   F21       1.0  0.43764  0.33232  0.44729  1.0000
  F   F22       1.0  0.43720  0.34683  0.94716  1.0000
  F   F23       1.0  0.44316  0.84963  0.43723  1.0000
  F   F24       1.0  0.43958  0.85907  0.93811  1.0000
  F   F25       1.0  0.67732  0.32909  0.45958  1.0000
  F   F26       1.0  0.68576  0.33702  0.94849  1.0000
  F   F27       1.0  0.68371  0.82388  0.45374  1.0000
  F   F28       1.0  0.68735  0.83538  0.95157  1.0000
  F   F29       1.0  0.94110  0.34381  0.43647  1.0000
  F   F30       1.0  0.93492  0.35397  0.94589  1.0000
  F   F31       1.0  0.93733  0.84591  0.44954  1.0000
  F   F32       1.0  0.92608  0.82297  0.96116  1.0000
  F   F33       1.0  0.17565  0.37964  0.19532  1.0000
  F   F34       1.0  0.17740  0.37549  0.69168  1.0000
  F   F35       1.0  0.16621  0.87374  0.19608  1.0000
  F   F36       1.0  0.18030  0.89512  0.67677  1.0000
  F   F37       1.0  0.42059  0.36973  0.19703  1.0000
  F   F38       1.0  0.41974  0.36846  0.69952  1.0000
  F   F39       1.0  0.42464  0.86104  0.20182  1.0000
  F   F40       1.0  0.42929  0.88360  0.68241  1.0000
  F   F41       1.0  0.66053  0.36477  0.20327  1.0000
  F   F42       1.0  0.67254  0.36099  0.70421  1.0000
  F   F43       1.0  0.67477  0.88106  0.19061  1.0000
  F   F44       1.0  0.66798  0.86053  0.70454  1.0000
  F   F45       1.0  0.92521  0.39198  0.18304  1.0000
  F   F46       1.0  0.92214  0.38303  0.69122  1.0000
  F   F47       1.0  0.92790  0.87042  0.19916  1.0000
  F   F48       1.0  0.91865  0.87943  0.69405  1.0000
  F   F49       1.0  0.04907  0.15039  0.06150  1.0000
  F   F50       1.0  0.07282  0.16416  0.54491  1.0000
  F   F51       1.0  0.06218  0.67954  0.04642  1.0000
  F   F52       1.0  0.05914  0.66959  0.55922  1.0000
  F   F53       1.0  0.31722  0.16105  0.04772  1.0000
  F   F54       1.0  0.31491  0.17037  0.54487  1.0000
  F   F55       1.0  0.31647  0.66087  0.04606  1.0000
  F   F56       1.0  0.31450  0.64574  0.55807  1.0000
  F   F57       1.0  0.56196  0.16228  0.05190  1.0000
  F   F58       1.0  0.56073  0.14257  0.56020  1.0000
  F   F59       1.0  0.56252  0.64707  0.06557  1.0000
  F   F60       1.0  0.56281  0.65202  0.55771  1.0000
  F   F61       1.0  0.82244  0.16063  0.04426  1.0000
  F   F62       1.0  0.80718  0.15842  0.56354  1.0000
  F   F63       1.0  0.81692  0.65554  0.05122  1.0000
  F   F64       1.0  0.81746  0.66221  0.54475  1.0000
  F   F65       1.0  0.20171  0.20031  0.21987  1.0000
  F   F66       1.0  0.20234  0.20192  0.71051  1.0000
  F   F67       1.0  0.20605  0.70986  0.20912  1.0000
  F   F68       1.0  0.18770  0.69977  0.71799  1.0000
  F   F69       1.0  0.45717  0.19846  0.21290  1.0000
  F   F70       1.0  0.45755  0.20734  0.71439  1.0000
  F   F71       1.0  0.46317  0.69733  0.21452  1.0000
  F   F72       1.0  0.45850  0.70290  0.71179  1.0000
  F   F73       1.0  0.70179  0.19717  0.20842  1.0000
  F   F74       1.0  0.70796  0.19281  0.72654  1.0000
  F   F75       1.0  0.70119  0.70147  0.21506  1.0000
  F   F76       1.0  0.71028  0.70414  0.71187  1.0000
  F   F77       1.0  0.95204  0.20080  0.20529  1.0000
  F   F78       1.0  0.95573  0.21072  0.70930  1.0000
  F   F79       1.0  0.95389  0.69298  0.22036  1.0000
  F   F80       1.0  0.94253  0.70414  0.71495  1.0000
  F   F81       1.0  0.14911  0.10399  0.03105  1.0000
  F   F82       1.0  0.14502  0.07953  0.54732  1.0000
  F   F83       1.0  0.14947  0.61756  0.02944  1.0000
  F   F84       1.0  0.14687  0.59449  0.52797  1.0000
  F   F85       1.0  0.39692  0.09787  0.04051  1.0000
  F   F86       1.0  0.38990  0.10368  0.52926  1.0000
  F   F87       1.0  0.39870  0.59901  0.03397  1.0000
  F   F88       1.0  0.40225  0.59495  0.53763  1.0000
  F   F89       1.0  0.64658  0.07914  0.04617  1.0000
  F   F90       1.0  0.64808  0.10105  0.53949  1.0000
  F   F91       1.0  0.65277  0.58449  0.04482  1.0000
  F   F92       1.0  0.65068  0.58945  0.53836  1.0000
  F   F93       1.0  0.90011  0.07728  0.04413  1.0000
  F   F94       1.0  0.89545  0.10626  0.53090  1.0000
  F   F95       1.0  0.90054  0.58914  0.04656  1.0000
  F   F96       1.0  0.90064  0.57875  0.53077  1.0000
  F   F97       1.0  0.15093  0.20106  0.12591  1.0000
  F   F98       1.0  0.15207  0.19780  0.61935  1.0000
  F   F99       1.0  0.14998  0.70246  0.12795  1.0000
  F   F100      1.0  0.14923  0.70403  0.61185  1.0000
  F   F101      1.0  0.40106  0.19000  0.12544  1.0000
  F   F102      1.0  0.39822  0.19087  0.64151  1.0000
  F   F103      1.0  0.40705  0.69515  0.11879  1.0000
  F   F104      1.0  0.40598  0.70547  0.61178  1.0000
  F   F105      1.0  0.65174  0.19006  0.11845  1.0000
  F   F106      1.0  0.65091  0.19276  0.64319  1.0000
  F   F107      1.0  0.65886  0.69545  0.11247  1.0000
  F   F108      1.0  0.65488  0.68161  0.63803  1.0000
  F   F109      1.0  0.89707  0.19677  0.11210  1.0000
  F   F110      1.0  0.90187  0.20560  0.61920  1.0000
  F   F111      1.0  0.90195  0.70303  0.13606  1.0000
  F   F112      1.0  0.89803  0.69200  0.60976  1.0000
  F   F113      1.0  0.09843  0.31389  0.36887  1.0000
  F   F114      1.0  0.10028  0.29601  0.90574  1.0000
  F   F115      1.0  0.10151  0.79856  0.38385  1.0000
  F   F116      1.0  0.10462  0.79524  0.85334  1.0000
  F   F117      1.0  0.35341  0.31571  0.36510  1.0000
  F   F118      1.0  0.34346  0.31250  0.87384  1.0000
  F   F119      1.0  0.35164  0.78860  0.37432  1.0000
  F   F120      1.0  0.34922  0.81131  0.86820  1.0000
  F   F121      1.0  0.59483  0.29784  0.39561  1.0000
  F   F122      1.0  0.59293  0.29884  0.85033  1.0000
  F   F123      1.0  0.60342  0.79102  0.37260  1.0000
  F   F124      1.0  0.59867  0.78399  0.88600  1.0000
  F   F125      1.0  0.85257  0.30104  0.38671  1.0000
  F   F126      1.0  0.84285  0.30154  0.87170  1.0000
  F   F127      1.0  0.84723  0.80892  0.37332  1.0000
  F   F128      1.0  0.85352  0.79238  0.86633  1.0000
  F   F129      1.0  0.06914  0.25488  0.11911  1.0000
  F   F130      1.0  0.06862  0.25353  0.64495  1.0000
  F   F131      1.0  0.05849  0.75213  0.16560  1.0000
  F   F132      1.0  0.06352  0.75263  0.64546  1.0000
  F   F133      1.0  0.31441  0.24397  0.14586  1.0000
  F   F134      1.0  0.31201  0.24925  0.64548  1.0000
  F   F135      1.0  0.31738  0.74640  0.13536  1.0000
  F   F136      1.0  0.31946  0.75556  0.62597  1.0000
  F   F137      1.0  0.56519  0.25313  0.13408  1.0000
  F   F138      1.0  0.57022  0.24468  0.62761  1.0000
  F   F139      1.0  0.56328  0.75406  0.13274  1.0000
  F   F140      1.0  0.56114  0.74420  0.65207  1.0000
  F   F141      1.0  0.79657  0.25655  0.16465  1.0000
  F   F142      1.0  0.81712  0.25400  0.64430  1.0000
  F   F143      1.0  0.82143  0.75006  0.12684  1.0000
  F   F144      1.0  0.80976  0.74861  0.63924  1.0000
  F   F145      1.0  0.11942  0.35712  0.12626  1.0000
  F   F146      1.0  0.12594  0.38301  0.59421  1.0000
  F   F147      1.0  0.12428  0.87615  0.10004  1.0000
  F   F148      1.0  0.12708  0.87255  0.61319  1.0000
  F   F149      1.0  0.37150  0.34885  0.12399  1.0000
  F   F150      1.0  0.37455  0.35826  0.61037  1.0000
  F   F151      1.0  0.37552  0.87428  0.10556  1.0000
  F   F152      1.0  0.38121  0.88167  0.59085  1.0000
  F   F153      1.0  0.62477  0.37424  0.09702  1.0000
  F   F154      1.0  0.62291  0.36196  0.62337  1.0000
  F   F155      1.0  0.62431  0.86156  0.11878  1.0000
  F   F156      1.0  0.62353  0.86152  0.61283  1.0000
  F   F157      1.0  0.87327  0.35928  0.11601  1.0000
  F   F158      1.0  0.87387  0.38065  0.61039  1.0000
  F   F159      1.0  0.87566  0.88036  0.10208  1.0000
  F   F160      1.0  0.87573  0.85485  0.61226  1.0000
  F   F161      1.0  0.17570  0.24412  0.37854  1.0000
  F   F162      1.0  0.19249  0.25383  0.85394  1.0000
  F   F163      1.0  0.18522  0.74999  0.35665  1.0000
  F   F164      1.0  0.18856  0.75710  0.84635  1.0000
  F   F165      1.0  0.43894  0.24077  0.36243  1.0000
  F   F166      1.0  0.43425  0.25043  0.86586  1.0000
  F   F167      1.0  0.43606  0.74553  0.36145  1.0000
  F   F168      1.0  0.43966  0.74865  0.86752  1.0000
  F   F169      1.0  0.68720  0.24851  0.35537  1.0000
  F   F170      1.0  0.67165  0.23968  0.87673  1.0000
  F   F171      1.0  0.68352  0.74926  0.35585  1.0000
  F   F172      1.0  0.68281  0.74218  0.86843  1.0000
  F   F173      1.0  0.94430  0.25572  0.34022  1.0000
  F   F174      1.0  0.93022  0.24559  0.86581  1.0000
  F   F175      1.0  0.92919  0.74655  0.37855  1.0000
  F   F176      1.0  0.93537  0.74864  0.85180  1.0000
  F   F177      1.0  0.12176  0.13628  0.38002  1.0000
  F   F178      1.0  0.12813  0.15599  0.87215  1.0000
  F   F179      1.0  0.12317  0.62805  0.38749  1.0000
  F   F180      1.0  0.12410  0.61554  0.90901  1.0000
  F   F181      1.0  0.37771  0.13089  0.36832  1.0000
  F   F182      1.0  0.37366  0.14118  0.88283  1.0000
  F   F183      1.0  0.37587  0.61934  0.39679  1.0000
  F   F184      1.0  0.37949  0.64325  0.88607  1.0000
  F   F185      1.0  0.62497  0.13583  0.39240  1.0000
  F   F186      1.0  0.62188  0.12042  0.89439  1.0000
  F   F187      1.0  0.62596  0.61019  0.40250  1.0000
  F   F188      1.0  0.62600  0.61920  0.89115  1.0000
  F   F189      1.0  0.87676  0.13251  0.39182  1.0000
  F   F190      1.0  0.87311  0.12576  0.89423  1.0000
  F   F191      1.0  0.87464  0.63502  0.37864  1.0000
  F   F192      1.0  0.87609  0.59756  0.91266  1.0000
  F   F193      1.0  0.01042  0.35040  0.07381  1.0000
  F   F194      1.0  0.00850  0.36808  0.57838  1.0000
  F   F195      1.0  0.01097  0.86860  0.07309  1.0000
  F   F196      1.0  0.00419  0.86261  0.58552  1.0000
  F   F197      1.0  0.25932  0.35602  0.07925  1.0000
  F   F198      1.0  0.26204  0.37195  0.55239  1.0000
  F   F199      1.0  0.25950  0.86886  0.06007  1.0000
  F   F200      1.0  0.25729  0.85459  0.59994  1.0000
  F   F201      1.0  0.50715  0.37090  0.06223  1.0000
  F   F202      1.0  0.50784  0.36150  0.57993  1.0000
  F   F203      1.0  0.50470  0.87057  0.07172  1.0000
  F   F204      1.0  0.51661  0.85560  0.56499  1.0000
  F   F205      1.0  0.75143  0.35379  0.07318  1.0000
  F   F206      1.0  0.75615  0.34999  0.58259  1.0000
  F   F207      1.0  0.76005  0.84500  0.09761  1.0000
  F   F208      1.0  0.75664  0.85863  0.58215  1.0000
  F   F209      1.0  0.07882  0.49073  0.15422  1.0000
  F   F210      1.0  0.06380  0.49420  0.66817  1.0000
  F   F211      1.0  0.06564  0.99040  0.17781  1.0000
  F   F212      1.0  0.06721  0.98014  0.67961  1.0000
  F   F213      1.0  0.32057  0.48327  0.16457  1.0000
  F   F214      1.0  0.32385  0.47758  0.67824  1.0000
  F   F215      1.0  0.32204  0.98516  0.17311  1.0000
  F   F216      1.0  0.31497  0.98958  0.68333  1.0000
  F   F217      1.0  0.56386  0.47720  0.17760  1.0000
  F   F218      1.0  0.57962  0.48560  0.66571  1.0000
  F   F219      1.0  0.56488  0.99104  0.17932  1.0000
  F   F220      1.0  0.57164  0.97740  0.68824  1.0000
  F   F221      1.0  0.81104  0.49102  0.17237  1.0000
  F   F222      1.0  0.81603  0.48361  0.67700  1.0000
  F   F223      1.0  0.81313  0.98489  0.17990  1.0000
  F   F224      1.0  0.82737  0.98006  0.67384  1.0000
  F   F225      1.0  0.24128  0.13235  0.42913  1.0000
  F   F226      1.0  0.24111  0.13708  0.94893  1.0000
  F   F227      1.0  0.24246  0.64159  0.42452  1.0000
  F   F228      1.0  0.24120  0.64649  0.92263  1.0000
  F   F229      1.0  0.49421  0.12658  0.43293  1.0000
  F   F230      1.0  0.48960  0.13096  0.93768  1.0000
  F   F231      1.0  0.49123  0.64503  0.42260  1.0000
  F   F232      1.0  0.49602  0.62990  0.92549  1.0000
  F   F233      1.0  0.74113  0.12998  0.43776  1.0000
  F   F234      1.0  0.74162  0.14791  0.90961  1.0000
  F   F235      1.0  0.74153  0.63819  0.42741  1.0000
  F   F236      1.0  0.74538  0.64597  0.91517  1.0000
  F   F237      1.0  0.99018  0.13177  0.43337  1.0000
  F   F238      1.0  0.99409  0.14486  0.91681  1.0000
  F   F239      1.0  0.99048  0.64718  0.41880  1.0000
  F   F240      1.0  0.99063  0.64929  0.92817  1.0000
  F   F241      1.0  0.17898  0.01812  0.32679  1.0000
  F   F242      1.0  0.17375  0.01742  0.84238  1.0000
  F   F243      1.0  0.18378  0.52411  0.31885  1.0000
  F   F244      1.0  0.18515  0.51022  0.82255  1.0000
  F   F245      1.0  0.43825  0.02212  0.31344  1.0000
  F   F246      1.0  0.43217  0.02031  0.81129  1.0000
  F   F247      1.0  0.44100  0.50090  0.32570  1.0000
  F   F248      1.0  0.42271  0.51425  0.83566  1.0000
  F   F249      1.0  0.67830  0.00533  0.34752  1.0000
  F   F250      1.0  0.68175  0.01008  0.83201  1.0000
  F   F251      1.0  0.68725  0.51192  0.31998  1.0000
  F   F252      1.0  0.68156  0.50935  0.82634  1.0000
  F   F253      1.0  0.92771  0.01358  0.33172  1.0000
  F   F254      1.0  0.92925  0.01958  0.81958  1.0000
  F   F255      1.0  0.92777  0.51040  0.32270  1.0000
  F   F256      1.0  0.92909  0.51059  0.80689  1.0000
  F   F257      1.0  0.99629  0.26135  0.98661  1.0000
  F   F258      1.0  0.99943  0.25262  0.50156  1.0000
  F   F259      1.0  0.00263  0.77603  0.98277  1.0000
  F   F260      1.0  0.99653  0.75219  0.50391  1.0000
  F   F261      1.0  0.24857  0.25668  0.00644  1.0000
  F   F262      1.0  0.24974  0.24551  0.50471  1.0000
  F   F263      1.0  0.25275  0.74446  0.00395  1.0000
  F   F264      1.0  0.25044  0.74752  0.49754  1.0000
  F   F265      1.0  0.49958  0.25628  0.99991  1.0000
  F   F266      1.0  0.49669  0.24508  0.50658  1.0000
  F   F267      1.0  0.50380  0.75848  0.00191  1.0000
  F   F268      1.0  0.50499  0.76097  0.48562  1.0000
  F   F269      1.0  0.75115  0.23281  0.01187  1.0000
  F   F270      1.0  0.74842  0.25321  0.49953  1.0000
  F   F271      1.0  0.75287  0.74713  0.00345  1.0000
  F   F272      1.0  0.75516  0.76241  0.48920  1.0000
  F   F273      1.0  0.12125  0.00548  0.24681  1.0000
  F   F274      1.0  0.12262  0.99894  0.75226  1.0000
  F   F275      1.0  0.12600  0.50516  0.23231  1.0000
  F   F276      1.0  0.11450  0.48971  0.76300  1.0000
  F   F277      1.0  0.38263  0.99504  0.24307  1.0000
  F   F278      1.0  0.37529  0.01024  0.73908  1.0000
  F   F279      1.0  0.37289  0.50287  0.26084  1.0000
  F   F280      1.0  0.37575  0.49952  0.74732  1.0000
  F   F281      1.0  0.62392  0.99601  0.25394  1.0000
  F   F282      1.0  0.62952  0.99287  0.75118  1.0000
  F   F283      1.0  0.61357  0.49698  0.26866  1.0000
  F   F284      1.0  0.62987  0.50247  0.74472  1.0000
  F   F285      1.0  0.87196  0.99336  0.25509  1.0000
  F   F286      1.0  0.87392  0.00514  0.75240  1.0000
  F   F287      1.0  0.86007  0.48168  0.26542  1.0000
  F   F288      1.0  0.86347  0.49540  0.76677  1.0000
  F   F289      1.0  0.05105  0.02798  0.00861  1.0000
  F   F290      1.0  0.04115  0.03393  0.52652  1.0000
  F   F291      1.0  0.04091  0.54007  0.01635  1.0000
  F   F292      1.0  0.03477  0.54280  0.52375  1.0000
  F   F293      1.0  0.29466  0.02908  0.02429  1.0000
  F   F294      1.0  0.29730  0.02677  0.53037  1.0000
  F   F295      1.0  0.29687  0.53305  0.01359  1.0000
  F   F296      1.0  0.29227  0.53345  0.51764  1.0000
  F   F297      1.0  0.53801  0.02894  0.03337  1.0000
  F   F298      1.0  0.54261  0.02361  0.52511  1.0000
  F   F299      1.0  0.54896  0.52747  0.01495  1.0000
  F   F300      1.0  0.54325  0.52659  0.52914  1.0000
  F   F301      1.0  0.79500  0.02930  0.01940  1.0000
  F   F302      1.0  0.79214  0.02743  0.53156  1.0000
  F   F303      1.0  0.78964  0.53106  0.02576  1.0000
  F   F304      1.0  0.79241  0.53166  0.52629  1.0000
  F   F305      1.0  0.23727  0.42461  0.22447  1.0000
  F   F306      1.0  0.24112  0.41906  0.71670  1.0000
  F   F307      1.0  0.23338  0.90146  0.23085  1.0000
  F   F308      1.0  0.23301  0.93026  0.72922  1.0000
  F   F309      1.0  0.48302  0.39475  0.23018  1.0000
  F   F310      1.0  0.48241  0.42757  0.72409  1.0000
  F   F311      1.0  0.48323  0.91134  0.22820  1.0000
  F   F312      1.0  0.48877  0.92355  0.72051  1.0000
  F   F313      1.0  0.73147  0.41033  0.21441  1.0000
  F   F314      1.0  0.73588  0.41172  0.72547  1.0000
  F   F315      1.0  0.73499  0.92935  0.22732  1.0000
  F   F316      1.0  0.73268  0.91586  0.73369  1.0000
  F   F317      1.0  0.99251  0.42719  0.21378  1.0000
  F   F318      1.0  0.98648  0.39318  0.73946  1.0000
  F   F319      1.0  0.98969  0.90712  0.24199  1.0000
  F   F320      1.0  0.98416  0.90875  0.73273  1.0000
  F   F321      1.0  0.21059  0.47376  0.46437  1.0000
  F   F322      1.0  0.20641  0.46458  0.98038  1.0000
  F   F323      1.0  0.20567  0.96379  0.47861  1.0000
  F   F324      1.0  0.20774  0.97591  0.98795  1.0000
  F   F325      1.0  0.46124  0.46651  0.48493  1.0000
  F   F326      1.0  0.45252  0.46809  0.98136  1.0000
  F   F327      1.0  0.45561  0.96782  0.48241  1.0000
  F   F328      1.0  0.44948  0.97042  0.97992  1.0000
  F   F329      1.0  0.71181  0.46333  0.47584  1.0000
  F   F330      1.0  0.70879  0.46662  0.97260  1.0000
  F   F331      1.0  0.70735  0.96318  0.48770  1.0000
  F   F332      1.0  0.70596  0.96889  0.98898  1.0000
  F   F333      1.0  0.96396  0.46357  0.47443  1.0000
  F   F334      1.0  0.96374  0.47359  0.97205  1.0000
  F   F335      1.0  0.94842  0.96905  0.49167  1.0000
  F   F336      1.0  0.96102  0.96278  0.97054  1.0000
  F   F337      1.0  0.01411  0.08010  0.28012  1.0000
  F   F338      1.0  0.01996  0.09111  0.76990  1.0000
  F   F339      1.0  0.01273  0.58760  0.26275  1.0000
  F   F340      1.0  0.00982  0.59743  0.76967  1.0000
  F   F341      1.0  0.26198  0.08480  0.27253  1.0000
  F   F342      1.0  0.26176  0.09751  0.77798  1.0000
  F   F343      1.0  0.26786  0.58320  0.27178  1.0000
  F   F344      1.0  0.26479  0.59824  0.76976  1.0000
  F   F345      1.0  0.51493  0.08492  0.28754  1.0000
  F   F346      1.0  0.51171  0.08511  0.78067  1.0000
  F   F347      1.0  0.52076  0.57407  0.28385  1.0000
  F   F348      1.0  0.51534  0.56851  0.78591  1.0000
  F   F349      1.0  0.76614  0.08409  0.26953  1.0000
  F   F350      1.0  0.76834  0.07247  0.77204  1.0000
  F   F351      1.0  0.76379  0.59558  0.26863  1.0000
  F   F352      1.0  0.76485  0.58414  0.77254  1.0000
  F   F353      1.0  0.09778  0.41170  0.45683  1.0000
  F   F354      1.0  0.10379  0.42451  0.96097  1.0000
  F   F355      1.0  0.10459  0.90913  0.46194  1.0000
  F   F356      1.0  0.10564  0.88964  0.96089  1.0000
  F   F357      1.0  0.35820  0.40598  0.46165  1.0000
  F   F358      1.0  0.34806  0.41421  0.95888  1.0000
  F   F359      1.0  0.35072  0.90966  0.45764  1.0000
  F   F360      1.0  0.35430  0.92198  0.95622  1.0000
  F   F361      1.0  0.60442  0.41845  0.46393  1.0000
  F   F362      1.0  0.59737  0.39558  0.94887  1.0000
  F   F363      1.0  0.59772  0.89452  0.46482  1.0000
  F   F364      1.0  0.59650  0.90494  0.96647  1.0000
  F   F365      1.0  0.84923  0.42249  0.46340  1.0000
  F   F366      1.0  0.84570  0.39486  0.96664  1.0000
  F   F367      1.0  0.85206  0.91381  0.45883  1.0000
  F   F368      1.0  0.85139  0.90703  0.96370  1.0000
  F   F369      1.0  0.04410  0.29947  0.28467  1.0000
  F   F370      1.0  0.06341  0.30212  0.78140  1.0000
  F   F371      1.0  0.04856  0.80435  0.29358  1.0000
  F   F372      1.0  0.04507  0.80649  0.77907  1.0000
  F   F373      1.0  0.29437  0.28542  0.29296  1.0000
  F   F374      1.0  0.29713  0.29356  0.78833  1.0000
  F   F375      1.0  0.30170  0.81366  0.27896  1.0000
  F   F376      1.0  0.30256  0.80013  0.77401  1.0000
  F   F377      1.0  0.54403  0.28475  0.29128  1.0000
  F   F378      1.0  0.53723  0.28578  0.78026  1.0000
  F   F379      1.0  0.54550  0.80685  0.27933  1.0000
  F   F380      1.0  0.54264  0.79273  0.79508  1.0000
  F   F381      1.0  0.79109  0.29457  0.30757  1.0000
  F   F382      1.0  0.78982  0.29978  0.79920  1.0000
  F   F383      1.0  0.79336  0.79458  0.28789  1.0000
  F   F384      1.0  0.79409  0.79711  0.78948  1.0000
