data_image0
_chemical_formula_structural       Hf96F384
_chemical_formula_sum              "Hf96 F384"
_cell_length_a       31.0585
_cell_length_b       15.5278
_cell_length_c       15.52
_cell_angle_alpha    63.342
_cell_angle_beta     63.342
_cell_angle_gamma    80.1625

_space_group_name_H-M_alt    "P 1"
_space_group_IT_number       1

loop_
  _space_group_symop_operation_xyz
  'x, y, z'

loop_
  _atom_site_type_symbol
  _atom_site_label
  _atom_site_symmetry_multiplicity
  _atom_site_fract_x
  _atom_site_fract_y
  _atom_site_fract_z
  _atom_site_occupancy
  Hf  Hf1       1.0  0.19381  0.11216  0.36841  1.0000
  Hf  Hf2       1.0  0.19844  0.11504  0.86779  1.0000
  Hf  Hf3       1.0  0.19731  0.61318  0.36764  1.0000
  Hf  Hf4       1.0  0.19673  0.60387  0.88816  1.0000
  Hf  Hf5       1.0  0.44904  0.11164  0.36500  1.0000
  Hf  Hf6       1.0  0.44463  0.10789  0.87834  1.0000
  Hf  Hf7       1.0  0.44340  0.60670  0.37839  1.0000
  Hf  Hf8       1.0  0.44559  0.60835  0.88038  1.0000
  Hf  Hf9       1.0  0.69702  0.10745  0.37123  1.0000
  Hf  Hf10      1.0  0.69966  0.10530  0.87457  1.0000
  Hf  Hf11      1.0  0.69642  0.60250  0.37791  1.0000
  Hf  Hf12      1.0  0.69858  0.60030  0.88273  1.0000
  Hf  Hf13      1.0  0.94419  0.10245  0.37440  1.0000
  Hf  Hf14      1.0  0.95037  0.10437  0.86597  1.0000
  Hf  Hf15      1.0  0.94615  0.60777  0.38098  1.0000
  Hf  Hf16      1.0  0.94737  0.60635  0.86149  1.0000
  Hf  Hf17      1.0  0.05238  0.40049  0.12303  1.0000
  Hf  Hf18      1.0  0.05083  0.39389  0.61908  1.0000
  Hf  Hf19      1.0  0.05559  0.89525  0.12491  1.0000
  Hf  Hf20      1.0  0.05143  0.89482  0.62647  1.0000
  Hf  Hf21      1.0  0.30318  0.39331  0.12695  1.0000
  Hf  Hf22      1.0  0.30514  0.39336  0.63140  1.0000
  Hf  Hf23      1.0  0.30342  0.89160  0.12481  1.0000
  Hf  Hf24      1.0  0.29949  0.89407  0.63557  1.0000
  Hf  Hf25      1.0  0.55346  0.39328  0.12049  1.0000
  Hf  Hf26      1.0  0.54773  0.38899  0.63922  1.0000
  Hf  Hf27      1.0  0.55659  0.89042  0.12931  1.0000
  Hf  Hf28      1.0  0.55641  0.89627  0.61298  1.0000
  Hf  Hf29      1.0  0.80326  0.38699  0.13072  1.0000
  Hf  Hf30      1.0  0.80442  0.38688  0.62507  1.0000
  Hf  Hf31      1.0  0.80830  0.89460  0.11825  1.0000
  Hf  Hf32      1.0  0.80728  0.88682  0.62305  1.0000
  Hf  Hf33      1.0  0.05331  0.18176  0.41690  1.0000
  Hf  Hf34      1.0  0.05590  0.17585  0.91686  1.0000
  Hf  Hf35      1.0  0.05503  0.68570  0.41448  1.0000
  Hf  Hf36      1.0  0.05444  0.68363  0.91029  1.0000
  Hf  Hf37      1.0  0.30704  0.17277  0.42016  1.0000
  Hf  Hf38      1.0  0.30542  0.18108  0.91679  1.0000
  Hf  Hf39      1.0  0.30099  0.67730  0.42657  1.0000
  Hf  Hf40      1.0  0.30637  0.68639  0.92100  1.0000
  Hf  Hf41      1.0  0.55764  0.18687  0.41144  1.0000
  Hf  Hf42      1.0  0.55098  0.18269  0.92414  1.0000
  Hf  Hf43      1.0  0.55858  0.67711  0.41615  1.0000
  Hf  Hf44      1.0  0.55725  0.67432  0.92275  1.0000
  Hf  Hf45      1.0  0.80288  0.18208  0.42263  1.0000
  Hf  Hf46      1.0  0.80758  0.17472  0.91592  1.0000
  Hf  Hf47      1.0  0.80746  0.67765  0.41401  1.0000
  Hf  Hf48      1.0  0.80546  0.67477  0.92245  1.0000
  Hf  Hf49      1.0  0.15911  0.40051  0.32373  1.0000
  Hf  Hf50      1.0  0.15889  0.39173  0.83534  1.0000
  Hf  Hf51      1.0  0.15611  0.89198  0.32591  1.0000
  Hf  Hf52      1.0  0.15789  0.89836  0.82648  1.0000
  Hf  Hf53      1.0  0.40744  0.38776  0.33399  1.0000
  Hf  Hf54      1.0  0.40972  0.39373  0.83596  1.0000
  Hf  Hf55      1.0  0.41027  0.89262  0.32793  1.0000
  Hf  Hf56      1.0  0.40857  0.89231  0.83130  1.0000
  Hf  Hf57      1.0  0.65474  0.38450  0.33818  1.0000
  Hf  Hf58      1.0  0.66045  0.38821  0.82682  1.0000
  Hf  Hf59      1.0  0.66383  0.87884  0.33422  1.0000
  Hf  Hf60      1.0  0.65894  0.89067  0.83087  1.0000
  Hf  Hf61      1.0  0.90884  0.39212  0.33692  1.0000
  Hf  Hf62      1.0  0.91057  0.37809  0.83812  1.0000
  Hf  Hf63      1.0  0.90482  0.88751  0.33478  1.0000
  Hf  Hf64      1.0  0.90695  0.87803  0.84296  1.0000
  Hf  Hf65      1.0  0.19347  0.31408  0.08923  1.0000
  Hf  Hf66      1.0  0.19783  0.32157  0.57637  1.0000
  Hf  Hf67      1.0  0.19472  0.81675  0.08253  1.0000
  Hf  Hf68      1.0  0.19036  0.82952  0.57990  1.0000
  Hf  Hf69      1.0  0.44044  0.32085  0.08188  1.0000
  Hf  Hf70      1.0  0.44188  0.31805  0.58762  1.0000
  Hf  Hf71      1.0  0.44483  0.81538  0.08623  1.0000
  Hf  Hf72      1.0  0.44343  0.81647  0.57853  1.0000
  Hf  Hf73      1.0  0.69703  0.31662  0.08180  1.0000
  Hf  Hf74      1.0  0.69121  0.30816  0.58982  1.0000
  Hf  Hf75      1.0  0.69574  0.82124  0.08012  1.0000
  Hf  Hf76      1.0  0.69904  0.81828  0.58048  1.0000
  Hf  Hf77      1.0  0.94486  0.31508  0.08884  1.0000
  Hf  Hf78      1.0  0.94382  0.31234  0.58439  1.0000
  Hf  Hf79      1.0  0.94463  0.81117  0.08586  1.0000
  Hf  Hf80      1.0  0.94444  0.82051  0.57771  1.0000
  Hf  Hf81      1.0  0.08892  0.11728  0.16712  1.0000
  Hf  Hf82      1.0  0.09362  0.11834  0.66258  1.0000
  Hf  Hf83      1.0  0.09119  0.61944  0.16101  1.0000
  Hf  Hf84      1.0  0.09049  0.61546  0.66102  1.0000
  Hf  Hf85      1.0  0.34003  0.11342  0.16044  1.0000
  Hf  Hf86      1.0  0.34395  0.11524  0.66246  1.0000
  Hf  Hf87      1.0  0.34182  0.61852  0.16304  1.0000
  Hf  Hf88      1.0  0.34175  0.61981  0.65981  1.0000
  Hf  Hf89      1.0  0.59757  0.11452  0.16887  1.0000
  Hf  Hf90      1.0  0.58772  0.10356  0.67580  1.0000
  Hf  Hf91      1.0  0.58847  0.60583  0.17341  1.0000
  Hf  Hf92      1.0  0.58895  0.60950  0.67101  1.0000
  Hf  Hf93      1.0  0.83956  0.11203  0.16654  1.0000
  Hf  Hf94      1.0  0.84589  0.11428  0.66396  1.0000
  Hf  Hf95      1.0  0.84071  0.60892  0.16149  1.0000
  Hf  Hf96      1.0  0.84310  0.60931  0.66853  1.0000
  F   F1        1.0  0.07159  0.12159  0.31111  1.0000
  F   F2        1.0  0.08555  0.14636  0.79038  1.0000
  F   F3        1.0  0.08279  0.62278  0.30274  1.0000
  F   F4        1.0  0.08252  0.63079  0.79388  1.0000
  F   F5        1.0  0.32886  0.13631  0.29062  1.0000
  F   F6        1.0  0.32745  0.14079  0.80010  1.0000
  F   F7        1.0  0.33313  0.64838  0.29149  1.0000
  F   F8        1.0  0.33583  0.63904  0.79812  1.0000
  F   F9        1.0  0.58856  0.14075  0.29378  1.0000
  F   F10       1.0  0.58006  0.14863  0.80041  1.0000
  F   F11       1.0  0.58432  0.64233  0.29931  1.0000
  F   F12       1.0  0.57493  0.61389  0.81252  1.0000
  F   F13       1.0  0.83256  0.13308  0.30238  1.0000
  F   F14       1.0  0.81857  0.12020  0.81188  1.0000
  F   F15       1.0  0.82930  0.61969  0.31092  1.0000
  F   F16       1.0  0.83178  0.61378  0.81217  1.0000
  F   F17       1.0  0.19636  0.35294  0.42671  1.0000
  F   F18       1.0  0.17869  0.33361  0.96073  1.0000
  F   F19       1.0  0.17471  0.84155  0.45660  1.0000
  F   F20       1.0  0.18629  0.84824  0.93564  1.0000
  F   F21       1.0  0.43042  0.34334  0.44721  1.0000
  F   F22       1.0  0.44484  0.35131  0.93484  1.0000
  F   F23       1.0  0.44560  0.85301  0.43700  1.0000
  F   F24       1.0  0.43317  0.85060  0.94663  1.0000
  F   F25       1.0  0.68368  0.34273  0.44791  1.0000
  F   F26       1.0  0.68609  0.34336  0.94358  1.0000
  F   F27       1.0  0.69172  0.83769  0.44347  1.0000
  F   F28       1.0  0.68550  0.83187  0.94465  1.0000
  F   F29       1.0  0.93642  0.32822  0.44975  1.0000
  F   F30       1.0  0.93360  0.33061  0.95344  1.0000
  F   F31       1.0  0.92697  0.83669  0.46042  1.0000
  F   F32       1.0  0.93378  0.82497  0.94684  1.0000
  F   F33       1.0  0.17259  0.37480  0.19319  1.0000
  F   F34       1.0  0.17496  0.38300  0.68700  1.0000
  F   F35       1.0  0.16493  0.86647  0.20197  1.0000
  F   F36       1.0  0.17122  0.90700  0.67859  1.0000
  F   F37       1.0  0.42144  0.37376  0.19198  1.0000
  F   F38       1.0  0.41874  0.38106  0.69263  1.0000
  F   F39       1.0  0.42471  0.87912  0.19030  1.0000
  F   F40       1.0  0.42214  0.86024  0.70313  1.0000
  F   F41       1.0  0.66740  0.36319  0.20967  1.0000
  F   F42       1.0  0.67046  0.38207  0.68806  1.0000
  F   F43       1.0  0.67529  0.88130  0.18641  1.0000
  F   F44       1.0  0.67355  0.87930  0.69637  1.0000
  F   F45       1.0  0.91707  0.36425  0.20053  1.0000
  F   F46       1.0  0.92510  0.36932  0.69459  1.0000
  F   F47       1.0  0.92027  0.89261  0.18952  1.0000
  F   F48       1.0  0.92394  0.87079  0.69186  1.0000
  F   F49       1.0  0.05711  0.15306  0.06896  1.0000
  F   F50       1.0  0.06830  0.17150  0.54112  1.0000
  F   F51       1.0  0.06513  0.67207  0.05055  1.0000
  F   F52       1.0  0.06335  0.65980  0.54934  1.0000
  F   F53       1.0  0.31409  0.16433  0.04814  1.0000
  F   F54       1.0  0.31448  0.16594  0.55019  1.0000
  F   F55       1.0  0.30971  0.65877  0.06218  1.0000
  F   F56       1.0  0.31222  0.65897  0.55230  1.0000
  F   F57       1.0  0.57001  0.16878  0.04826  1.0000
  F   F58       1.0  0.55914  0.15653  0.55641  1.0000
  F   F59       1.0  0.56262  0.65768  0.05672  1.0000
  F   F60       1.0  0.56499  0.66896  0.55944  1.0000
  F   F61       1.0  0.81039  0.14833  0.05127  1.0000
  F   F62       1.0  0.81610  0.15219  0.54788  1.0000
  F   F63       1.0  0.81449  0.65040  0.05059  1.0000
  F   F64       1.0  0.80850  0.63815  0.57078  1.0000
  F   F65       1.0  0.20646  0.19462  0.20934  1.0000
  F   F66       1.0  0.20109  0.19943  0.70739  1.0000
  F   F67       1.0  0.20502  0.70250  0.19714  1.0000
  F   F68       1.0  0.19293  0.71416  0.70174  1.0000
  F   F69       1.0  0.44452  0.19775  0.21568  1.0000
  F   F70       1.0  0.45708  0.21042  0.70242  1.0000
  F   F71       1.0  0.45538  0.70523  0.22312  1.0000
  F   F72       1.0  0.45452  0.68833  0.72202  1.0000
  F   F73       1.0  0.70382  0.19902  0.22515  1.0000
  F   F74       1.0  0.69529  0.18950  0.71000  1.0000
  F   F75       1.0  0.68790  0.70014  0.21029  1.0000
  F   F76       1.0  0.71630  0.70397  0.67765  1.0000
  F   F77       1.0  0.95606  0.19489  0.22470  1.0000
  F   F78       1.0  0.96901  0.20352  0.70414  1.0000
  F   F79       1.0  0.94824  0.70487  0.22392  1.0000
  F   F80       1.0  0.95496  0.69858  0.70748  1.0000
  F   F81       1.0  0.15021  0.11123  0.03375  1.0000
  F   F82       1.0  0.14756  0.09017  0.53598  1.0000
  F   F83       1.0  0.14903  0.57664  0.04047  1.0000
  F   F84       1.0  0.15525  0.58709  0.51212  1.0000
  F   F85       1.0  0.40102  0.08964  0.03810  1.0000
  F   F86       1.0  0.40108  0.10233  0.54103  1.0000
  F   F87       1.0  0.39958  0.58200  0.05726  1.0000
  F   F88       1.0  0.40014  0.60621  0.53548  1.0000
  F   F89       1.0  0.65394  0.08816  0.03889  1.0000
  F   F90       1.0  0.64546  0.08264  0.53594  1.0000
  F   F91       1.0  0.64563  0.56941  0.03234  1.0000
  F   F92       1.0  0.64487  0.59822  0.53902  1.0000
  F   F93       1.0  0.89422  0.09996  0.04151  1.0000
  F   F94       1.0  0.89924  0.10753  0.52981  1.0000
  F   F95       1.0  0.89464  0.61331  0.03107  1.0000
  F   F96       1.0  0.90221  0.56843  0.54555  1.0000
  F   F97       1.0  0.14870  0.20508  0.13285  1.0000
  F   F98       1.0  0.15599  0.19833  0.60322  1.0000
  F   F99       1.0  0.15158  0.70727  0.10697  1.0000
  F   F100      1.0  0.15124  0.69148  0.60513  1.0000
  F   F101      1.0  0.40322  0.19839  0.11988  1.0000
  F   F102      1.0  0.40058  0.20595  0.62520  1.0000
  F   F103      1.0  0.40911  0.69003  0.12671  1.0000
  F   F104      1.0  0.40169  0.70546  0.61098  1.0000
  F   F105      1.0  0.65838  0.19233  0.11517  1.0000
  F   F106      1.0  0.64231  0.19462  0.60939  1.0000
  F   F107      1.0  0.64688  0.67463  0.11910  1.0000
  F   F108      1.0  0.64377  0.70266  0.62653  1.0000
  F   F109      1.0  0.89812  0.20029  0.13493  1.0000
  F   F110      1.0  0.90482  0.18651  0.64073  1.0000
  F   F111      1.0  0.90911  0.68938  0.12870  1.0000
  F   F112      1.0  0.90631  0.68303  0.62564  1.0000
  F   F113      1.0  0.09493  0.32021  0.36638  1.0000
  F   F114      1.0  0.09879  0.31350  0.87785  1.0000
  F   F115      1.0  0.09947  0.79871  0.40507  1.0000
  F   F116      1.0  0.10503  0.80243  0.88037  1.0000
  F   F117      1.0  0.34604  0.30038  0.37412  1.0000
  F   F118      1.0  0.34982  0.29798  0.86332  1.0000
  F   F119      1.0  0.33935  0.80220  0.38550  1.0000
  F   F120      1.0  0.34746  0.80584  0.87549  1.0000
  F   F121      1.0  0.59448  0.30432  0.38381  1.0000
  F   F122      1.0  0.60526  0.29807  0.86833  1.0000
  F   F123      1.0  0.60825  0.79980  0.35681  1.0000
  F   F124      1.0  0.61027  0.79558  0.89655  1.0000
  F   F125      1.0  0.84126  0.30931  0.38318  1.0000
  F   F126      1.0  0.84768  0.30181  0.87017  1.0000
  F   F127      1.0  0.84149  0.81055  0.39234  1.0000
  F   F128      1.0  0.84778  0.78406  0.89482  1.0000
  F   F129      1.0  0.05874  0.26279  0.14067  1.0000
  F   F130      1.0  0.06002  0.25304  0.64161  1.0000
  F   F131      1.0  0.06360  0.75314  0.16120  1.0000
  F   F132      1.0  0.05845  0.76511  0.64140  1.0000
  F   F133      1.0  0.32007  0.25184  0.13321  1.0000
  F   F134      1.0  0.31926  0.24979  0.64605  1.0000
  F   F135      1.0  0.31677  0.75236  0.13274  1.0000
  F   F136      1.0  0.30847  0.74923  0.66073  1.0000
  F   F137      1.0  0.56981  0.24748  0.14875  1.0000
  F   F138      1.0  0.55448  0.23917  0.66117  1.0000
  F   F139      1.0  0.56410  0.76148  0.13834  1.0000
  F   F140      1.0  0.55773  0.76154  0.66053  1.0000
  F   F141      1.0  0.81659  0.24583  0.13557  1.0000
  F   F142      1.0  0.81844  0.25131  0.63295  1.0000
  F   F143      1.0  0.82577  0.75425  0.11848  1.0000
  F   F144      1.0  0.81558  0.74310  0.65002  1.0000
  F   F145      1.0  0.12413  0.36258  0.12209  1.0000
  F   F146      1.0  0.12253  0.37051  0.59429  1.0000
  F   F147      1.0  0.12367  0.87368  0.11355  1.0000
  F   F148      1.0  0.11843  0.84925  0.63212  1.0000
  F   F149      1.0  0.37674  0.39060  0.08369  1.0000
  F   F150      1.0  0.37398  0.38550  0.60034  1.0000
  F   F151      1.0  0.37559  0.86409  0.11712  1.0000
  F   F152      1.0  0.37382  0.87392  0.60986  1.0000
  F   F153      1.0  0.62357  0.37441  0.10508  1.0000
  F   F154      1.0  0.62060  0.34203  0.63226  1.0000
  F   F155      1.0  0.62404  0.85946  0.12557  1.0000
  F   F156      1.0  0.62756  0.88765  0.58641  1.0000
  F   F157      1.0  0.87201  0.37411  0.11376  1.0000
  F   F158      1.0  0.87782  0.36448  0.61019  1.0000
  F   F159      1.0  0.87920  0.86086  0.10155  1.0000
  F   F160      1.0  0.87117  0.84805  0.63471  1.0000
  F   F161      1.0  0.18825  0.24812  0.35235  1.0000
  F   F162      1.0  0.18738  0.25289  0.85030  1.0000
  F   F163      1.0  0.18593  0.75592  0.36415  1.0000
  F   F164      1.0  0.19371  0.75000  0.83473  1.0000
  F   F165      1.0  0.43388  0.25299  0.34997  1.0000
  F   F166      1.0  0.43423  0.24454  0.86231  1.0000
  F   F167      1.0  0.43137  0.74615  0.37703  1.0000
  F   F168      1.0  0.43685  0.75856  0.85611  1.0000
  F   F169      1.0  0.68086  0.23989  0.37892  1.0000
  F   F170      1.0  0.69415  0.24941  0.83941  1.0000
  F   F171      1.0  0.69247  0.74502  0.34130  1.0000
  F   F172      1.0  0.69333  0.73620  0.83334  1.0000
  F   F173      1.0  0.93370  0.26407  0.35006  1.0000
  F   F174      1.0  0.93395  0.23542  0.85630  1.0000
  F   F175      1.0  0.93399  0.74975  0.36524  1.0000
  F   F176      1.0  0.94583  0.75600  0.84111  1.0000
  F   F177      1.0  0.12286  0.15336  0.37722  1.0000
  F   F178      1.0  0.12368  0.12812  0.91097  1.0000
  F   F179      1.0  0.12640  0.66327  0.37134  1.0000
  F   F180      1.0  0.12676  0.64297  0.89300  1.0000
  F   F181      1.0  0.37241  0.11365  0.40243  1.0000
  F   F182      1.0  0.37802  0.13134  0.88495  1.0000
  F   F183      1.0  0.37225  0.62364  0.39851  1.0000
  F   F184      1.0  0.37321  0.62972  0.90724  1.0000
  F   F185      1.0  0.62829  0.13028  0.38882  1.0000
  F   F186      1.0  0.63157  0.10595  0.90270  1.0000
  F   F187      1.0  0.62570  0.60937  0.41082  1.0000
  F   F188      1.0  0.62638  0.65459  0.86894  1.0000
  F   F189      1.0  0.87798  0.13316  0.38893  1.0000
  F   F190      1.0  0.87735  0.12968  0.87212  1.0000
  F   F191      1.0  0.87545  0.61667  0.40483  1.0000
  F   F192      1.0  0.87220  0.60217  0.91117  1.0000
  F   F193      1.0  0.00417  0.36627  0.06806  1.0000
  F   F194      1.0  0.01081  0.37169  0.55551  1.0000
  F   F195      1.0  0.00895  0.86322  0.06597  1.0000
  F   F196      1.0  0.00430  0.87621  0.56410  1.0000
  F   F197      1.0  0.25553  0.35439  0.09443  1.0000
  F   F198      1.0  0.25772  0.37204  0.59530  1.0000
  F   F199      1.0  0.25490  0.85320  0.09673  1.0000
  F   F200      1.0  0.25745  0.87134  0.57763  1.0000
  F   F201      1.0  0.50849  0.35438  0.07916  1.0000
  F   F202      1.0  0.50288  0.37135  0.57675  1.0000
  F   F203      1.0  0.50821  0.86482  0.06791  1.0000
  F   F204      1.0  0.50390  0.87979  0.56032  1.0000
  F   F205      1.0  0.75833  0.35571  0.07963  1.0000
  F   F206      1.0  0.75208  0.34001  0.60153  1.0000
  F   F207      1.0  0.75730  0.83879  0.09341  1.0000
  F   F208      1.0  0.76074  0.86080  0.57791  1.0000
  F   F209      1.0  0.06573  0.49061  0.18211  1.0000
  F   F210      1.0  0.07530  0.48177  0.66791  1.0000
  F   F211      1.0  0.07122  0.98929  0.16951  1.0000
  F   F212      1.0  0.07610  0.00189  0.65314  1.0000
  F   F213      1.0  0.31716  0.49344  0.16700  1.0000
  F   F214      1.0  0.31110  0.49718  0.67451  1.0000
  F   F215      1.0  0.31854  0.98742  0.16664  1.0000
  F   F216      1.0  0.32420  0.98565  0.67329  1.0000
  F   F217      1.0  0.56969  0.48484  0.16966  1.0000
  F   F218      1.0  0.57267  0.47178  0.67056  1.0000
  F   F219      1.0  0.57431  0.99052  0.17945  1.0000
  F   F220      1.0  0.56834  0.98397  0.67141  1.0000
  F   F221      1.0  0.81417  0.48403  0.18895  1.0000
  F   F222      1.0  0.81603  0.46828  0.69695  1.0000
  F   F223      1.0  0.81680  0.96464  0.19400  1.0000
  F   F224      1.0  0.82134  0.98360  0.66689  1.0000
  F   F225      1.0  0.24341  0.13838  0.42692  1.0000
  F   F226      1.0  0.24041  0.15903  0.92124  1.0000
  F   F227      1.0  0.24241  0.62995  0.42578  1.0000
  F   F228      1.0  0.24023  0.65797  0.92196  1.0000
  F   F229      1.0  0.49403  0.14773  0.41340  1.0000
  F   F230      1.0  0.48893  0.12690  0.93723  1.0000
  F   F231      1.0  0.49493  0.63018  0.42781  1.0000
  F   F232      1.0  0.48907  0.65038  0.92323  1.0000
  F   F233      1.0  0.74123  0.13955  0.42414  1.0000
  F   F234      1.0  0.73993  0.12903  0.93648  1.0000
  F   F235      1.0  0.74320  0.63071  0.43431  1.0000
  F   F236      1.0  0.73822  0.61860  0.96143  1.0000
  F   F237      1.0  0.98836  0.13749  0.42943  1.0000
  F   F238      1.0  0.98925  0.13448  0.92894  1.0000
  F   F239      1.0  0.99320  0.63953  0.43602  1.0000
  F   F240      1.0  0.99301  0.63444  0.91150  1.0000
  F   F241      1.0  0.17806  0.01927  0.32411  1.0000
  F   F242      1.0  0.17719  0.02646  0.81724  1.0000
  F   F243      1.0  0.18320  0.52099  0.32115  1.0000
  F   F244      1.0  0.18012  0.52601  0.83041  1.0000
  F   F245      1.0  0.43520  0.02075  0.30736  1.0000
  F   F246      1.0  0.43568  0.02311  0.81321  1.0000
  F   F247      1.0  0.42719  0.51615  0.31748  1.0000
  F   F248      1.0  0.42706  0.50715  0.84106  1.0000
  F   F249      1.0  0.68182  0.02006  0.31757  1.0000
  F   F250      1.0  0.68749  0.00212  0.82473  1.0000
  F   F251      1.0  0.68162  0.50884  0.32719  1.0000
  F   F252      1.0  0.67395  0.52084  0.83787  1.0000
  F   F253      1.0  0.92528  0.01078  0.33531  1.0000
  F   F254      1.0  0.92953  0.01117  0.81306  1.0000
  F   F255      1.0  0.93359  0.52309  0.31949  1.0000
  F   F256      1.0  0.93716  0.51374  0.80609  1.0000
  F   F257      1.0  0.99759  0.23545  0.00485  1.0000
  F   F258      1.0  0.00085  0.24165  0.50583  1.0000
  F   F259      1.0  0.00141  0.74292  0.00140  1.0000
  F   F260      1.0  0.00313  0.75745  0.48970  1.0000
  F   F261      1.0  0.25216  0.24602  0.00812  1.0000
  F   F262      1.0  0.25064  0.25006  0.50264  1.0000
  F   F263      1.0  0.25104  0.75705  0.00165  1.0000
  F   F264      1.0  0.24736  0.74284  0.50285  1.0000
  F   F265      1.0  0.49931  0.25832  0.99838  1.0000
  F   F266      1.0  0.49454  0.24696  0.50086  1.0000
  F   F267      1.0  0.50230  0.76791  0.99020  1.0000
  F   F268      1.0  0.50406  0.75375  0.48981  1.0000
  F   F269      1.0  0.74686  0.25186  0.00875  1.0000
  F   F270      1.0  0.74643  0.24589  0.50573  1.0000
  F   F271      1.0  0.75451  0.75429  0.00390  1.0000
  F   F272      1.0  0.75297  0.75821  0.49324  1.0000
  F   F273      1.0  0.12462  0.00982  0.24557  1.0000
  F   F274      1.0  0.11493  0.00320  0.76847  1.0000
  F   F275      1.0  0.13194  0.50917  0.22652  1.0000
  F   F276      1.0  0.12762  0.50827  0.74143  1.0000
  F   F277      1.0  0.37464  0.00602  0.25033  1.0000
  F   F278      1.0  0.37019  0.00387  0.77130  1.0000
  F   F279      1.0  0.36896  0.49101  0.26062  1.0000
  F   F280      1.0  0.36747  0.50032  0.76463  1.0000
  F   F281      1.0  0.62704  0.00365  0.25261  1.0000
  F   F282      1.0  0.61836  0.99241  0.76618  1.0000
  F   F283      1.0  0.61399  0.49646  0.26995  1.0000
  F   F284      1.0  0.62762  0.49842  0.74133  1.0000
  F   F285      1.0  0.86923  0.00302  0.26261  1.0000
  F   F286      1.0  0.87287  0.98895  0.74916  1.0000
  F   F287      1.0  0.87736  0.49893  0.24941  1.0000
  F   F288      1.0  0.87508  0.49659  0.75699  1.0000
  F   F289      1.0  0.03884  0.02777  0.02098  1.0000
  F   F290      1.0  0.03557  0.04921  0.53782  1.0000
  F   F291      1.0  0.04346  0.54545  0.01710  1.0000
  F   F292      1.0  0.03832  0.53220  0.52792  1.0000
  F   F293      1.0  0.28917  0.03398  0.02032  1.0000
  F   F294      1.0  0.29344  0.02449  0.51231  1.0000
  F   F295      1.0  0.28853  0.53209  0.01754  1.0000
  F   F296      1.0  0.29799  0.52874  0.52240  1.0000
  F   F297      1.0  0.54776  0.03105  0.02223  1.0000
  F   F298      1.0  0.54250  0.03519  0.51901  1.0000
  F   F299      1.0  0.54114  0.52637  0.01526  1.0000
  F   F300      1.0  0.53910  0.53385  0.53803  1.0000
  F   F301      1.0  0.79024  0.02796  0.03421  1.0000
  F   F302      1.0  0.79132  0.02589  0.52609  1.0000
  F   F303      1.0  0.79327  0.51363  0.02224  1.0000
  F   F304      1.0  0.78863  0.51329  0.53313  1.0000
  F   F305      1.0  0.23344  0.43328  0.22282  1.0000
  F   F306      1.0  0.23256  0.42257  0.73974  1.0000
  F   F307      1.0  0.22964  0.91824  0.22565  1.0000
  F   F308      1.0  0.23763  0.93750  0.71794  1.0000
  F   F309      1.0  0.48498  0.41143  0.22156  1.0000
  F   F310      1.0  0.48484  0.42412  0.73166  1.0000
  F   F311      1.0  0.48837  0.91740  0.21894  1.0000
  F   F312      1.0  0.49080  0.89580  0.74128  1.0000
  F   F313      1.0  0.73327  0.39664  0.23107  1.0000
  F   F314      1.0  0.73739  0.41458  0.73502  1.0000
  F   F315      1.0  0.73515  0.90981  0.22081  1.0000
  F   F316      1.0  0.73818  0.90212  0.73333  1.0000
  F   F317      1.0  0.98507  0.42431  0.21964  1.0000
  F   F318      1.0  0.98206  0.39318  0.73975  1.0000
  F   F319      1.0  0.98642  0.91039  0.23565  1.0000
  F   F320      1.0  0.98589  0.93052  0.72072  1.0000
  F   F321      1.0  0.21057  0.46077  0.47980  1.0000
  F   F322      1.0  0.21556  0.45647  0.98390  1.0000
  F   F323      1.0  0.20210  0.97148  0.47817  1.0000
  F   F324      1.0  0.20495  0.97884  0.97926  1.0000
  F   F325      1.0  0.44935  0.46546  0.47491  1.0000
  F   F326      1.0  0.45884  0.47250  0.97781  1.0000
  F   F327      1.0  0.44830  0.97691  0.47797  1.0000
  F   F328      1.0  0.46322  0.96493  0.97441  1.0000
  F   F329      1.0  0.70170  0.47188  0.48610  1.0000
  F   F330      1.0  0.71874  0.46506  0.96338  1.0000
  F   F331      1.0  0.71884  0.96245  0.45162  1.0000
  F   F332      1.0  0.71036  0.95799  0.97444  1.0000
  F   F333      1.0  0.96067  0.46101  0.46536  1.0000
  F   F334      1.0  0.95231  0.47263  0.96126  1.0000
  F   F335      1.0  0.95816  0.97628  0.46497  1.0000
  F   F336      1.0  0.94895  0.97594  0.97670  1.0000
  F   F337      1.0  0.01708  0.07275  0.26714  1.0000
  F   F338      1.0  0.01677  0.08731  0.77950  1.0000
  F   F339      1.0  0.01259  0.58835  0.27924  1.0000
  F   F340      1.0  0.01594  0.57777  0.76792  1.0000
  F   F341      1.0  0.26556  0.08599  0.27628  1.0000
  F   F342      1.0  0.26875  0.09316  0.77163  1.0000
  F   F343      1.0  0.26658  0.58453  0.26841  1.0000
  F   F344      1.0  0.26451  0.59331  0.78018  1.0000
  F   F345      1.0  0.51606  0.09071  0.27023  1.0000
  F   F346      1.0  0.51573  0.07950  0.77732  1.0000
  F   F347      1.0  0.51089  0.58058  0.28765  1.0000
  F   F348      1.0  0.51698  0.57389  0.77441  1.0000
  F   F349      1.0  0.76999  0.08518  0.26297  1.0000
  F   F350      1.0  0.76707  0.09405  0.76300  1.0000
  F   F351      1.0  0.76295  0.59810  0.26417  1.0000
  F   F352      1.0  0.76285  0.58657  0.77047  1.0000
  F   F353      1.0  0.09984  0.41451  0.44356  1.0000
  F   F354      1.0  0.09994  0.42516  0.96707  1.0000
  F   F355      1.0  0.09650  0.94407  0.47102  1.0000
  F   F356      1.0  0.09721  0.90563  0.97197  1.0000
  F   F357      1.0  0.34441  0.38241  0.47184  1.0000
  F   F358      1.0  0.35171  0.40395  0.95994  1.0000
  F   F359      1.0  0.35742  0.89730  0.45889  1.0000
  F   F360      1.0  0.35184  0.91534  0.96257  1.0000
  F   F361      1.0  0.60090  0.40439  0.47098  1.0000
  F   F362      1.0  0.59726  0.40577  0.95570  1.0000
  F   F363      1.0  0.60074  0.89590  0.45578  1.0000
  F   F364      1.0  0.60606  0.91647  0.96290  1.0000
  F   F365      1.0  0.85226  0.40243  0.47101  1.0000
  F   F366      1.0  0.85343  0.39656  0.96658  1.0000
  F   F367      1.0  0.85527  0.91467  0.46408  1.0000
  F   F368      1.0  0.84472  0.91345  0.96176  1.0000
  F   F369      1.0  0.04568  0.28839  0.28404  1.0000
  F   F370      1.0  0.04999  0.29915  0.78503  1.0000
  F   F371      1.0  0.04828  0.81035  0.29593  1.0000
  F   F372      1.0  0.04491  0.79551  0.79940  1.0000
  F   F373      1.0  0.30156  0.30638  0.27654  1.0000
  F   F374      1.0  0.28913  0.30553  0.79418  1.0000
  F   F375      1.0  0.29124  0.80558  0.28984  1.0000
  F   F376      1.0  0.29753  0.80542  0.79767  1.0000
  F   F377      1.0  0.55061  0.30523  0.28939  1.0000
  F   F378      1.0  0.53769  0.29778  0.79722  1.0000
  F   F379      1.0  0.54331  0.78848  0.29626  1.0000
  F   F380      1.0  0.56776  0.80081  0.79787  1.0000
  F   F381      1.0  0.79253  0.28566  0.28805  1.0000
  F   F382      1.0  0.79340  0.28728  0.79517  1.0000
  F   F383      1.0  0.79871  0.78529  0.28356  1.0000
  F   F384      1.0  0.80183  0.79097  0.79353  1.0000
