data_image0
_chemical_formula_structural       Hf96F384
_chemical_formula_sum              "Hf96 F384"
_cell_length_a       31.0242
_cell_length_b       15.5114
_cell_length_c       15.504
_cell_angle_alpha    63.342
_cell_angle_beta     63.342
_cell_angle_gamma    80.1625

_space_group_name_H-M_alt    "P 1"
_space_group_IT_number       1

loop_
  _space_group_symop_operation_xyz
  'x, y, z'

loop_
  _atom_site_type_symbol
  _atom_site_label
  _atom_site_symmetry_multiplicity
  _atom_site_fract_x
  _atom_site_fract_y
  _atom_site_fract_z
  _atom_site_occupancy
  Hf  Hf1       1.0  0.19948  0.11214  0.37319  1.0000
  Hf  Hf2       1.0  0.19552  0.10922  0.87731  1.0000
  Hf  Hf3       1.0  0.19525  0.61974  0.37150  1.0000
  Hf  Hf4       1.0  0.19605  0.61015  0.87459  1.0000
  Hf  Hf5       1.0  0.44730  0.11223  0.37083  1.0000
  Hf  Hf6       1.0  0.44759  0.10084  0.88608  1.0000
  Hf  Hf7       1.0  0.44711  0.60999  0.37197  1.0000
  Hf  Hf8       1.0  0.44561  0.60929  0.87811  1.0000
  Hf  Hf9       1.0  0.69886  0.09974  0.37380  1.0000
  Hf  Hf10      1.0  0.69587  0.10799  0.86595  1.0000
  Hf  Hf11      1.0  0.69343  0.60483  0.37177  1.0000
  Hf  Hf12      1.0  0.69767  0.60090  0.87874  1.0000
  Hf  Hf13      1.0  0.94755  0.10707  0.38207  1.0000
  Hf  Hf14      1.0  0.94520  0.10681  0.87728  1.0000
  Hf  Hf15      1.0  0.95104  0.60969  0.36685  1.0000
  Hf  Hf16      1.0  0.94857  0.60373  0.87558  1.0000
  Hf  Hf17      1.0  0.05508  0.39579  0.12281  1.0000
  Hf  Hf18      1.0  0.05578  0.39741  0.62441  1.0000
  Hf  Hf19      1.0  0.05350  0.89627  0.12261  1.0000
  Hf  Hf20      1.0  0.04937  0.89022  0.63305  1.0000
  Hf  Hf21      1.0  0.30408  0.39776  0.12145  1.0000
  Hf  Hf22      1.0  0.30530  0.39828  0.61840  1.0000
  Hf  Hf23      1.0  0.29922  0.88630  0.13119  1.0000
  Hf  Hf24      1.0  0.30396  0.89518  0.62010  1.0000
  Hf  Hf25      1.0  0.55512  0.38856  0.12377  1.0000
  Hf  Hf26      1.0  0.55150  0.38488  0.62452  1.0000
  Hf  Hf27      1.0  0.55442  0.88116  0.12804  1.0000
  Hf  Hf28      1.0  0.55387  0.88453  0.62825  1.0000
  Hf  Hf29      1.0  0.80732  0.39330  0.12244  1.0000
  Hf  Hf30      1.0  0.80403  0.39167  0.62241  1.0000
  Hf  Hf31      1.0  0.80242  0.89451  0.12486  1.0000
  Hf  Hf32      1.0  0.80513  0.88809  0.62230  1.0000
  Hf  Hf33      1.0  0.05656  0.18829  0.42028  1.0000
  Hf  Hf34      1.0  0.05489  0.18569  0.91660  1.0000
  Hf  Hf35      1.0  0.05479  0.68324  0.41903  1.0000
  Hf  Hf36      1.0  0.05589  0.68824  0.90990  1.0000
  Hf  Hf37      1.0  0.30772  0.19289  0.41004  1.0000
  Hf  Hf38      1.0  0.30580  0.18642  0.91673  1.0000
  Hf  Hf39      1.0  0.30516  0.69008  0.42171  1.0000
  Hf  Hf40      1.0  0.30638  0.69280  0.90938  1.0000
  Hf  Hf41      1.0  0.55534  0.17985  0.42032  1.0000
  Hf  Hf42      1.0  0.55275  0.17890  0.91897  1.0000
  Hf  Hf43      1.0  0.55304  0.67232  0.41995  1.0000
  Hf  Hf44      1.0  0.55637  0.67472  0.92131  1.0000
  Hf  Hf45      1.0  0.80695  0.19333  0.41471  1.0000
  Hf  Hf46      1.0  0.80813  0.18129  0.91219  1.0000
  Hf  Hf47      1.0  0.80877  0.67851  0.40452  1.0000
  Hf  Hf48      1.0  0.80965  0.67440  0.91248  1.0000
  Hf  Hf49      1.0  0.15809  0.39831  0.33028  1.0000
  Hf  Hf50      1.0  0.16012  0.39091  0.82539  1.0000
  Hf  Hf51      1.0  0.15833  0.89490  0.33395  1.0000
  Hf  Hf52      1.0  0.16204  0.89140  0.83313  1.0000
  Hf  Hf53      1.0  0.41121  0.39644  0.32792  1.0000
  Hf  Hf54      1.0  0.40795  0.38511  0.83659  1.0000
  Hf  Hf55      1.0  0.40638  0.88836  0.33834  1.0000
  Hf  Hf56      1.0  0.40917  0.88884  0.83413  1.0000
  Hf  Hf57      1.0  0.65620  0.37983  0.34327  1.0000
  Hf  Hf58      1.0  0.65787  0.38745  0.83873  1.0000
  Hf  Hf59      1.0  0.65654  0.88117  0.34036  1.0000
  Hf  Hf60      1.0  0.66043  0.88031  0.83683  1.0000
  Hf  Hf61      1.0  0.90957  0.39581  0.32986  1.0000
  Hf  Hf62      1.0  0.90979  0.39064  0.83482  1.0000
  Hf  Hf63      1.0  0.90543  0.88849  0.33404  1.0000
  Hf  Hf64      1.0  0.90540  0.88431  0.83866  1.0000
  Hf  Hf65      1.0  0.19641  0.32529  0.07437  1.0000
  Hf  Hf66      1.0  0.19692  0.32671  0.57665  1.0000
  Hf  Hf67      1.0  0.19194  0.81971  0.08330  1.0000
  Hf  Hf68      1.0  0.19210  0.82180  0.58536  1.0000
  Hf  Hf69      1.0  0.44150  0.32412  0.08383  1.0000
  Hf  Hf70      1.0  0.44457  0.31028  0.58471  1.0000
  Hf  Hf71      1.0  0.44143  0.81216  0.08789  1.0000
  Hf  Hf72      1.0  0.44141  0.81806  0.58752  1.0000
  Hf  Hf73      1.0  0.69708  0.31334  0.08523  1.0000
  Hf  Hf74      1.0  0.69132  0.32093  0.58270  1.0000
  Hf  Hf75      1.0  0.69464  0.80969  0.08000  1.0000
  Hf  Hf76      1.0  0.69653  0.81632  0.57886  1.0000
  Hf  Hf77      1.0  0.94360  0.31379  0.09337  1.0000
  Hf  Hf78      1.0  0.94248  0.31506  0.58657  1.0000
  Hf  Hf79      1.0  0.94037  0.81915  0.08724  1.0000
  Hf  Hf80      1.0  0.94385  0.81515  0.58571  1.0000
  Hf  Hf81      1.0  0.09223  0.11931  0.16398  1.0000
  Hf  Hf82      1.0  0.08880  0.11020  0.67557  1.0000
  Hf  Hf83      1.0  0.09225  0.61625  0.16438  1.0000
  Hf  Hf84      1.0  0.09339  0.61204  0.66690  1.0000
  Hf  Hf85      1.0  0.34384  0.11795  0.16372  1.0000
  Hf  Hf86      1.0  0.33781  0.10934  0.67031  1.0000
  Hf  Hf87      1.0  0.33991  0.61378  0.16931  1.0000
  Hf  Hf88      1.0  0.33964  0.60864  0.67251  1.0000
  Hf  Hf89      1.0  0.59103  0.10605  0.17073  1.0000
  Hf  Hf90      1.0  0.59599  0.10761  0.66458  1.0000
  Hf  Hf91      1.0  0.59390  0.60242  0.16619  1.0000
  Hf  Hf92      1.0  0.59258  0.59801  0.66768  1.0000
  Hf  Hf93      1.0  0.83926  0.11589  0.16720  1.0000
  Hf  Hf94      1.0  0.83900  0.10965  0.66855  1.0000
  Hf  Hf95      1.0  0.83838  0.61130  0.16748  1.0000
  Hf  Hf96      1.0  0.84246  0.60442  0.66312  1.0000
  F   F1        1.0  0.08474  0.15065  0.29383  1.0000
  F   F2        1.0  0.08100  0.13995  0.79626  1.0000
  F   F3        1.0  0.08319  0.61829  0.31625  1.0000
  F   F4        1.0  0.07883  0.64363  0.79714  1.0000
  F   F5        1.0  0.32384  0.13808  0.30108  1.0000
  F   F6        1.0  0.33419  0.13012  0.80899  1.0000
  F   F7        1.0  0.33062  0.62314  0.30545  1.0000
  F   F8        1.0  0.32123  0.62024  0.81496  1.0000
  F   F9        1.0  0.57546  0.13157  0.30279  1.0000
  F   F10       1.0  0.58443  0.13823  0.79211  1.0000
  F   F11       1.0  0.57799  0.61727  0.30403  1.0000
  F   F12       1.0  0.57847  0.63481  0.79128  1.0000
  F   F13       1.0  0.82595  0.11942  0.31728  1.0000
  F   F14       1.0  0.83108  0.12042  0.80341  1.0000
  F   F15       1.0  0.82947  0.62334  0.29823  1.0000
  F   F16       1.0  0.83674  0.63075  0.79680  1.0000
  F   F17       1.0  0.19260  0.34241  0.43274  1.0000
  F   F18       1.0  0.19024  0.34567  0.94167  1.0000
  F   F19       1.0  0.18511  0.83695  0.45239  1.0000
  F   F20       1.0  0.18480  0.84060  0.95170  1.0000
  F   F21       1.0  0.43796  0.34469  0.44947  1.0000
  F   F22       1.0  0.42549  0.33381  0.95559  1.0000
  F   F23       1.0  0.42968  0.83950  0.45191  1.0000
  F   F24       1.0  0.43606  0.84892  0.94484  1.0000
  F   F25       1.0  0.68357  0.34265  0.44759  1.0000
  F   F26       1.0  0.67810  0.33465  0.95625  1.0000
  F   F27       1.0  0.68404  0.84006  0.44380  1.0000
  F   F28       1.0  0.69447  0.83980  0.93767  1.0000
  F   F29       1.0  0.93147  0.34580  0.44664  1.0000
  F   F30       1.0  0.92828  0.34534  0.95713  1.0000
  F   F31       1.0  0.94172  0.84001  0.44128  1.0000
  F   F32       1.0  0.93193  0.83396  0.94422  1.0000
  F   F33       1.0  0.16881  0.37176  0.19724  1.0000
  F   F34       1.0  0.17010  0.38890  0.68245  1.0000
  F   F35       1.0  0.16768  0.87268  0.20034  1.0000
  F   F36       1.0  0.17418  0.88224  0.68612  1.0000
  F   F37       1.0  0.41817  0.35928  0.20570  1.0000
  F   F38       1.0  0.42457  0.36464  0.69680  1.0000
  F   F39       1.0  0.41806  0.85929  0.20795  1.0000
  F   F40       1.0  0.42176  0.85742  0.70056  1.0000
  F   F41       1.0  0.66541  0.35836  0.20425  1.0000
  F   F42       1.0  0.67893  0.38147  0.68210  1.0000
  F   F43       1.0  0.66908  0.86353  0.19725  1.0000
  F   F44       1.0  0.67661  0.87236  0.69602  1.0000
  F   F45       1.0  0.92508  0.36340  0.20438  1.0000
  F   F46       1.0  0.91895  0.37443  0.68562  1.0000
  F   F47       1.0  0.91624  0.87155  0.19825  1.0000
  F   F48       1.0  0.92225  0.87612  0.69292  1.0000
  F   F49       1.0  0.07448  0.16922  0.04248  1.0000
  F   F50       1.0  0.05927  0.16983  0.55760  1.0000
  F   F51       1.0  0.06199  0.68364  0.04945  1.0000
  F   F52       1.0  0.06850  0.66455  0.55084  1.0000
  F   F53       1.0  0.31329  0.16323  0.04663  1.0000
  F   F54       1.0  0.31521  0.15807  0.55253  1.0000
  F   F55       1.0  0.31240  0.67107  0.05057  1.0000
  F   F56       1.0  0.31702  0.67633  0.54412  1.0000
  F   F57       1.0  0.55843  0.13504  0.06349  1.0000
  F   F58       1.0  0.56584  0.15355  0.55982  1.0000
  F   F59       1.0  0.56413  0.65029  0.05528  1.0000
  F   F60       1.0  0.55897  0.65012  0.55849  1.0000
  F   F61       1.0  0.80766  0.15123  0.06459  1.0000
  F   F62       1.0  0.80894  0.16402  0.55081  1.0000
  F   F63       1.0  0.81228  0.65312  0.05377  1.0000
  F   F64       1.0  0.81097  0.65018  0.54949  1.0000
  F   F65       1.0  0.19860  0.20802  0.21609  1.0000
  F   F66       1.0  0.20558  0.21415  0.72115  1.0000
  F   F67       1.0  0.20589  0.70734  0.21210  1.0000
  F   F68       1.0  0.20669  0.71296  0.70995  1.0000
  F   F69       1.0  0.46086  0.19611  0.22164  1.0000
  F   F70       1.0  0.45197  0.19679  0.71079  1.0000
  F   F71       1.0  0.44762  0.69829  0.21623  1.0000
  F   F72       1.0  0.46108  0.70474  0.69551  1.0000
  F   F73       1.0  0.71227  0.20767  0.21924  1.0000
  F   F74       1.0  0.70263  0.21290  0.70821  1.0000
  F   F75       1.0  0.70269  0.70059  0.20650  1.0000
  F   F76       1.0  0.70375  0.70052  0.71990  1.0000
  F   F77       1.0  0.95634  0.19760  0.20942  1.0000
  F   F78       1.0  0.94894  0.19549  0.71652  1.0000
  F   F79       1.0  0.95459  0.70541  0.21517  1.0000
  F   F80       1.0  0.95836  0.69392  0.71657  1.0000
  F   F81       1.0  0.14901  0.07915  0.04014  1.0000
  F   F82       1.0  0.14781  0.09463  0.55479  1.0000
  F   F83       1.0  0.15294  0.60930  0.02445  1.0000
  F   F84       1.0  0.15241  0.60277  0.53548  1.0000
  F   F85       1.0  0.40530  0.10413  0.03779  1.0000
  F   F86       1.0  0.39948  0.09369  0.53359  1.0000
  F   F87       1.0  0.39812  0.59631  0.03610  1.0000
  F   F88       1.0  0.39710  0.59430  0.54939  1.0000
  F   F89       1.0  0.64838  0.10361  0.04072  1.0000
  F   F90       1.0  0.65459  0.07839  0.52898  1.0000
  F   F91       1.0  0.65388  0.57943  0.03659  1.0000
  F   F92       1.0  0.64908  0.59471  0.54324  1.0000
  F   F93       1.0  0.89926  0.10324  0.03966  1.0000
  F   F94       1.0  0.89722  0.10429  0.53612  1.0000
  F   F95       1.0  0.89966  0.60153  0.04486  1.0000
  F   F96       1.0  0.89893  0.59618  0.52909  1.0000
  F   F97       1.0  0.14864  0.21490  0.10353  1.0000
  F   F98       1.0  0.15522  0.20667  0.62626  1.0000
  F   F99       1.0  0.14836  0.70778  0.12873  1.0000
  F   F100      1.0  0.15456  0.68659  0.63867  1.0000
  F   F101      1.0  0.40108  0.19861  0.14346  1.0000
  F   F102      1.0  0.40251  0.18350  0.61193  1.0000
  F   F103      1.0  0.39633  0.70005  0.11379  1.0000
  F   F104      1.0  0.39816  0.70166  0.62951  1.0000
  F   F105      1.0  0.65510  0.19491  0.13500  1.0000
  F   F106      1.0  0.65469  0.19493  0.61835  1.0000
  F   F107      1.0  0.65390  0.68050  0.11205  1.0000
  F   F108      1.0  0.65477  0.69206  0.63431  1.0000
  F   F109      1.0  0.89652  0.19253  0.13922  1.0000
  F   F110      1.0  0.89943  0.21145  0.61014  1.0000
  F   F111      1.0  0.89626  0.70573  0.13628  1.0000
  F   F112      1.0  0.90675  0.70051  0.61692  1.0000
  F   F113      1.0  0.10447  0.29878  0.36666  1.0000
  F   F114      1.0  0.09790  0.30328  0.86383  1.0000
  F   F115      1.0  0.10035  0.81013  0.38832  1.0000
  F   F116      1.0  0.10384  0.80163  0.87790  1.0000
  F   F117      1.0  0.34800  0.31184  0.38077  1.0000
  F   F118      1.0  0.35814  0.29223  0.86982  1.0000
  F   F119      1.0  0.34844  0.81439  0.37102  1.0000
  F   F120      1.0  0.34828  0.81130  0.86548  1.0000
  F   F121      1.0  0.59587  0.30177  0.38935  1.0000
  F   F122      1.0  0.59521  0.29663  0.87891  1.0000
  F   F123      1.0  0.59705  0.79538  0.39277  1.0000
  F   F124      1.0  0.59591  0.79030  0.86593  1.0000
  F   F125      1.0  0.84725  0.31324  0.36618  1.0000
  F   F126      1.0  0.85304  0.30495  0.87429  1.0000
  F   F127      1.0  0.84409  0.80482  0.37321  1.0000
  F   F128      1.0  0.85227  0.79750  0.86877  1.0000
  F   F129      1.0  0.05982  0.25257  0.14242  1.0000
  F   F130      1.0  0.06928  0.25734  0.63647  1.0000
  F   F131      1.0  0.06000  0.74780  0.15527  1.0000
  F   F132      1.0  0.06164  0.74854  0.64449  1.0000
  F   F133      1.0  0.31759  0.25248  0.13511  1.0000
  F   F134      1.0  0.31609  0.24963  0.64421  1.0000
  F   F135      1.0  0.31595  0.75345  0.14492  1.0000
  F   F136      1.0  0.31860  0.75002  0.64873  1.0000
  F   F137      1.0  0.57273  0.24872  0.12083  1.0000
  F   F138      1.0  0.55806  0.23410  0.65833  1.0000
  F   F139      1.0  0.56761  0.73964  0.13583  1.0000
  F   F140      1.0  0.57565  0.74166  0.62800  1.0000
  F   F141      1.0  0.81536  0.25975  0.13679  1.0000
  F   F142      1.0  0.81670  0.25094  0.63447  1.0000
  F   F143      1.0  0.81499  0.75246  0.13776  1.0000
  F   F144      1.0  0.82679  0.74859  0.62594  1.0000
  F   F145      1.0  0.12526  0.37031  0.11256  1.0000
  F   F146      1.0  0.12704  0.38882  0.59144  1.0000
  F   F147      1.0  0.12416  0.87528  0.10785  1.0000
  F   F148      1.0  0.12501  0.86358  0.61857  1.0000
  F   F149      1.0  0.37514  0.37570  0.10019  1.0000
  F   F150      1.0  0.37068  0.36808  0.61895  1.0000
  F   F151      1.0  0.37588  0.87906  0.09202  1.0000
  F   F152      1.0  0.37144  0.86108  0.62111  1.0000
  F   F153      1.0  0.62548  0.36963  0.10144  1.0000
  F   F154      1.0  0.62168  0.35766  0.61155  1.0000
  F   F155      1.0  0.62228  0.85092  0.11180  1.0000
  F   F156      1.0  0.62259  0.86474  0.62511  1.0000
  F   F157      1.0  0.87263  0.37323  0.11940  1.0000
  F   F158      1.0  0.87464  0.37337  0.59788  1.0000
  F   F159      1.0  0.87716  0.88624  0.08758  1.0000
  F   F160      1.0  0.87254  0.86454  0.60994  1.0000
  F   F161      1.0  0.18326  0.25562  0.35679  1.0000
  F   F162      1.0  0.17514  0.24718  0.87828  1.0000
  F   F163      1.0  0.19389  0.75411  0.34525  1.0000
  F   F164      1.0  0.19174  0.76323  0.84512  1.0000
  F   F165      1.0  0.43200  0.25703  0.35607  1.0000
  F   F166      1.0  0.44306  0.24785  0.85093  1.0000
  F   F167      1.0  0.43345  0.74411  0.37179  1.0000
  F   F168      1.0  0.43557  0.74517  0.86361  1.0000
  F   F169      1.0  0.67959  0.24160  0.37366  1.0000
  F   F170      1.0  0.68184  0.26101  0.84922  1.0000
  F   F171      1.0  0.67909  0.73856  0.36161  1.0000
  F   F172      1.0  0.67239  0.74069  0.87871  1.0000
  F   F173      1.0  0.94503  0.26193  0.33403  1.0000
  F   F174      1.0  0.93361  0.24157  0.86077  1.0000
  F   F175      1.0  0.92624  0.75225  0.36553  1.0000
  F   F176      1.0  0.93852  0.74718  0.85579  1.0000
  F   F177      1.0  0.12813  0.12218  0.40839  1.0000
  F   F178      1.0  0.12850  0.13672  0.87728  1.0000
  F   F179      1.0  0.12610  0.64630  0.38566  1.0000
  F   F180      1.0  0.12678  0.64025  0.88770  1.0000
  F   F181      1.0  0.37352  0.14172  0.38757  1.0000
  F   F182      1.0  0.37456  0.10702  0.92668  1.0000
  F   F183      1.0  0.38093  0.64649  0.38455  1.0000
  F   F184      1.0  0.37648  0.64948  0.86540  1.0000
  F   F185      1.0  0.62765  0.13340  0.37879  1.0000
  F   F186      1.0  0.62435  0.12941  0.89852  1.0000
  F   F187      1.0  0.62229  0.61363  0.40607  1.0000
  F   F188      1.0  0.62299  0.61517  0.89856  1.0000
  F   F189      1.0  0.87539  0.14148  0.38875  1.0000
  F   F190      1.0  0.87159  0.12856  0.90094  1.0000
  F   F191      1.0  0.87657  0.61886  0.38465  1.0000
  F   F192      1.0  0.87569  0.61256  0.89936  1.0000
  F   F193      1.0  0.00963  0.37002  0.06606  1.0000
  F   F194      1.0  0.00747  0.36611  0.58045  1.0000
  F   F195      1.0  0.00490  0.86291  0.07480  1.0000
  F   F196      1.0  0.00671  0.87094  0.57162  1.0000
  F   F197      1.0  0.25833  0.36929  0.07631  1.0000
  F   F198      1.0  0.26221  0.37343  0.55963  1.0000
  F   F199      1.0  0.25296  0.86102  0.08230  1.0000
  F   F200      1.0  0.25803  0.86518  0.57702  1.0000
  F   F201      1.0  0.50410  0.35831  0.08116  1.0000
  F   F202      1.0  0.50949  0.36002  0.55436  1.0000
  F   F203      1.0  0.50577  0.84331  0.08989  1.0000
  F   F204      1.0  0.51280  0.86144  0.57165  1.0000
  F   F205      1.0  0.75961  0.35645  0.07217  1.0000
  F   F206      1.0  0.75965  0.36498  0.56599  1.0000
  F   F207      1.0  0.75319  0.87203  0.05810  1.0000
  F   F208      1.0  0.75816  0.84430  0.58587  1.0000
  F   F209      1.0  0.07227  0.49672  0.17367  1.0000
  F   F210      1.0  0.06755  0.49074  0.67634  1.0000
  F   F211      1.0  0.06977  0.98986  0.16863  1.0000
  F   F212      1.0  0.06845  0.98132  0.67743  1.0000
  F   F213      1.0  0.31716  0.48848  0.17828  1.0000
  F   F214      1.0  0.31420  0.48760  0.67532  1.0000
  F   F215      1.0  0.32115  0.99263  0.16624  1.0000
  F   F216      1.0  0.31798  0.98552  0.68128  1.0000
  F   F217      1.0  0.56753  0.48361  0.17235  1.0000
  F   F218      1.0  0.57125  0.47325  0.66810  1.0000
  F   F219      1.0  0.57689  0.97596  0.16915  1.0000
  F   F220      1.0  0.57203  0.98181  0.66963  1.0000
  F   F221      1.0  0.81637  0.48471  0.17760  1.0000
  F   F222      1.0  0.82305  0.47577  0.68310  1.0000
  F   F223      1.0  0.81680  0.97886  0.18014  1.0000
  F   F224      1.0  0.82090  0.98843  0.66740  1.0000
  F   F225      1.0  0.24106  0.14877  0.41975  1.0000
  F   F226      1.0  0.24100  0.13767  0.93670  1.0000
  F   F227      1.0  0.24346  0.63488  0.43078  1.0000
  F   F228      1.0  0.24344  0.64044  0.91657  1.0000
  F   F229      1.0  0.48763  0.15463  0.42109  1.0000
  F   F230      1.0  0.48951  0.12869  0.94664  1.0000
  F   F231      1.0  0.49386  0.63807  0.42664  1.0000
  F   F232      1.0  0.49185  0.63227  0.92455  1.0000
  F   F233      1.0  0.73919  0.14355  0.43084  1.0000
  F   F234      1.0  0.74525  0.14787  0.89908  1.0000
  F   F235      1.0  0.74305  0.63018  0.42436  1.0000
  F   F236      1.0  0.74334  0.62537  0.92669  1.0000
  F   F237      1.0  0.99527  0.13646  0.42621  1.0000
  F   F238      1.0  0.99803  0.14169  0.91411  1.0000
  F   F239      1.0  0.99254  0.64118  0.42643  1.0000
  F   F240      1.0  0.99309  0.62986  0.92489  1.0000
  F   F241      1.0  0.17952  0.02488  0.31833  1.0000
  F   F242      1.0  0.18468  0.02130  0.82935  1.0000
  F   F243      1.0  0.17330  0.51353  0.34535  1.0000
  F   F244      1.0  0.18474  0.51654  0.81528  1.0000
  F   F245      1.0  0.42997  0.01145  0.33209  1.0000
  F   F246      1.0  0.43107  0.01498  0.83576  1.0000
  F   F247      1.0  0.43407  0.51351  0.32387  1.0000
  F   F248      1.0  0.42647  0.50787  0.84518  1.0000
  F   F249      1.0  0.68380  0.01639  0.31565  1.0000
  F   F250      1.0  0.67587  0.00992  0.82855  1.0000
  F   F251      1.0  0.68023  0.51682  0.30945  1.0000
  F   F252      1.0  0.68230  0.51411  0.82105  1.0000
  F   F253      1.0  0.92758  0.02007  0.31856  1.0000
  F   F254      1.0  0.92651  0.01353  0.83696  1.0000
  F   F255      1.0  0.93745  0.51896  0.30155  1.0000
  F   F256      1.0  0.93775  0.51751  0.81476  1.0000
  F   F257      1.0  0.99332  0.23938  0.00627  1.0000
  F   F258      1.0  0.99829  0.25490  0.49674  1.0000
  F   F259      1.0  0.99389  0.74766  0.99762  1.0000
  F   F260      1.0  0.00442  0.75436  0.48945  1.0000
  F   F261      1.0  0.25673  0.28061  0.97872  1.0000
  F   F262      1.0  0.25203  0.23664  0.51295  1.0000
  F   F263      1.0  0.24906  0.76154  0.98514  1.0000
  F   F264      1.0  0.24851  0.74971  0.49785  1.0000
  F   F265      1.0  0.49898  0.26729  0.98354  1.0000
  F   F266      1.0  0.50109  0.23480  0.51095  1.0000
  F   F267      1.0  0.49823  0.74451  0.00265  1.0000
  F   F268      1.0  0.49875  0.75635  0.49167  1.0000
  F   F269      1.0  0.74985  0.24120  0.99403  1.0000
  F   F270      1.0  0.74476  0.26159  0.49172  1.0000
  F   F271      1.0  0.74504  0.73308  0.00159  1.0000
  F   F272      1.0  0.75514  0.76714  0.47326  1.0000
  F   F273      1.0  0.12214  0.99953  0.24297  1.0000
  F   F274      1.0  0.12044  0.99977  0.77081  1.0000
  F   F275      1.0  0.13595  0.51720  0.23472  1.0000
  F   F276      1.0  0.11589  0.49172  0.76893  1.0000
  F   F277      1.0  0.37596  0.00443  0.24900  1.0000
  F   F278      1.0  0.38303  0.99442  0.73928  1.0000
  F   F279      1.0  0.37939  0.50118  0.23847  1.0000
  F   F280      1.0  0.37534  0.49458  0.74391  1.0000
  F   F281      1.0  0.61626  0.99263  0.27282  1.0000
  F   F282      1.0  0.62036  0.98282  0.75239  1.0000
  F   F283      1.0  0.62423  0.49263  0.25456  1.0000
  F   F284      1.0  0.61804  0.48780  0.76556  1.0000
  F   F285      1.0  0.86981  0.99974  0.24381  1.0000
  F   F286      1.0  0.88464  0.01100  0.73139  1.0000
  F   F287      1.0  0.87162  0.49447  0.24662  1.0000
  F   F288      1.0  0.88113  0.50368  0.73821  1.0000
  F   F289      1.0  0.04076  0.04217  0.02282  1.0000
  F   F290      1.0  0.04469  0.03911  0.51693  1.0000
  F   F291      1.0  0.04923  0.54316  0.01117  1.0000
  F   F292      1.0  0.04351  0.53255  0.52908  1.0000
  F   F293      1.0  0.28870  0.02976  0.02909  1.0000
  F   F294      1.0  0.29315  0.03016  0.52363  1.0000
  F   F295      1.0  0.28862  0.53322  0.02664  1.0000
  F   F296      1.0  0.29493  0.53636  0.51272  1.0000
  F   F297      1.0  0.54578  0.00932  0.01574  1.0000
  F   F298      1.0  0.54054  0.02940  0.52757  1.0000
  F   F299      1.0  0.53927  0.52777  0.02864  1.0000
  F   F300      1.0  0.53708  0.52569  0.53053  1.0000
  F   F301      1.0  0.79444  0.02426  0.02393  1.0000
  F   F302      1.0  0.79845  0.01938  0.51728  1.0000
  F   F303      1.0  0.79509  0.51954  0.01750  1.0000
  F   F304      1.0  0.79343  0.52454  0.52198  1.0000
  F   F305      1.0  0.23684  0.41600  0.22829  1.0000
  F   F306      1.0  0.23386  0.39700  0.73071  1.0000
  F   F307      1.0  0.23288  0.91628  0.23057  1.0000
  F   F308      1.0  0.23572  0.92663  0.72354  1.0000
  F   F309      1.0  0.48571  0.41328  0.22674  1.0000
  F   F310      1.0  0.48388  0.41130  0.72240  1.0000
  F   F311      1.0  0.48004  0.91671  0.22623  1.0000
  F   F312      1.0  0.48115  0.91852  0.72892  1.0000
  F   F313      1.0  0.73119  0.40198  0.23326  1.0000
  F   F314      1.0  0.73935  0.40142  0.73771  1.0000
  F   F315      1.0  0.73791  0.90052  0.23811  1.0000
  F   F316      1.0  0.73983  0.90226  0.72694  1.0000
  F   F317      1.0  0.98503  0.43322  0.20070  1.0000
  F   F318      1.0  0.98279  0.41941  0.72453  1.0000
  F   F319      1.0  0.98630  0.90757  0.22935  1.0000
  F   F320      1.0  0.98196  0.92804  0.72395  1.0000
  F   F321      1.0  0.20939  0.47035  0.47410  1.0000
  F   F322      1.0  0.20392  0.47387  0.98159  1.0000
  F   F323      1.0  0.19900  0.97525  0.47869  1.0000
  F   F324      1.0  0.20624  0.96545  0.97589  1.0000
  F   F325      1.0  0.45254  0.47279  0.47880  1.0000
  F   F326      1.0  0.45338  0.46842  0.98395  1.0000
  F   F327      1.0  0.46049  0.96240  0.47839  1.0000
  F   F328      1.0  0.45518  0.96695  0.99269  1.0000
  F   F329      1.0  0.70330  0.46508  0.47900  1.0000
  F   F330      1.0  0.71204  0.45980  0.96576  1.0000
  F   F331      1.0  0.71198  0.96195  0.48371  1.0000
  F   F332      1.0  0.69121  0.97297  0.98254  1.0000
  F   F333      1.0  0.96000  0.46748  0.46788  1.0000
  F   F334      1.0  0.95653  0.45995  0.98685  1.0000
  F   F335      1.0  0.94787  0.96873  0.48979  1.0000
  F   F336      1.0  0.96744  0.96007  0.96233  1.0000
  F   F337      1.0  0.01442  0.07815  0.28562  1.0000
  F   F338      1.0  0.01298  0.09714  0.76887  1.0000
  F   F339      1.0  0.01878  0.57916  0.27750  1.0000
  F   F340      1.0  0.01895  0.58286  0.77206  1.0000
  F   F341      1.0  0.26477  0.09485  0.26697  1.0000
  F   F342      1.0  0.26656  0.08277  0.79157  1.0000
  F   F343      1.0  0.26149  0.59122  0.27415  1.0000
  F   F344      1.0  0.26301  0.58580  0.76294  1.0000
  F   F345      1.0  0.51653  0.07956  0.28251  1.0000
  F   F346      1.0  0.51961  0.06939  0.79531  1.0000
  F   F347      1.0  0.51066  0.58478  0.27146  1.0000
  F   F348      1.0  0.51486  0.56328  0.78093  1.0000
  F   F349      1.0  0.76854  0.09356  0.26929  1.0000
  F   F350      1.0  0.76222  0.09328  0.76878  1.0000
  F   F351      1.0  0.76143  0.58716  0.27079  1.0000
  F   F352      1.0  0.76771  0.58632  0.76353  1.0000
  F   F353      1.0  0.09845  0.39788  0.46043  1.0000
  F   F354      1.0  0.10670  0.39348  0.96079  1.0000
  F   F355      1.0  0.09974  0.90682  0.47421  1.0000
  F   F356      1.0  0.09937  0.91574  0.96561  1.0000
  F   F357      1.0  0.35454  0.41913  0.45667  1.0000
  F   F358      1.0  0.34626  0.40284  0.95980  1.0000
  F   F359      1.0  0.34871  0.92751  0.45484  1.0000
  F   F360      1.0  0.34749  0.91498  0.95327  1.0000
  F   F361      1.0  0.60172  0.41705  0.46909  1.0000
  F   F362      1.0  0.59738  0.41788  0.95982  1.0000
  F   F363      1.0  0.60790  0.90927  0.46503  1.0000
  F   F364      1.0  0.60217  0.88764  0.95895  1.0000
  F   F365      1.0  0.84509  0.40438  0.45940  1.0000
  F   F366      1.0  0.84998  0.42071  0.95457  1.0000
  F   F367      1.0  0.85251  0.90113  0.46201  1.0000
  F   F368      1.0  0.84488  0.90261  0.95964  1.0000
  F   F369      1.0  0.03978  0.30912  0.28863  1.0000
  F   F370      1.0  0.04317  0.30359  0.78133  1.0000
  F   F371      1.0  0.04743  0.79820  0.28376  1.0000
  F   F372      1.0  0.04192  0.80795  0.79394  1.0000
  F   F373      1.0  0.29742  0.31008  0.28684  1.0000
  F   F374      1.0  0.29969  0.29479  0.78700  1.0000
  F   F375      1.0  0.29423  0.79402  0.29713  1.0000
  F   F376      1.0  0.29327  0.79623  0.78844  1.0000
  F   F377      1.0  0.55423  0.30086  0.28177  1.0000
  F   F378      1.0  0.53928  0.29903  0.79248  1.0000
  F   F379      1.0  0.54239  0.79091  0.28741  1.0000
  F   F380      1.0  0.54180  0.79500  0.78629  1.0000
  F   F381      1.0  0.79609  0.29328  0.28255  1.0000
  F   F382      1.0  0.80325  0.28876  0.78384  1.0000
  F   F383      1.0  0.80257  0.79384  0.28115  1.0000
  F   F384      1.0  0.79785  0.79346  0.78995  1.0000
