data_image0
_chemical_formula_structural       Hf96F384
_chemical_formula_sum              "Hf96 F384"
_cell_length_a       31.0432
_cell_length_b       15.5166
_cell_length_c       15.5089
_cell_angle_alpha    63.342
_cell_angle_beta     63.342
_cell_angle_gamma    80.1625

_space_group_name_H-M_alt    "P 1"
_space_group_IT_number       1

loop_
  _space_group_symop_operation_xyz
  'x, y, z'

loop_
  _atom_site_type_symbol
  _atom_site_label
  _atom_site_symmetry_multiplicity
  _atom_site_fract_x
  _atom_site_fract_y
  _atom_site_fract_z
  _atom_site_occupancy
  Hf  Hf1       1.0  0.19555  0.10348  0.38000  1.0000
  Hf  Hf2       1.0  0.19722  0.10264  0.87604  1.0000
  Hf  Hf3       1.0  0.19769  0.60941  0.36889  1.0000
  Hf  Hf4       1.0  0.19840  0.61480  0.86761  1.0000
  Hf  Hf5       1.0  0.44298  0.11283  0.36461  1.0000
  Hf  Hf6       1.0  0.44462  0.10442  0.88166  1.0000
  Hf  Hf7       1.0  0.44914  0.61082  0.37253  1.0000
  Hf  Hf8       1.0  0.44663  0.61028  0.87334  1.0000
  Hf  Hf9       1.0  0.69582  0.10299  0.37395  1.0000
  Hf  Hf10      1.0  0.69557  0.11305  0.87667  1.0000
  Hf  Hf11      1.0  0.69607  0.60532  0.37381  1.0000
  Hf  Hf12      1.0  0.69970  0.61216  0.86699  1.0000
  Hf  Hf13      1.0  0.94280  0.09264  0.39174  1.0000
  Hf  Hf14      1.0  0.95055  0.11010  0.86980  1.0000
  Hf  Hf15      1.0  0.94456  0.60371  0.37696  1.0000
  Hf  Hf16      1.0  0.94973  0.59690  0.88392  1.0000
  Hf  Hf17      1.0  0.04967  0.39006  0.13698  1.0000
  Hf  Hf18      1.0  0.05401  0.40402  0.61697  1.0000
  Hf  Hf19      1.0  0.05734  0.90246  0.11717  1.0000
  Hf  Hf20      1.0  0.05260  0.88924  0.63017  1.0000
  Hf  Hf21      1.0  0.29866  0.38879  0.13501  1.0000
  Hf  Hf22      1.0  0.30404  0.39332  0.62318  1.0000
  Hf  Hf23      1.0  0.30723  0.89978  0.11359  1.0000
  Hf  Hf24      1.0  0.30201  0.89310  0.62535  1.0000
  Hf  Hf25      1.0  0.55703  0.39708  0.11911  1.0000
  Hf  Hf26      1.0  0.55310  0.39568  0.61935  1.0000
  Hf  Hf27      1.0  0.55551  0.89714  0.11569  1.0000
  Hf  Hf28      1.0  0.55551  0.89183  0.62395  1.0000
  Hf  Hf29      1.0  0.80277  0.38613  0.13657  1.0000
  Hf  Hf30      1.0  0.80039  0.38856  0.62855  1.0000
  Hf  Hf31      1.0  0.80267  0.88740  0.12753  1.0000
  Hf  Hf32      1.0  0.80000  0.88534  0.63867  1.0000
  Hf  Hf33      1.0  0.05455  0.17962  0.42686  1.0000
  Hf  Hf34      1.0  0.05732  0.18892  0.90763  1.0000
  Hf  Hf35      1.0  0.05700  0.67671  0.42432  1.0000
  Hf  Hf36      1.0  0.05675  0.68434  0.91725  1.0000
  Hf  Hf37      1.0  0.30207  0.17739  0.42723  1.0000
  Hf  Hf38      1.0  0.30617  0.18930  0.91178  1.0000
  Hf  Hf39      1.0  0.30622  0.68265  0.41819  1.0000
  Hf  Hf40      1.0  0.30582  0.68159  0.91836  1.0000
  Hf  Hf41      1.0  0.55283  0.18683  0.40667  1.0000
  Hf  Hf42      1.0  0.55438  0.18927  0.91229  1.0000
  Hf  Hf43      1.0  0.55800  0.68275  0.41206  1.0000
  Hf  Hf44      1.0  0.55632  0.68351  0.90488  1.0000
  Hf  Hf45      1.0  0.80284  0.18263  0.43053  1.0000
  Hf  Hf46      1.0  0.80563  0.18198  0.92203  1.0000
  Hf  Hf47      1.0  0.80523  0.67672  0.41512  1.0000
  Hf  Hf48      1.0  0.80921  0.67363  0.91890  1.0000
  Hf  Hf49      1.0  0.15709  0.38810  0.33570  1.0000
  Hf  Hf50      1.0  0.16298  0.37935  0.83783  1.0000
  Hf  Hf51      1.0  0.15845  0.88592  0.32556  1.0000
  Hf  Hf52      1.0  0.15742  0.89364  0.83228  1.0000
  Hf  Hf53      1.0  0.41222  0.39417  0.32977  1.0000
  Hf  Hf54      1.0  0.40817  0.38904  0.83675  1.0000
  Hf  Hf55      1.0  0.40568  0.88630  0.33732  1.0000
  Hf  Hf56      1.0  0.40777  0.88616  0.83750  1.0000
  Hf  Hf57      1.0  0.66157  0.39102  0.32339  1.0000
  Hf  Hf58      1.0  0.65886  0.38500  0.83019  1.0000
  Hf  Hf59      1.0  0.65862  0.88776  0.32839  1.0000
  Hf  Hf60      1.0  0.65846  0.89789  0.82658  1.0000
  Hf  Hf61      1.0  0.90464  0.37855  0.34548  1.0000
  Hf  Hf62      1.0  0.90667  0.38832  0.83855  1.0000
  Hf  Hf63      1.0  0.90506  0.88165  0.33867  1.0000
  Hf  Hf64      1.0  0.90821  0.88497  0.83580  1.0000
  Hf  Hf65      1.0  0.19091  0.31895  0.09044  1.0000
  Hf  Hf66      1.0  0.19545  0.31913  0.57961  1.0000
  Hf  Hf67      1.0  0.19376  0.82016  0.08036  1.0000
  Hf  Hf68      1.0  0.19416  0.82050  0.58115  1.0000
  Hf  Hf69      1.0  0.44411  0.32244  0.08130  1.0000
  Hf  Hf70      1.0  0.44033  0.31578  0.59599  1.0000
  Hf  Hf71      1.0  0.44693  0.82095  0.07993  1.0000
  Hf  Hf72      1.0  0.44547  0.81422  0.58946  1.0000
  Hf  Hf73      1.0  0.69652  0.31945  0.07500  1.0000
  Hf  Hf74      1.0  0.69183  0.32158  0.58540  1.0000
  Hf  Hf75      1.0  0.69590  0.82262  0.06951  1.0000
  Hf  Hf76      1.0  0.69395  0.82269  0.57884  1.0000
  Hf  Hf77      1.0  0.94568  0.31564  0.08792  1.0000
  Hf  Hf78      1.0  0.94794  0.31692  0.58125  1.0000
  Hf  Hf79      1.0  0.94518  0.81719  0.08332  1.0000
  Hf  Hf80      1.0  0.94284  0.80938  0.59281  1.0000
  Hf  Hf81      1.0  0.08806  0.11456  0.17058  1.0000
  Hf  Hf82      1.0  0.09251  0.12191  0.66029  1.0000
  Hf  Hf83      1.0  0.09177  0.61856  0.16459  1.0000
  Hf  Hf84      1.0  0.09567  0.60282  0.66606  1.0000
  Hf  Hf85      1.0  0.34439  0.10889  0.16232  1.0000
  Hf  Hf86      1.0  0.34199  0.11175  0.66430  1.0000
  Hf  Hf87      1.0  0.33773  0.60849  0.16756  1.0000
  Hf  Hf88      1.0  0.34311  0.61028  0.66935  1.0000
  Hf  Hf89      1.0  0.59130  0.11154  0.15791  1.0000
  Hf  Hf90      1.0  0.58956  0.11758  0.66426  1.0000
  Hf  Hf91      1.0  0.58838  0.61231  0.16625  1.0000
  Hf  Hf92      1.0  0.59193  0.60943  0.66637  1.0000
  Hf  Hf93      1.0  0.83903  0.11494  0.16856  1.0000
  Hf  Hf94      1.0  0.84366  0.10521  0.68111  1.0000
  Hf  Hf95      1.0  0.84255  0.61458  0.16517  1.0000
  Hf  Hf96      1.0  0.84482  0.60497  0.66501  1.0000
  F   F1        1.0  0.07903  0.11899  0.30781  1.0000
  F   F2        1.0  0.07793  0.13798  0.79082  1.0000
  F   F3        1.0  0.07320  0.61491  0.31022  1.0000
  F   F4        1.0  0.07850  0.62408  0.81597  1.0000
  F   F5        1.0  0.32956  0.13881  0.29727  1.0000
  F   F6        1.0  0.32974  0.14190  0.79748  1.0000
  F   F7        1.0  0.32595  0.62609  0.30863  1.0000
  F   F8        1.0  0.32301  0.61690  0.81776  1.0000
  F   F9        1.0  0.57708  0.13727  0.28966  1.0000
  F   F10       1.0  0.57875  0.12386  0.80727  1.0000
  F   F11       1.0  0.57908  0.62797  0.30349  1.0000
  F   F12       1.0  0.57404  0.62526  0.80679  1.0000
  F   F13       1.0  0.82704  0.12517  0.31258  1.0000
  F   F14       1.0  0.82848  0.12537  0.81078  1.0000
  F   F15       1.0  0.84253  0.64692  0.28331  1.0000
  F   F16       1.0  0.83075  0.61923  0.80824  1.0000
  F   F17       1.0  0.18537  0.33833  0.44658  1.0000
  F   F18       1.0  0.18687  0.34052  0.94801  1.0000
  F   F19       1.0  0.18513  0.85171  0.44054  1.0000
  F   F20       1.0  0.16953  0.83775  0.96105  1.0000
  F   F21       1.0  0.43522  0.35095  0.44137  1.0000
  F   F22       1.0  0.43634  0.35292  0.94973  1.0000
  F   F23       1.0  0.43710  0.85494  0.44214  1.0000
  F   F24       1.0  0.43734  0.82976  0.94377  1.0000
  F   F25       1.0  0.68290  0.34785  0.44179  1.0000
  F   F26       1.0  0.68702  0.35139  0.93226  1.0000
  F   F27       1.0  0.68816  0.82670  0.44269  1.0000
  F   F28       1.0  0.68319  0.83970  0.94547  1.0000
  F   F29       1.0  0.93463  0.33392  0.45015  1.0000
  F   F30       1.0  0.93879  0.34633  0.94864  1.0000
  F   F31       1.0  0.93702  0.84765  0.44918  1.0000
  F   F32       1.0  0.93112  0.82267  0.95169  1.0000
  F   F33       1.0  0.16470  0.37416  0.20021  1.0000
  F   F34       1.0  0.17452  0.36345  0.69409  1.0000
  F   F35       1.0  0.17559  0.86941  0.19164  1.0000
  F   F36       1.0  0.17217  0.87057  0.69168  1.0000
  F   F37       1.0  0.42151  0.39091  0.18430  1.0000
  F   F38       1.0  0.42293  0.35387  0.71071  1.0000
  F   F39       1.0  0.42552  0.87784  0.19094  1.0000
  F   F40       1.0  0.42024  0.88174  0.68560  1.0000
  F   F41       1.0  0.66790  0.36608  0.20090  1.0000
  F   F42       1.0  0.67500  0.37052  0.69076  1.0000
  F   F43       1.0  0.66728  0.87218  0.19318  1.0000
  F   F44       1.0  0.66892  0.87029  0.69775  1.0000
  F   F45       1.0  0.92078  0.36960  0.20726  1.0000
  F   F46       1.0  0.92874  0.37526  0.68445  1.0000
  F   F47       1.0  0.93401  0.88171  0.18893  1.0000
  F   F48       1.0  0.92202  0.87353  0.69487  1.0000
  F   F49       1.0  0.07752  0.18501  0.03416  1.0000
  F   F50       1.0  0.05467  0.15053  0.56964  1.0000
  F   F51       1.0  0.06536  0.64933  0.05330  1.0000
  F   F52       1.0  0.06587  0.65615  0.55972  1.0000
  F   F53       1.0  0.32195  0.17203  0.03874  1.0000
  F   F54       1.0  0.31037  0.14989  0.56121  1.0000
  F   F55       1.0  0.30740  0.66304  0.05786  1.0000
  F   F56       1.0  0.32043  0.67876  0.54246  1.0000
  F   F57       1.0  0.56436  0.15830  0.04911  1.0000
  F   F58       1.0  0.56216  0.15422  0.55370  1.0000
  F   F59       1.0  0.56551  0.66208  0.05257  1.0000
  F   F60       1.0  0.56422  0.64942  0.56142  1.0000
  F   F61       1.0  0.81202  0.15119  0.05967  1.0000
  F   F62       1.0  0.82118  0.16610  0.55088  1.0000
  F   F63       1.0  0.81731  0.66570  0.05185  1.0000
  F   F64       1.0  0.81959  0.66775  0.54386  1.0000
  F   F65       1.0  0.20262  0.19761  0.20074  1.0000
  F   F66       1.0  0.20935  0.19655  0.70812  1.0000
  F   F67       1.0  0.20428  0.70383  0.20675  1.0000
  F   F68       1.0  0.20815  0.70758  0.70609  1.0000
  F   F69       1.0  0.44758  0.20714  0.20461  1.0000
  F   F70       1.0  0.44501  0.19582  0.74232  1.0000
  F   F71       1.0  0.46352  0.70686  0.21645  1.0000
  F   F72       1.0  0.46192  0.69924  0.70241  1.0000
  F   F73       1.0  0.70559  0.19947  0.21140  1.0000
  F   F74       1.0  0.70041  0.20626  0.71429  1.0000
  F   F75       1.0  0.69833  0.69996  0.20209  1.0000
  F   F76       1.0  0.70657  0.70434  0.70634  1.0000
  F   F77       1.0  0.95646  0.20156  0.19696  1.0000
  F   F78       1.0  0.96007  0.19379  0.71248  1.0000
  F   F79       1.0  0.94164  0.69894  0.22329  1.0000
  F   F80       1.0  0.95068  0.69820  0.71046  1.0000
  F   F81       1.0  0.14749  0.08459  0.03864  1.0000
  F   F82       1.0  0.14690  0.09231  0.54324  1.0000
  F   F83       1.0  0.14997  0.61161  0.03293  1.0000
  F   F84       1.0  0.15448  0.59745  0.52540  1.0000
  F   F85       1.0  0.40277  0.07495  0.04714  1.0000
  F   F86       1.0  0.39547  0.10092  0.52574  1.0000
  F   F87       1.0  0.39753  0.61901  0.03573  1.0000
  F   F88       1.0  0.40314  0.60327  0.54335  1.0000
  F   F89       1.0  0.65001  0.07811  0.04957  1.0000
  F   F90       1.0  0.64880  0.09884  0.52063  1.0000
  F   F91       1.0  0.64734  0.58334  0.03280  1.0000
  F   F92       1.0  0.65378  0.58659  0.54740  1.0000
  F   F93       1.0  0.89434  0.08909  0.04520  1.0000
  F   F94       1.0  0.89736  0.08538  0.55090  1.0000
  F   F95       1.0  0.89897  0.57686  0.04028  1.0000
  F   F96       1.0  0.90019  0.57495  0.54346  1.0000
  F   F97       1.0  0.14348  0.19582  0.13571  1.0000
  F   F98       1.0  0.15136  0.19195  0.62505  1.0000
  F   F99       1.0  0.15228  0.69839  0.13288  1.0000
  F   F100      1.0  0.14993  0.69230  0.63671  1.0000
  F   F101      1.0  0.39993  0.19547  0.12473  1.0000
  F   F102      1.0  0.41503  0.19735  0.60768  1.0000
  F   F103      1.0  0.39815  0.71003  0.14883  1.0000
  F   F104      1.0  0.40471  0.70465  0.63170  1.0000
  F   F105      1.0  0.65376  0.20345  0.11306  1.0000
  F   F106      1.0  0.64686  0.19535  0.62584  1.0000
  F   F107      1.0  0.65579  0.68530  0.11643  1.0000
  F   F108      1.0  0.64844  0.70573  0.62448  1.0000
  F   F109      1.0  0.89706  0.19077  0.13631  1.0000
  F   F110      1.0  0.90485  0.18831  0.62193  1.0000
  F   F111      1.0  0.89973  0.69862  0.09847  1.0000
  F   F112      1.0  0.90253  0.69688  0.60695  1.0000
  F   F113      1.0  0.09210  0.30677  0.39783  1.0000
  F   F114      1.0  0.09712  0.31488  0.85561  1.0000
  F   F115      1.0  0.09429  0.80079  0.38866  1.0000
  F   F116      1.0  0.09903  0.80391  0.88189  1.0000
  F   F117      1.0  0.34364  0.29725  0.37674  1.0000
  F   F118      1.0  0.34729  0.30148  0.86870  1.0000
  F   F119      1.0  0.34653  0.81315  0.36128  1.0000
  F   F120      1.0  0.35357  0.80186  0.86872  1.0000
  F   F121      1.0  0.60204  0.31010  0.38151  1.0000
  F   F122      1.0  0.59324  0.31089  0.86158  1.0000
  F   F123      1.0  0.60044  0.79076  0.38120  1.0000
  F   F124      1.0  0.59979  0.81951  0.86788  1.0000
  F   F125      1.0  0.83942  0.30647  0.37666  1.0000
  F   F126      1.0  0.84699  0.30124  0.87415  1.0000
  F   F127      1.0  0.85423  0.79448  0.36627  1.0000
  F   F128      1.0  0.84137  0.81893  0.87974  1.0000
  F   F129      1.0  0.05061  0.25362  0.16686  1.0000
  F   F130      1.0  0.06634  0.25652  0.63362  1.0000
  F   F131      1.0  0.07590  0.76994  0.12718  1.0000
  F   F132      1.0  0.05565  0.74457  0.66904  1.0000
  F   F133      1.0  0.31269  0.25576  0.14717  1.0000
  F   F134      1.0  0.33222  0.25171  0.62310  1.0000
  F   F135      1.0  0.31715  0.75508  0.12673  1.0000
  F   F136      1.0  0.30629  0.74750  0.65699  1.0000
  F   F137      1.0  0.56901  0.25475  0.12638  1.0000
  F   F138      1.0  0.56455  0.25675  0.63086  1.0000
  F   F139      1.0  0.56505  0.75231  0.14119  1.0000
  F   F140      1.0  0.56552  0.74808  0.63964  1.0000
  F   F141      1.0  0.81775  0.25145  0.12662  1.0000
  F   F142      1.0  0.81426  0.24558  0.64734  1.0000
  F   F143      1.0  0.80897  0.73891  0.15823  1.0000
  F   F144      1.0  0.81916  0.74630  0.63818  1.0000
  F   F145      1.0  0.12368  0.37478  0.09897  1.0000
  F   F146      1.0  0.12181  0.36622  0.61436  1.0000
  F   F147      1.0  0.12809  0.89205  0.09982  1.0000
  F   F148      1.0  0.12651  0.86890  0.61886  1.0000
  F   F149      1.0  0.37194  0.37555  0.11211  1.0000
  F   F150      1.0  0.37568  0.37007  0.61308  1.0000
  F   F151      1.0  0.37642  0.88574  0.09965  1.0000
  F   F152      1.0  0.37034  0.85703  0.62035  1.0000
  F   F153      1.0  0.62663  0.39108  0.09861  1.0000
  F   F154      1.0  0.62086  0.36612  0.62025  1.0000
  F   F155      1.0  0.62399  0.87077  0.10325  1.0000
  F   F156      1.0  0.62290  0.86552  0.62210  1.0000
  F   F157      1.0  0.87442  0.36000  0.12872  1.0000
  F   F158      1.0  0.87554  0.36156  0.61779  1.0000
  F   F159      1.0  0.87885  0.85571  0.12428  1.0000
  F   F160      1.0  0.87280  0.87350  0.61406  1.0000
  F   F161      1.0  0.18249  0.24497  0.36080  1.0000
  F   F162      1.0  0.18005  0.23957  0.87620  1.0000
  F   F163      1.0  0.18442  0.75021  0.36053  1.0000
  F   F164      1.0  0.19451  0.75613  0.84712  1.0000
  F   F165      1.0  0.43666  0.25303  0.34637  1.0000
  F   F166      1.0  0.42580  0.24201  0.88611  1.0000
  F   F167      1.0  0.42635  0.75088  0.37290  1.0000
  F   F168      1.0  0.43530  0.74980  0.84121  1.0000
  F   F169      1.0  0.69272  0.25059  0.33778  1.0000
  F   F170      1.0  0.68737  0.25731  0.84932  1.0000
  F   F171      1.0  0.68666  0.74798  0.34335  1.0000
  F   F172      1.0  0.68985  0.74944  0.85388  1.0000
  F   F173      1.0  0.92388  0.23322  0.39000  1.0000
  F   F174      1.0  0.93183  0.25176  0.85919  1.0000
  F   F175      1.0  0.93294  0.73747  0.37370  1.0000
  F   F176      1.0  0.93809  0.74074  0.85623  1.0000
  F   F177      1.0  0.12086  0.12179  0.40707  1.0000
  F   F178      1.0  0.12441  0.13147  0.88213  1.0000
  F   F179      1.0  0.12487  0.62408  0.39227  1.0000
  F   F180      1.0  0.12897  0.63172  0.88515  1.0000
  F   F181      1.0  0.37439  0.12880  0.38456  1.0000
  F   F182      1.0  0.37295  0.12627  0.89819  1.0000
  F   F183      1.0  0.37365  0.63200  0.39147  1.0000
  F   F184      1.0  0.37689  0.62841  0.88491  1.0000
  F   F185      1.0  0.61823  0.13946  0.38090  1.0000
  F   F186      1.0  0.62377  0.12993  0.90206  1.0000
  F   F187      1.0  0.62337  0.61068  0.40524  1.0000
  F   F188      1.0  0.62875  0.65355  0.87086  1.0000
  F   F189      1.0  0.87738  0.13884  0.38842  1.0000
  F   F190      1.0  0.87846  0.12476  0.88892  1.0000
  F   F191      1.0  0.87240  0.61087  0.40631  1.0000
  F   F192      1.0  0.88082  0.65022  0.86898  1.0000
  F   F193      1.0  0.00816  0.37021  0.07543  1.0000
  F   F194      1.0  0.01102  0.37735  0.55775  1.0000
  F   F195      1.0  0.01315  0.84622  0.05896  1.0000
  F   F196      1.0  0.00467  0.86205  0.58402  1.0000
  F   F197      1.0  0.25192  0.35966  0.08191  1.0000
  F   F198      1.0  0.26289  0.35788  0.56952  1.0000
  F   F199      1.0  0.25789  0.87129  0.05794  1.0000
  F   F200      1.0  0.26223  0.87765  0.55131  1.0000
  F   F201      1.0  0.50751  0.36038  0.07068  1.0000
  F   F202      1.0  0.50208  0.35390  0.59047  1.0000
  F   F203      1.0  0.51249  0.85808  0.06856  1.0000
  F   F204      1.0  0.51150  0.85896  0.57501  1.0000
  F   F205      1.0  0.76047  0.36384  0.06200  1.0000
  F   F206      1.0  0.75609  0.36637  0.56294  1.0000
  F   F207      1.0  0.75118  0.87638  0.06481  1.0000
  F   F208      1.0  0.75717  0.86765  0.57849  1.0000
  F   F209      1.0  0.06719  0.48127  0.19993  1.0000
  F   F210      1.0  0.07162  0.48214  0.68016  1.0000
  F   F211      1.0  0.06374  0.99413  0.19114  1.0000
  F   F212      1.0  0.07088  0.97728  0.68017  1.0000
  F   F213      1.0  0.31692  0.48426  0.18190  1.0000
  F   F214      1.0  0.32141  0.49412  0.67673  1.0000
  F   F215      1.0  0.31804  0.97878  0.18182  1.0000
  F   F216      1.0  0.31843  0.97706  0.68850  1.0000
  F   F217      1.0  0.56733  0.49062  0.16641  1.0000
  F   F218      1.0  0.57553  0.47704  0.67607  1.0000
  F   F219      1.0  0.56145  0.98922  0.18273  1.0000
  F   F220      1.0  0.56446  0.99491  0.67398  1.0000
  F   F221      1.0  0.82144  0.48149  0.17701  1.0000
  F   F222      1.0  0.81580  0.46485  0.70014  1.0000
  F   F223      1.0  0.81551  0.98259  0.17210  1.0000
  F   F224      1.0  0.81048  0.98942  0.68133  1.0000
  F   F225      1.0  0.23970  0.12342  0.43879  1.0000
  F   F226      1.0  0.24457  0.13592  0.91171  1.0000
  F   F227      1.0  0.24375  0.64492  0.42195  1.0000
  F   F228      1.0  0.24061  0.62304  0.94015  1.0000
  F   F229      1.0  0.49228  0.11973  0.42474  1.0000
  F   F230      1.0  0.49366  0.12827  0.93107  1.0000
  F   F231      1.0  0.49585  0.64559  0.40309  1.0000
  F   F232      1.0  0.49001  0.64437  0.92426  1.0000
  F   F233      1.0  0.74283  0.12815  0.43565  1.0000
  F   F234      1.0  0.74225  0.14359  0.92446  1.0000
  F   F235      1.0  0.74581  0.63884  0.40558  1.0000
  F   F236      1.0  0.74483  0.62745  0.93522  1.0000
  F   F237      1.0  0.99299  0.13758  0.43961  1.0000
  F   F238      1.0  0.99531  0.13056  0.92370  1.0000
  F   F239      1.0  0.99097  0.63411  0.43649  1.0000
  F   F240      1.0  0.99564  0.62144  0.93113  1.0000
  F   F241      1.0  0.17534  0.01794  0.33481  1.0000
  F   F242      1.0  0.18722  0.00852  0.82184  1.0000
  F   F243      1.0  0.18271  0.51696  0.32043  1.0000
  F   F244      1.0  0.17471  0.50949  0.83082  1.0000
  F   F245      1.0  0.43306  0.02018  0.30516  1.0000
  F   F246      1.0  0.43661  0.00746  0.82775  1.0000
  F   F247      1.0  0.43342  0.52484  0.31295  1.0000
  F   F248      1.0  0.43141  0.52280  0.80257  1.0000
  F   F249      1.0  0.68092  0.01862  0.32517  1.0000
  F   F250      1.0  0.68593  0.02978  0.80628  1.0000
  F   F251      1.0  0.68392  0.51922  0.31826  1.0000
  F   F252      1.0  0.67298  0.52109  0.83211  1.0000
  F   F253      1.0  0.93005  0.01513  0.32010  1.0000
  F   F254      1.0  0.92929  0.00963  0.82059  1.0000
  F   F255      1.0  0.93503  0.50402  0.32107  1.0000
  F   F256      1.0  0.93357  0.50331  0.83807  1.0000
  F   F257      1.0  0.00231  0.24308  0.00077  1.0000
  F   F258      1.0  0.00307  0.26255  0.49483  1.0000
  F   F259      1.0  0.99116  0.72560  0.01649  1.0000
  F   F260      1.0  0.00216  0.74768  0.49653  1.0000
  F   F261      1.0  0.25425  0.25651  0.98751  1.0000
  F   F262      1.0  0.24717  0.24684  0.50754  1.0000
  F   F263      1.0  0.24594  0.75822  0.98828  1.0000
  F   F264      1.0  0.24802  0.75675  0.49513  1.0000
  F   F265      1.0  0.49641  0.25219  0.98833  1.0000
  F   F266      1.0  0.50241  0.25206  0.48930  1.0000
  F   F267      1.0  0.49957  0.74336  0.99965  1.0000
  F   F268      1.0  0.50175  0.74712  0.49079  1.0000
  F   F269      1.0  0.74964  0.25569  0.98750  1.0000
  F   F270      1.0  0.74583  0.24384  0.50499  1.0000
  F   F271      1.0  0.75553  0.75253  0.99075  1.0000
  F   F272      1.0  0.75477  0.75875  0.49285  1.0000
  F   F273      1.0  0.12667  0.99942  0.25213  1.0000
  F   F274      1.0  0.12816  0.01405  0.74427  1.0000
  F   F275      1.0  0.13184  0.51037  0.25302  1.0000
  F   F276      1.0  0.13525  0.49989  0.72741  1.0000
  F   F277      1.0  0.37029  0.99860  0.25669  1.0000
  F   F278      1.0  0.37921  0.00771  0.75410  1.0000
  F   F279      1.0  0.37702  0.50487  0.24566  1.0000
  F   F280      1.0  0.37476  0.49956  0.74933  1.0000
  F   F281      1.0  0.62271  0.99415  0.25601  1.0000
  F   F282      1.0  0.62802  0.00298  0.73151  1.0000
  F   F283      1.0  0.62532  0.49893  0.24574  1.0000
  F   F284      1.0  0.63115  0.50703  0.72921  1.0000
  F   F285      1.0  0.85960  0.98151  0.27057  1.0000
  F   F286      1.0  0.86857  0.98800  0.76460  1.0000
  F   F287      1.0  0.86551  0.48890  0.27072  1.0000
  F   F288      1.0  0.88431  0.50401  0.74459  1.0000
  F   F289      1.0  0.03769  0.03734  0.04014  1.0000
  F   F290      1.0  0.04151  0.03040  0.53030  1.0000
  F   F291      1.0  0.04303  0.53048  0.02862  1.0000
  F   F292      1.0  0.03699  0.53706  0.53946  1.0000
  F   F293      1.0  0.30010  0.03479  0.01222  1.0000
  F   F294      1.0  0.29427  0.03026  0.52700  1.0000
  F   F295      1.0  0.29402  0.52824  0.03410  1.0000
  F   F296      1.0  0.29039  0.53691  0.53608  1.0000
  F   F297      1.0  0.54770  0.02620  0.01289  1.0000
  F   F298      1.0  0.55006  0.03017  0.50777  1.0000
  F   F299      1.0  0.54660  0.53295  0.00972  1.0000
  F   F300      1.0  0.53319  0.52908  0.53209  1.0000
  F   F301      1.0  0.79863  0.02514  0.00380  1.0000
  F   F302      1.0  0.79361  0.03512  0.53266  1.0000
  F   F303      1.0  0.79724  0.52951  0.03296  1.0000
  F   F304      1.0  0.78320  0.52775  0.53439  1.0000
  F   F305      1.0  0.22763  0.41489  0.22929  1.0000
  F   F306      1.0  0.23750  0.40225  0.72175  1.0000
  F   F307      1.0  0.23246  0.91789  0.20936  1.0000
  F   F308      1.0  0.23583  0.90430  0.74058  1.0000
  F   F309      1.0  0.49027  0.42743  0.21002  1.0000
  F   F310      1.0  0.48399  0.41466  0.73111  1.0000
  F   F311      1.0  0.48977  0.92212  0.21199  1.0000
  F   F312      1.0  0.48633  0.91048  0.72359  1.0000
  F   F313      1.0  0.73597  0.41165  0.22446  1.0000
  F   F314      1.0  0.73094  0.43232  0.71899  1.0000
  F   F315      1.0  0.73092  0.92170  0.21015  1.0000
  F   F316      1.0  0.72885  0.92615  0.73055  1.0000
  F   F317      1.0  0.98107  0.39606  0.24828  1.0000
  F   F318      1.0  0.98495  0.41574  0.73146  1.0000
  F   F319      1.0  0.99391  0.88445  0.23986  1.0000
  F   F320      1.0  0.98346  0.89820  0.74062  1.0000
  F   F321      1.0  0.20647  0.46492  0.48549  1.0000
  F   F322      1.0  0.20429  0.48172  0.97357  1.0000
  F   F323      1.0  0.20378  0.96355  0.49386  1.0000
  F   F324      1.0  0.21301  0.97507  0.96220  1.0000
  F   F325      1.0  0.45578  0.46586  0.47954  1.0000
  F   F326      1.0  0.45539  0.48146  0.97283  1.0000
  F   F327      1.0  0.44793  0.97038  0.48577  1.0000
  F   F328      1.0  0.46188  0.96213  0.97405  1.0000
  F   F329      1.0  0.70518  0.47368  0.48351  1.0000
  F   F330      1.0  0.71096  0.47462  0.96479  1.0000
  F   F331      1.0  0.70996  0.96220  0.47804  1.0000
  F   F332      1.0  0.70358  0.97540  0.96264  1.0000
  F   F333      1.0  0.96456  0.47073  0.46214  1.0000
  F   F334      1.0  0.96159  0.46480  0.98130  1.0000
  F   F335      1.0  0.96221  0.96355  0.47307  1.0000
  F   F336      1.0  0.95198  0.96935  0.96823  1.0000
  F   F337      1.0  0.01181  0.08758  0.28088  1.0000
  F   F338      1.0  0.01413  0.06724  0.78069  1.0000
  F   F339      1.0  0.01254  0.60516  0.26057  1.0000
  F   F340      1.0  0.02014  0.58645  0.77199  1.0000
  F   F341      1.0  0.26394  0.08006  0.27911  1.0000
  F   F342      1.0  0.26811  0.08083  0.77718  1.0000
  F   F343      1.0  0.26513  0.58143  0.27058  1.0000
  F   F344      1.0  0.26338  0.57482  0.77688  1.0000
  F   F345      1.0  0.51396  0.11395  0.24692  1.0000
  F   F346      1.0  0.51094  0.09786  0.77216  1.0000
  F   F347      1.0  0.51744  0.56105  0.28361  1.0000
  F   F348      1.0  0.51449  0.58545  0.77794  1.0000
  F   F349      1.0  0.76524  0.07979  0.27757  1.0000
  F   F350      1.0  0.76637  0.10195  0.76912  1.0000
  F   F351      1.0  0.76445  0.58547  0.27696  1.0000
  F   F352      1.0  0.76681  0.58882  0.76997  1.0000
  F   F353      1.0  0.10422  0.42893  0.45653  1.0000
  F   F354      1.0  0.10192  0.39123  0.95970  1.0000
  F   F355      1.0  0.09879  0.89447  0.47294  1.0000
  F   F356      1.0  0.10050  0.93676  0.95749  1.0000
  F   F357      1.0  0.35173  0.41774  0.45590  1.0000
  F   F358      1.0  0.34627  0.40335  0.97314  1.0000
  F   F359      1.0  0.35452  0.90608  0.46434  1.0000
  F   F360      1.0  0.35503  0.90506  0.96281  1.0000
  F   F361      1.0  0.60330  0.42206  0.45983  1.0000
  F   F362      1.0  0.59821  0.41054  0.94702  1.0000
  F   F363      1.0  0.60059  0.90428  0.45688  1.0000
  F   F364      1.0  0.60505  0.91994  0.95207  1.0000
  F   F365      1.0  0.84425  0.39409  0.48166  1.0000
  F   F366      1.0  0.84951  0.39950  0.96795  1.0000
  F   F367      1.0  0.85361  0.90917  0.45908  1.0000
  F   F368      1.0  0.85228  0.89167  0.97972  1.0000
  F   F369      1.0  0.05366  0.29940  0.28884  1.0000
  F   F370      1.0  0.04006  0.29866  0.78842  1.0000
  F   F371      1.0  0.05873  0.79401  0.28532  1.0000
  F   F372      1.0  0.04415  0.79947  0.80481  1.0000
  F   F373      1.0  0.28562  0.29491  0.30451  1.0000
  F   F374      1.0  0.29454  0.30224  0.77957  1.0000
  F   F375      1.0  0.30065  0.79682  0.27885  1.0000
  F   F376      1.0  0.29973  0.78652  0.79163  1.0000
  F   F377      1.0  0.54716  0.30448  0.28024  1.0000
  F   F378      1.0  0.54172  0.29109  0.78591  1.0000
  F   F379      1.0  0.55370  0.80135  0.28195  1.0000
  F   F380      1.0  0.54336  0.79579  0.77829  1.0000
  F   F381      1.0  0.79087  0.30663  0.28277  1.0000
  F   F382      1.0  0.79469  0.29974  0.78520  1.0000
  F   F383      1.0  0.79549  0.80158  0.29239  1.0000
  F   F384      1.0  0.79899  0.79700  0.77764  1.0000
