data_image0
_chemical_formula_structural       Hf96F384
_chemical_formula_sum              "Hf96 F384"
_cell_length_a       31.0129
_cell_length_b       15.5026
_cell_length_c       15.4969
_cell_angle_alpha    63.342
_cell_angle_beta     63.342
_cell_angle_gamma    80.1625

_space_group_name_H-M_alt    "P 1"
_space_group_IT_number       1

loop_
  _space_group_symop_operation_xyz
  'x, y, z'

loop_
  _atom_site_type_symbol
  _atom_site_label
  _atom_site_symmetry_multiplicity
  _atom_site_fract_x
  _atom_site_fract_y
  _atom_site_fract_z
  _atom_site_occupancy
  Hf  Hf1       1.0  0.19553  0.11144  0.37913  1.0000
  Hf  Hf2       1.0  0.19930  0.11045  0.87165  1.0000
  Hf  Hf3       1.0  0.19586  0.60882  0.37233  1.0000
  Hf  Hf4       1.0  0.19648  0.60813  0.86599  1.0000
  Hf  Hf5       1.0  0.44261  0.10355  0.38049  1.0000
  Hf  Hf6       1.0  0.44436  0.10200  0.88208  1.0000
  Hf  Hf7       1.0  0.44889  0.61179  0.37033  1.0000
  Hf  Hf8       1.0  0.44097  0.60513  0.88263  1.0000
  Hf  Hf9       1.0  0.69553  0.10008  0.37572  1.0000
  Hf  Hf10      1.0  0.69538  0.10031  0.87458  1.0000
  Hf  Hf11      1.0  0.69750  0.60960  0.37077  1.0000
  Hf  Hf12      1.0  0.69782  0.60898  0.86599  1.0000
  Hf  Hf13      1.0  0.94432  0.11054  0.37595  1.0000
  Hf  Hf14      1.0  0.94399  0.10052  0.88305  1.0000
  Hf  Hf15      1.0  0.94816  0.60961  0.36670  1.0000
  Hf  Hf16      1.0  0.94683  0.61119  0.87703  1.0000
  Hf  Hf17      1.0  0.05234  0.39059  0.12763  1.0000
  Hf  Hf18      1.0  0.05265  0.39407  0.63288  1.0000
  Hf  Hf19      1.0  0.05750  0.89753  0.11810  1.0000
  Hf  Hf20      1.0  0.05352  0.89130  0.62436  1.0000
  Hf  Hf21      1.0  0.30254  0.39057  0.12691  1.0000
  Hf  Hf22      1.0  0.30209  0.39319  0.62841  1.0000
  Hf  Hf23      1.0  0.30655  0.89229  0.12609  1.0000
  Hf  Hf24      1.0  0.30330  0.89566  0.62575  1.0000
  Hf  Hf25      1.0  0.55061  0.38905  0.12217  1.0000
  Hf  Hf26      1.0  0.55720  0.39271  0.62040  1.0000
  Hf  Hf27      1.0  0.55073  0.88719  0.13033  1.0000
  Hf  Hf28      1.0  0.55086  0.89444  0.62806  1.0000
  Hf  Hf29      1.0  0.80620  0.39693  0.12324  1.0000
  Hf  Hf30      1.0  0.80701  0.39165  0.62037  1.0000
  Hf  Hf31      1.0  0.80361  0.89314  0.12309  1.0000
  Hf  Hf32      1.0  0.80162  0.88975  0.62942  1.0000
  Hf  Hf33      1.0  0.05469  0.18611  0.42309  1.0000
  Hf  Hf34      1.0  0.05594  0.18006  0.91232  1.0000
  Hf  Hf35      1.0  0.05653  0.69557  0.40564  1.0000
  Hf  Hf36      1.0  0.05462  0.68162  0.92154  1.0000
  Hf  Hf37      1.0  0.30418  0.18698  0.42453  1.0000
  Hf  Hf38      1.0  0.30865  0.18244  0.91872  1.0000
  Hf  Hf39      1.0  0.30457  0.67899  0.42159  1.0000
  Hf  Hf40      1.0  0.30413  0.67955  0.92088  1.0000
  Hf  Hf41      1.0  0.55764  0.18994  0.40556  1.0000
  Hf  Hf42      1.0  0.55724  0.18116  0.91372  1.0000
  Hf  Hf43      1.0  0.55936  0.68307  0.41291  1.0000
  Hf  Hf44      1.0  0.55677  0.68357  0.91512  1.0000
  Hf  Hf45      1.0  0.80642  0.18112  0.41619  1.0000
  Hf  Hf46      1.0  0.80477  0.18589  0.91181  1.0000
  Hf  Hf47      1.0  0.80640  0.68312  0.41857  1.0000
  Hf  Hf48      1.0  0.80324  0.68533  0.91492  1.0000
  Hf  Hf49      1.0  0.15974  0.39143  0.33278  1.0000
  Hf  Hf50      1.0  0.15843  0.38330  0.84149  1.0000
  Hf  Hf51      1.0  0.15978  0.89057  0.32681  1.0000
  Hf  Hf52      1.0  0.15939  0.89311  0.82909  1.0000
  Hf  Hf53      1.0  0.41098  0.39204  0.32618  1.0000
  Hf  Hf54      1.0  0.41211  0.38625  0.82796  1.0000
  Hf  Hf55      1.0  0.40765  0.88808  0.33846  1.0000
  Hf  Hf56      1.0  0.40562  0.88223  0.84079  1.0000
  Hf  Hf57      1.0  0.66599  0.39237  0.32905  1.0000
  Hf  Hf58      1.0  0.65546  0.38257  0.84073  1.0000
  Hf  Hf59      1.0  0.65745  0.88292  0.33483  1.0000
  Hf  Hf60      1.0  0.65982  0.88886  0.83104  1.0000
  Hf  Hf61      1.0  0.90809  0.39310  0.33135  1.0000
  Hf  Hf62      1.0  0.90631  0.38990  0.83703  1.0000
  Hf  Hf63      1.0  0.90919  0.88351  0.33988  1.0000
  Hf  Hf64      1.0  0.91151  0.88837  0.82911  1.0000
  Hf  Hf65      1.0  0.19340  0.31863  0.08706  1.0000
  Hf  Hf66      1.0  0.19070  0.32073  0.59709  1.0000
  Hf  Hf67      1.0  0.19652  0.82330  0.07979  1.0000
  Hf  Hf68      1.0  0.19347  0.82175  0.57609  1.0000
  Hf  Hf69      1.0  0.44629  0.31467  0.08082  1.0000
  Hf  Hf70      1.0  0.44546  0.31511  0.58058  1.0000
  Hf  Hf71      1.0  0.44519  0.81591  0.08397  1.0000
  Hf  Hf72      1.0  0.44262  0.81040  0.58653  1.0000
  Hf  Hf73      1.0  0.69537  0.32853  0.07762  1.0000
  Hf  Hf74      1.0  0.69456  0.31260  0.58759  1.0000
  Hf  Hf75      1.0  0.69194  0.81566  0.08131  1.0000
  Hf  Hf76      1.0  0.69475  0.82186  0.57612  1.0000
  Hf  Hf77      1.0  0.94527  0.30891  0.08594  1.0000
  Hf  Hf78      1.0  0.94233  0.31690  0.59142  1.0000
  Hf  Hf79      1.0  0.94532  0.82063  0.07769  1.0000
  Hf  Hf80      1.0  0.94539  0.81029  0.58491  1.0000
  Hf  Hf81      1.0  0.09119  0.11299  0.16452  1.0000
  Hf  Hf82      1.0  0.09127  0.10974  0.67612  1.0000
  Hf  Hf83      1.0  0.09415  0.61854  0.15754  1.0000
  Hf  Hf84      1.0  0.09154  0.61493  0.66431  1.0000
  Hf  Hf85      1.0  0.34077  0.10802  0.17184  1.0000
  Hf  Hf86      1.0  0.34124  0.10712  0.67231  1.0000
  Hf  Hf87      1.0  0.33909  0.60753  0.16999  1.0000
  Hf  Hf88      1.0  0.34225  0.60845  0.66767  1.0000
  Hf  Hf89      1.0  0.58850  0.10344  0.17077  1.0000
  Hf  Hf90      1.0  0.59036  0.11069  0.66348  1.0000
  Hf  Hf91      1.0  0.58898  0.60543  0.16891  1.0000
  Hf  Hf92      1.0  0.58818  0.61046  0.67365  1.0000
  Hf  Hf93      1.0  0.84230  0.11242  0.16204  1.0000
  Hf  Hf94      1.0  0.83904  0.11008  0.66971  1.0000
  Hf  Hf95      1.0  0.84175  0.61602  0.16616  1.0000
  Hf  Hf96      1.0  0.84237  0.60678  0.67106  1.0000
  F   F1        1.0  0.08285  0.14456  0.29794  1.0000
  F   F2        1.0  0.07363  0.10855  0.81553  1.0000
  F   F3        1.0  0.07986  0.64563  0.28686  1.0000
  F   F4        1.0  0.08129  0.63150  0.80527  1.0000
  F   F5        1.0  0.32496  0.12707  0.31448  1.0000
  F   F6        1.0  0.32998  0.13565  0.79940  1.0000
  F   F7        1.0  0.32749  0.61835  0.31242  1.0000
  F   F8        1.0  0.32979  0.61766  0.80853  1.0000
  F   F9        1.0  0.57884  0.12506  0.30056  1.0000
  F   F10       1.0  0.57645  0.11800  0.80754  1.0000
  F   F11       1.0  0.57838  0.63899  0.29930  1.0000
  F   F12       1.0  0.58302  0.64428  0.78941  1.0000
  F   F13       1.0  0.82699  0.11559  0.30438  1.0000
  F   F14       1.0  0.83048  0.12358  0.80127  1.0000
  F   F15       1.0  0.83416  0.62670  0.30047  1.0000
  F   F16       1.0  0.83003  0.63473  0.80258  1.0000
  F   F17       1.0  0.17828  0.33649  0.46039  1.0000
  F   F18       1.0  0.18935  0.34180  0.94502  1.0000
  F   F19       1.0  0.19210  0.85350  0.43809  1.0000
  F   F20       1.0  0.18807  0.83435  0.94183  1.0000
  F   F21       1.0  0.44021  0.34622  0.44510  1.0000
  F   F22       1.0  0.44129  0.35168  0.93459  1.0000
  F   F23       1.0  0.43468  0.84214  0.44845  1.0000
  F   F24       1.0  0.43509  0.83078  0.94699  1.0000
  F   F25       1.0  0.68774  0.34213  0.45110  1.0000
  F   F26       1.0  0.68544  0.35360  0.93852  1.0000
  F   F27       1.0  0.68791  0.83364  0.44238  1.0000
  F   F28       1.0  0.69143  0.85461  0.92861  1.0000
  F   F29       1.0  0.94352  0.34985  0.43449  1.0000
  F   F30       1.0  0.93149  0.33565  0.94977  1.0000
  F   F31       1.0  0.93978  0.83657  0.43861  1.0000
  F   F32       1.0  0.94074  0.84795  0.93159  1.0000
  F   F33       1.0  0.16671  0.37188  0.20049  1.0000
  F   F34       1.0  0.16927  0.36425  0.71010  1.0000
  F   F35       1.0  0.17582  0.90500  0.17996  1.0000
  F   F36       1.0  0.16406  0.87159  0.69524  1.0000
  F   F37       1.0  0.42529  0.38293  0.18619  1.0000
  F   F38       1.0  0.43042  0.36135  0.69977  1.0000
  F   F39       1.0  0.41827  0.86706  0.20095  1.0000
  F   F40       1.0  0.41238  0.85861  0.71009  1.0000
  F   F41       1.0  0.67659  0.38500  0.18712  1.0000
  F   F42       1.0  0.67130  0.36908  0.69626  1.0000
  F   F43       1.0  0.66510  0.85765  0.20712  1.0000
  F   F44       1.0  0.66625  0.87018  0.69389  1.0000
  F   F45       1.0  0.92154  0.38666  0.18679  1.0000
  F   F46       1.0  0.91811  0.38198  0.69900  1.0000
  F   F47       1.0  0.91682  0.85763  0.19670  1.0000
  F   F48       1.0  0.92134  0.87689  0.69434  1.0000
  F   F49       1.0  0.06405  0.15720  0.05194  1.0000
  F   F50       1.0  0.05601  0.15377  0.56970  1.0000
  F   F51       1.0  0.05911  0.65270  0.06067  1.0000
  F   F52       1.0  0.06764  0.66418  0.54933  1.0000
  F   F53       1.0  0.31625  0.16160  0.05311  1.0000
  F   F54       1.0  0.30955  0.15288  0.56874  1.0000
  F   F55       1.0  0.30677  0.64812  0.07076  1.0000
  F   F56       1.0  0.31681  0.65292  0.55358  1.0000
  F   F57       1.0  0.57051  0.16217  0.04477  1.0000
  F   F58       1.0  0.56761  0.16082  0.54216  1.0000
  F   F59       1.0  0.56483  0.65263  0.05512  1.0000
  F   F60       1.0  0.57122  0.66834  0.54345  1.0000
  F   F61       1.0  0.81100  0.16221  0.04712  1.0000
  F   F62       1.0  0.81926  0.16586  0.53994  1.0000
  F   F63       1.0  0.81717  0.66632  0.04355  1.0000
  F   F64       1.0  0.80741  0.65349  0.56347  1.0000
  F   F65       1.0  0.19580  0.20359  0.22191  1.0000
  F   F66       1.0  0.21303  0.20876  0.71322  1.0000
  F   F67       1.0  0.20516  0.70363  0.22274  1.0000
  F   F68       1.0  0.20381  0.70705  0.70083  1.0000
  F   F69       1.0  0.45363  0.19944  0.21490  1.0000
  F   F70       1.0  0.45219  0.19530  0.70605  1.0000
  F   F71       1.0  0.46431  0.70669  0.21158  1.0000
  F   F72       1.0  0.44661  0.69515  0.71981  1.0000
  F   F73       1.0  0.70237  0.20536  0.19575  1.0000
  F   F74       1.0  0.71236  0.19852  0.69947  1.0000
  F   F75       1.0  0.70268  0.69964  0.21485  1.0000
  F   F76       1.0  0.70635  0.70675  0.70934  1.0000
  F   F77       1.0  0.95734  0.19802  0.20621  1.0000
  F   F78       1.0  0.95351  0.21044  0.71341  1.0000
  F   F79       1.0  0.95408  0.69984  0.20177  1.0000
  F   F80       1.0  0.96202  0.70660  0.70136  1.0000
  F   F81       1.0  0.14951  0.09200  0.03148  1.0000
  F   F82       1.0  0.14888  0.09814  0.54267  1.0000
  F   F83       1.0  0.15011  0.61724  0.02477  1.0000
  F   F84       1.0  0.14822  0.57927  0.53901  1.0000
  F   F85       1.0  0.39586  0.07381  0.04710  1.0000
  F   F86       1.0  0.39552  0.08763  0.54124  1.0000
  F   F87       1.0  0.40060  0.60261  0.03513  1.0000
  F   F88       1.0  0.39761  0.59671  0.54155  1.0000
  F   F89       1.0  0.64671  0.07661  0.03252  1.0000
  F   F90       1.0  0.65087  0.08673  0.53551  1.0000
  F   F91       1.0  0.64455  0.57613  0.05012  1.0000
  F   F92       1.0  0.65092  0.60475  0.52564  1.0000
  F   F93       1.0  0.90302  0.07754  0.03640  1.0000
  F   F94       1.0  0.89627  0.08505  0.53269  1.0000
  F   F95       1.0  0.89861  0.58831  0.04340  1.0000
  F   F96       1.0  0.89484  0.60173  0.53648  1.0000
  F   F97       1.0  0.14745  0.18838  0.12340  1.0000
  F   F98       1.0  0.14687  0.19678  0.66060  1.0000
  F   F99       1.0  0.15492  0.69525  0.14179  1.0000
  F   F100      1.0  0.15035  0.70660  0.61123  1.0000
  F   F101      1.0  0.40945  0.18500  0.10739  1.0000
  F   F102      1.0  0.40168  0.19108  0.62072  1.0000
  F   F103      1.0  0.39733  0.70312  0.14151  1.0000
  F   F104      1.0  0.40106  0.69828  0.63028  1.0000
  F   F105      1.0  0.64703  0.19823  0.10190  1.0000
  F   F106      1.0  0.64944  0.20227  0.62950  1.0000
  F   F107      1.0  0.64727  0.70705  0.11841  1.0000
  F   F108      1.0  0.65223  0.70045  0.63012  1.0000
  F   F109      1.0  0.90825  0.18286  0.12585  1.0000
  F   F110      1.0  0.90385  0.20356  0.62108  1.0000
  F   F111      1.0  0.90004  0.70445  0.12191  1.0000
  F   F112      1.0  0.90589  0.69579  0.61259  1.0000
  F   F113      1.0  0.09618  0.30655  0.38575  1.0000
  F   F114      1.0  0.09693  0.30231  0.88520  1.0000
  F   F115      1.0  0.09789  0.81127  0.35497  1.0000
  F   F116      1.0  0.10001  0.80162  0.88917  1.0000
  F   F117      1.0  0.34519  0.31129  0.37927  1.0000
  F   F118      1.0  0.35210  0.30053  0.87009  1.0000
  F   F119      1.0  0.35037  0.79865  0.38373  1.0000
  F   F120      1.0  0.34449  0.79002  0.90535  1.0000
  F   F121      1.0  0.60497  0.30524  0.35897  1.0000
  F   F122      1.0  0.59191  0.31264  0.87922  1.0000
  F   F123      1.0  0.59256  0.80425  0.37433  1.0000
  F   F124      1.0  0.60088  0.79148  0.87092  1.0000
  F   F125      1.0  0.84815  0.31168  0.37000  1.0000
  F   F126      1.0  0.83969  0.32558  0.87420  1.0000
  F   F127      1.0  0.85157  0.80005  0.38053  1.0000
  F   F128      1.0  0.84804  0.80097  0.85819  1.0000
  F   F129      1.0  0.05839  0.25119  0.15409  1.0000
  F   F130      1.0  0.06563  0.26054  0.63571  1.0000
  F   F131      1.0  0.07740  0.75837  0.11508  1.0000
  F   F132      1.0  0.06098  0.74521  0.65068  1.0000
  F   F133      1.0  0.30976  0.24569  0.15571  1.0000
  F   F134      1.0  0.31270  0.25316  0.65301  1.0000
  F   F135      1.0  0.31761  0.74624  0.14968  1.0000
  F   F136      1.0  0.31134  0.74900  0.64743  1.0000
  F   F137      1.0  0.56205  0.24680  0.13740  1.0000
  F   F138      1.0  0.56432  0.24944  0.63926  1.0000
  F   F139      1.0  0.56050  0.74404  0.14740  1.0000
  F   F140      1.0  0.55849  0.75450  0.64080  1.0000
  F   F141      1.0  0.82251  0.25448  0.13680  1.0000
  F   F142      1.0  0.81744  0.25485  0.63111  1.0000
  F   F143      1.0  0.81080  0.75163  0.15366  1.0000
  F   F144      1.0  0.80823  0.75038  0.65125  1.0000
  F   F145      1.0  0.12508  0.34969  0.12191  1.0000
  F   F146      1.0  0.12488  0.37891  0.61360  1.0000
  F   F147      1.0  0.12457  0.86794  0.12077  1.0000
  F   F148      1.0  0.12327  0.88656  0.58446  1.0000
  F   F149      1.0  0.37816  0.35849  0.11319  1.0000
  F   F150      1.0  0.37541  0.36925  0.61523  1.0000
  F   F151      1.0  0.37538  0.87466  0.11154  1.0000
  F   F152      1.0  0.37563  0.87777  0.60774  1.0000
  F   F153      1.0  0.62459  0.37352  0.10599  1.0000
  F   F154      1.0  0.62477  0.37713  0.61543  1.0000
  F   F155      1.0  0.62216  0.87624  0.09764  1.0000
  F   F156      1.0  0.62066  0.89043  0.59125  1.0000
  F   F157      1.0  0.87680  0.36282  0.11329  1.0000
  F   F158      1.0  0.87985  0.38119  0.59911  1.0000
  F   F159      1.0  0.87781  0.87799  0.09137  1.0000
  F   F160      1.0  0.87441  0.85619  0.62216  1.0000
  F   F161      1.0  0.18846  0.25486  0.36195  1.0000
  F   F162      1.0  0.18283  0.24797  0.86839  1.0000
  F   F163      1.0  0.17570  0.75487  0.37035  1.0000
  F   F164      1.0  0.19145  0.74848  0.84555  1.0000
  F   F165      1.0  0.42860  0.24806  0.37390  1.0000
  F   F166      1.0  0.43441  0.24083  0.86642  1.0000
  F   F167      1.0  0.43359  0.74795  0.36483  1.0000
  F   F168      1.0  0.43795  0.74614  0.84945  1.0000
  F   F169      1.0  0.69190  0.24861  0.34520  1.0000
  F   F170      1.0  0.67298  0.24081  0.88169  1.0000
  F   F171      1.0  0.68124  0.74872  0.35879  1.0000
  F   F172      1.0  0.68100  0.75231  0.86389  1.0000
  F   F173      1.0  0.93966  0.25611  0.35023  1.0000
  F   F174      1.0  0.92702  0.24330  0.86414  1.0000
  F   F175      1.0  0.93942  0.74809  0.34948  1.0000
  F   F176      1.0  0.93322  0.74672  0.86303  1.0000
  F   F177      1.0  0.12350  0.12018  0.41009  1.0000
  F   F178      1.0  0.13307  0.14814  0.86873  1.0000
  F   F179      1.0  0.12435  0.62549  0.39094  1.0000
  F   F180      1.0  0.12662  0.62370  0.89886  1.0000
  F   F181      1.0  0.37327  0.14130  0.40025  1.0000
  F   F182      1.0  0.37404  0.12954  0.89109  1.0000
  F   F183      1.0  0.37648  0.63363  0.38384  1.0000
  F   F184      1.0  0.37359  0.63320  0.89872  1.0000
  F   F185      1.0  0.62692  0.12181  0.39803  1.0000
  F   F186      1.0  0.63013  0.14453  0.86320  1.0000
  F   F187      1.0  0.62625  0.60243  0.39930  1.0000
  F   F188      1.0  0.62680  0.62936  0.88997  1.0000
  F   F189      1.0  0.88165  0.15958  0.35300  1.0000
  F   F190      1.0  0.87603  0.13722  0.88772  1.0000
  F   F191      1.0  0.87607  0.62948  0.39115  1.0000
  F   F192      1.0  0.87889  0.63900  0.87355  1.0000
  F   F193      1.0  0.00742  0.35487  0.06663  1.0000
  F   F194      1.0  0.00506  0.37889  0.56475  1.0000
  F   F195      1.0  0.01033  0.86691  0.07238  1.0000
  F   F196      1.0  0.00988  0.86598  0.56914  1.0000
  F   F197      1.0  0.25707  0.35096  0.07956  1.0000
  F   F198      1.0  0.26059  0.36026  0.57402  1.0000
  F   F199      1.0  0.25709  0.84832  0.08531  1.0000
  F   F200      1.0  0.25582  0.86294  0.57345  1.0000
  F   F201      1.0  0.50658  0.36904  0.06427  1.0000
  F   F202      1.0  0.50970  0.36602  0.56477  1.0000
  F   F203      1.0  0.50671  0.88083  0.05945  1.0000
  F   F204      1.0  0.49959  0.86651  0.58644  1.0000
  F   F205      1.0  0.75967  0.36644  0.07038  1.0000
  F   F206      1.0  0.76086  0.36635  0.56966  1.0000
  F   F207      1.0  0.75832  0.85886  0.06762  1.0000
  F   F208      1.0  0.75679  0.86791  0.57241  1.0000
  F   F209      1.0  0.07023  0.48192  0.17028  1.0000
  F   F210      1.0  0.06359  0.48364  0.68467  1.0000
  F   F211      1.0  0.06573  0.98262  0.17402  1.0000
  F   F212      1.0  0.07230  0.98083  0.67944  1.0000
  F   F213      1.0  0.32070  0.47268  0.17431  1.0000
  F   F214      1.0  0.31799  0.48773  0.66239  1.0000
  F   F215      1.0  0.32005  0.98667  0.18403  1.0000
  F   F216      1.0  0.31479  0.97524  0.69453  1.0000
  F   F217      1.0  0.56829  0.48007  0.18046  1.0000
  F   F218      1.0  0.56852  0.48394  0.68455  1.0000
  F   F219      1.0  0.56634  0.97174  0.18696  1.0000
  F   F220      1.0  0.56622  0.99362  0.67230  1.0000
  F   F221      1.0  0.82282  0.48664  0.16233  1.0000
  F   F222      1.0  0.82124  0.48250  0.67877  1.0000
  F   F223      1.0  0.81890  0.98413  0.17561  1.0000
  F   F224      1.0  0.81939  0.98369  0.67264  1.0000
  F   F225      1.0  0.24364  0.13857  0.42486  1.0000
  F   F226      1.0  0.24690  0.12935  0.92709  1.0000
  F   F227      1.0  0.24136  0.64974  0.41473  1.0000
  F   F228      1.0  0.24501  0.62895  0.91935  1.0000
  F   F229      1.0  0.49253  0.13781  0.41981  1.0000
  F   F230      1.0  0.49269  0.13346  0.92658  1.0000
  F   F231      1.0  0.49117  0.64342  0.42741  1.0000
  F   F232      1.0  0.49323  0.64390  0.91474  1.0000
  F   F233      1.0  0.74372  0.12740  0.42481  1.0000
  F   F234      1.0  0.74510  0.14148  0.91900  1.0000
  F   F235      1.0  0.74786  0.64608  0.41292  1.0000
  F   F236      1.0  0.73875  0.64237  0.92272  1.0000
  F   F237      1.0  0.99097  0.14210  0.42391  1.0000
  F   F238      1.0  0.99441  0.14949  0.91666  1.0000
  F   F239      1.0  0.99287  0.63830  0.41944  1.0000
  F   F240      1.0  0.99342  0.64213  0.92773  1.0000
  F   F241      1.0  0.18113  0.01858  0.32508  1.0000
  F   F242      1.0  0.18651  0.02748  0.80973  1.0000
  F   F243      1.0  0.18763  0.51339  0.32424  1.0000
  F   F244      1.0  0.18101  0.51410  0.82324  1.0000
  F   F245      1.0  0.42567  0.02255  0.32941  1.0000
  F   F246      1.0  0.42662  0.01211  0.83034  1.0000
  F   F247      1.0  0.43886  0.52295  0.30843  1.0000
  F   F248      1.0  0.42710  0.51824  0.82292  1.0000
  F   F249      1.0  0.68195  0.00953  0.32434  1.0000
  F   F250      1.0  0.67916  0.01671  0.81607  1.0000
  F   F251      1.0  0.69148  0.51289  0.31090  1.0000
  F   F252      1.0  0.68985  0.52149  0.80143  1.0000
  F   F253      1.0  0.92998  0.01929  0.33437  1.0000
  F   F254      1.0  0.93230  0.02197  0.81453  1.0000
  F   F255      1.0  0.93137  0.52463  0.30189  1.0000
  F   F256      1.0  0.93101  0.51246  0.82443  1.0000
  F   F257      1.0  0.00360  0.24226  0.00364  1.0000
  F   F258      1.0  0.99757  0.24947  0.50570  1.0000
  F   F259      1.0  0.00335  0.77175  0.98193  1.0000
  F   F260      1.0  0.00537  0.76301  0.49145  1.0000
  F   F261      1.0  0.24922  0.24332  0.00898  1.0000
  F   F262      1.0  0.24302  0.24406  0.50720  1.0000
  F   F263      1.0  0.24893  0.73993  0.00854  1.0000
  F   F264      1.0  0.24999  0.74625  0.50318  1.0000
  F   F265      1.0  0.50091  0.24766  0.99702  1.0000
  F   F266      1.0  0.50344  0.24052  0.49759  1.0000
  F   F267      1.0  0.50291  0.75293  0.99818  1.0000
  F   F268      1.0  0.50189  0.76460  0.49565  1.0000
  F   F269      1.0  0.74910  0.25989  0.99264  1.0000
  F   F270      1.0  0.74934  0.24366  0.50281  1.0000
  F   F271      1.0  0.74792  0.73827  0.00247  1.0000
  F   F272      1.0  0.74848  0.74668  0.50665  1.0000
  F   F273      1.0  0.10926  0.99665  0.26889  1.0000
  F   F274      1.0  0.12841  0.00519  0.74635  1.0000
  F   F275      1.0  0.12612  0.50903  0.24473  1.0000
  F   F276      1.0  0.11905  0.50003  0.75565  1.0000
  F   F277      1.0  0.37670  0.99854  0.25603  1.0000
  F   F278      1.0  0.36910  0.99085  0.76870  1.0000
  F   F279      1.0  0.37536  0.50046  0.23989  1.0000
  F   F280      1.0  0.37634  0.48945  0.74580  1.0000
  F   F281      1.0  0.62557  0.99577  0.24896  1.0000
  F   F282      1.0  0.62853  0.01049  0.73770  1.0000
  F   F283      1.0  0.62563  0.49964  0.25653  1.0000
  F   F284      1.0  0.62656  0.50768  0.75448  1.0000
  F   F285      1.0  0.87572  0.99277  0.24942  1.0000
  F   F286      1.0  0.87736  0.00280  0.74890  1.0000
  F   F287      1.0  0.86349  0.49065  0.26899  1.0000
  F   F288      1.0  0.87455  0.50761  0.75512  1.0000
  F   F289      1.0  0.04050  0.03778  0.02036  1.0000
  F   F290      1.0  0.04648  0.02560  0.51713  1.0000
  F   F291      1.0  0.04038  0.52722  0.02391  1.0000
  F   F292      1.0  0.04180  0.53591  0.52784  1.0000
  F   F293      1.0  0.29057  0.03124  0.03688  1.0000
  F   F294      1.0  0.29429  0.03244  0.52749  1.0000
  F   F295      1.0  0.28552  0.53098  0.03135  1.0000
  F   F296      1.0  0.28942  0.53114  0.51398  1.0000
  F   F297      1.0  0.54619  0.02977  0.02766  1.0000
  F   F298      1.0  0.53734  0.03690  0.53079  1.0000
  F   F299      1.0  0.54351  0.53256  0.00958  1.0000
  F   F300      1.0  0.54176  0.53807  0.53275  1.0000
  F   F301      1.0  0.79221  0.02849  0.02440  1.0000
  F   F302      1.0  0.80067  0.02853  0.51967  1.0000
  F   F303      1.0  0.79353  0.53610  0.02715  1.0000
  F   F304      1.0  0.79163  0.52427  0.52755  1.0000
  F   F305      1.0  0.23391  0.41949  0.22883  1.0000
  F   F306      1.0  0.23132  0.41478  0.73027  1.0000
  F   F307      1.0  0.24110  0.90457  0.23067  1.0000
  F   F308      1.0  0.23061  0.92000  0.72523  1.0000
  F   F309      1.0  0.48620  0.40062  0.23302  1.0000
  F   F310      1.0  0.49194  0.41543  0.72161  1.0000
  F   F311      1.0  0.47911  0.92206  0.23512  1.0000
  F   F312      1.0  0.47814  0.91624  0.72927  1.0000
  F   F313      1.0  0.74109  0.41498  0.22837  1.0000
  F   F314      1.0  0.73167  0.39215  0.74046  1.0000
  F   F315      1.0  0.73513  0.89744  0.23049  1.0000
  F   F316      1.0  0.73009  0.92459  0.71880  1.0000
  F   F317      1.0  0.98467  0.41840  0.22096  1.0000
  F   F318      1.0  0.98460  0.40088  0.74167  1.0000
  F   F319      1.0  0.97942  0.90992  0.21996  1.0000
  F   F320      1.0  0.98639  0.90993  0.72811  1.0000
  F   F321      1.0  0.20771  0.46902  0.47631  1.0000
  F   F322      1.0  0.20236  0.47450  0.97977  1.0000
  F   F323      1.0  0.20419  0.97517  0.48144  1.0000
  F   F324      1.0  0.21036  0.96215  0.96466  1.0000
  F   F325      1.0  0.45443  0.47350  0.47697  1.0000
  F   F326      1.0  0.44920  0.47313  0.98865  1.0000
  F   F327      1.0  0.45763  0.96727  0.47653  1.0000
  F   F328      1.0  0.45557  0.96047  0.97081  1.0000
  F   F329      1.0  0.70944  0.47877  0.48138  1.0000
  F   F330      1.0  0.71173  0.47179  0.96401  1.0000
  F   F331      1.0  0.70614  0.96228  0.47133  1.0000
  F   F332      1.0  0.70808  0.96811  0.98077  1.0000
  F   F333      1.0  0.95043  0.47778  0.47542  1.0000
  F   F334      1.0  0.95709  0.47992  0.96621  1.0000
  F   F335      1.0  0.95267  0.95934  0.49196  1.0000
  F   F336      1.0  0.96395  0.97380  0.97077  1.0000
  F   F337      1.0  0.01368  0.08497  0.27957  1.0000
  F   F338      1.0  0.01481  0.09005  0.77169  1.0000
  F   F339      1.0  0.01730  0.60586  0.25751  1.0000
  F   F340      1.0  0.01612  0.58553  0.78531  1.0000
  F   F341      1.0  0.26438  0.08743  0.27432  1.0000
  F   F342      1.0  0.26604  0.08223  0.78099  1.0000
  F   F343      1.0  0.26922  0.57263  0.27556  1.0000
  F   F344      1.0  0.26687  0.57713  0.76062  1.0000
  F   F345      1.0  0.50941  0.07820  0.27127  1.0000
  F   F346      1.0  0.51345  0.07579  0.78198  1.0000
  F   F347      1.0  0.51883  0.57285  0.28251  1.0000
  F   F348      1.0  0.51585  0.57472  0.77656  1.0000
  F   F349      1.0  0.76858  0.09715  0.25641  1.0000
  F   F350      1.0  0.76770  0.07671  0.78376  1.0000
  F   F351      1.0  0.77182  0.57961  0.27774  1.0000
  F   F352      1.0  0.76425  0.57750  0.77424  1.0000
  F   F353      1.0  0.09782  0.41977  0.45978  1.0000
  F   F354      1.0  0.10520  0.40687  0.96861  1.0000
  F   F355      1.0  0.10263  0.88026  0.46098  1.0000
  F   F356      1.0  0.10681  0.92679  0.95760  1.0000
  F   F357      1.0  0.35796  0.41454  0.45920  1.0000
  F   F358      1.0  0.35387  0.40795  0.96568  1.0000
  F   F359      1.0  0.35213  0.90504  0.47383  1.0000
  F   F360      1.0  0.34598  0.90517  0.96612  1.0000
  F   F361      1.0  0.60473  0.40683  0.45760  1.0000
  F   F362      1.0  0.59924  0.40269  0.96088  1.0000
  F   F363      1.0  0.59451  0.91037  0.46114  1.0000
  F   F364      1.0  0.60388  0.90423  0.95421  1.0000
  F   F365      1.0  0.85146  0.41709  0.46604  1.0000
  F   F366      1.0  0.85355  0.42709  0.96606  1.0000
  F   F367      1.0  0.85197  0.90664  0.46071  1.0000
  F   F368      1.0  0.85047  0.90595  0.95134  1.0000
  F   F369      1.0  0.04832  0.30678  0.29443  1.0000
  F   F370      1.0  0.05060  0.29681  0.78178  1.0000
  F   F371      1.0  0.03742  0.79569  0.28294  1.0000
  F   F372      1.0  0.05198  0.79447  0.78383  1.0000
  F   F373      1.0  0.29780  0.29824  0.29053  1.0000
  F   F374      1.0  0.29441  0.29852  0.80180  1.0000
  F   F375      1.0  0.30200  0.80698  0.28704  1.0000
  F   F376      1.0  0.29585  0.79600  0.79834  1.0000
  F   F377      1.0  0.54613  0.29755  0.28964  1.0000
  F   F378      1.0  0.55217  0.29574  0.79034  1.0000
  F   F379      1.0  0.54956  0.79969  0.28394  1.0000
  F   F380      1.0  0.54569  0.80202  0.77576  1.0000
  F   F381      1.0  0.79728  0.28662  0.28980  1.0000
  F   F382      1.0  0.79524  0.29895  0.77679  1.0000
  F   F383      1.0  0.80621  0.80284  0.28230  1.0000
  F   F384      1.0  0.78680  0.79125  0.78511  1.0000
