data_image0
_chemical_formula_structural       Hf96F384
_chemical_formula_sum              "Hf96 F384"
_cell_length_a       31.0289
_cell_length_b       15.514
_cell_length_c       15.5082
_cell_angle_alpha    63.342
_cell_angle_beta     63.342
_cell_angle_gamma    80.1625

_space_group_name_H-M_alt    "P 1"
_space_group_IT_number       1

loop_
  _space_group_symop_operation_xyz
  'x, y, z'

loop_
  _atom_site_type_symbol
  _atom_site_label
  _atom_site_symmetry_multiplicity
  _atom_site_fract_x
  _atom_site_fract_y
  _atom_site_fract_z
  _atom_site_occupancy
  Hf  Hf1       1.0  0.19340  0.09792  0.38671  1.0000
  Hf  Hf2       1.0  0.19220  0.09965  0.88784  1.0000
  Hf  Hf3       1.0  0.19525  0.60086  0.38843  1.0000
  Hf  Hf4       1.0  0.19565  0.60316  0.88087  1.0000
  Hf  Hf5       1.0  0.44198  0.10391  0.38188  1.0000
  Hf  Hf6       1.0  0.44528  0.11160  0.86890  1.0000
  Hf  Hf7       1.0  0.45023  0.61484  0.36016  1.0000
  Hf  Hf8       1.0  0.44614  0.60778  0.87880  1.0000
  Hf  Hf9       1.0  0.69664  0.11409  0.36760  1.0000
  Hf  Hf10      1.0  0.69896  0.12180  0.85666  1.0000
  Hf  Hf11      1.0  0.69838  0.60886  0.37357  1.0000
  Hf  Hf12      1.0  0.69198  0.61336  0.87230  1.0000
  Hf  Hf13      1.0  0.94626  0.10592  0.37954  1.0000
  Hf  Hf14      1.0  0.94852  0.10584  0.87205  1.0000
  Hf  Hf15      1.0  0.94899  0.60749  0.36493  1.0000
  Hf  Hf16      1.0  0.94550  0.60280  0.87388  1.0000
  Hf  Hf17      1.0  0.05645  0.39931  0.12071  1.0000
  Hf  Hf18      1.0  0.05104  0.39535  0.62900  1.0000
  Hf  Hf19      1.0  0.05222  0.88349  0.13829  1.0000
  Hf  Hf20      1.0  0.05308  0.89152  0.63173  1.0000
  Hf  Hf21      1.0  0.30445  0.39121  0.12304  1.0000
  Hf  Hf22      1.0  0.30563  0.39191  0.62206  1.0000
  Hf  Hf23      1.0  0.30117  0.88550  0.13993  1.0000
  Hf  Hf24      1.0  0.30453  0.88978  0.62945  1.0000
  Hf  Hf25      1.0  0.55836  0.40183  0.11753  1.0000
  Hf  Hf26      1.0  0.55605  0.40315  0.61955  1.0000
  Hf  Hf27      1.0  0.55490  0.89289  0.12240  1.0000
  Hf  Hf28      1.0  0.55113  0.90367  0.62201  1.0000
  Hf  Hf29      1.0  0.80193  0.38889  0.12564  1.0000
  Hf  Hf30      1.0  0.80059  0.38776  0.63168  1.0000
  Hf  Hf31      1.0  0.80527  0.88606  0.12407  1.0000
  Hf  Hf32      1.0  0.80473  0.88872  0.62280  1.0000
  Hf  Hf33      1.0  0.05575  0.18731  0.41757  1.0000
  Hf  Hf34      1.0  0.05288  0.17780  0.92404  1.0000
  Hf  Hf35      1.0  0.05764  0.68069  0.41971  1.0000
  Hf  Hf36      1.0  0.05658  0.68858  0.91959  1.0000
  Hf  Hf37      1.0  0.30710  0.18343  0.41985  1.0000
  Hf  Hf38      1.0  0.30200  0.17740  0.92213  1.0000
  Hf  Hf39      1.0  0.30653  0.67388  0.42157  1.0000
  Hf  Hf40      1.0  0.30683  0.67586  0.92348  1.0000
  Hf  Hf41      1.0  0.55723  0.18561  0.40347  1.0000
  Hf  Hf42      1.0  0.55801  0.18468  0.90337  1.0000
  Hf  Hf43      1.0  0.55667  0.68156  0.41750  1.0000
  Hf  Hf44      1.0  0.55105  0.69418  0.91974  1.0000
  Hf  Hf45      1.0  0.80368  0.17865  0.41775  1.0000
  Hf  Hf46      1.0  0.80850  0.17708  0.91027  1.0000
  Hf  Hf47      1.0  0.80657  0.68176  0.41314  1.0000
  Hf  Hf48      1.0  0.80193  0.67258  0.91655  1.0000
  Hf  Hf49      1.0  0.15816  0.38216  0.34489  1.0000
  Hf  Hf50      1.0  0.15945  0.38338  0.83596  1.0000
  Hf  Hf51      1.0  0.15740  0.88314  0.34417  1.0000
  Hf  Hf52      1.0  0.15278  0.88679  0.84172  1.0000
  Hf  Hf53      1.0  0.41204  0.38753  0.32890  1.0000
  Hf  Hf54      1.0  0.41039  0.39361  0.82485  1.0000
  Hf  Hf55      1.0  0.41103  0.88981  0.32377  1.0000
  Hf  Hf56      1.0  0.40310  0.88563  0.83773  1.0000
  Hf  Hf57      1.0  0.66212  0.39451  0.32722  1.0000
  Hf  Hf58      1.0  0.65658  0.39021  0.82721  1.0000
  Hf  Hf59      1.0  0.66346  0.89854  0.31126  1.0000
  Hf  Hf60      1.0  0.65967  0.90350  0.82178  1.0000
  Hf  Hf61      1.0  0.90703  0.38434  0.33484  1.0000
  Hf  Hf62      1.0  0.90826  0.38190  0.83820  1.0000
  Hf  Hf63      1.0  0.90485  0.88456  0.34033  1.0000
  Hf  Hf64      1.0  0.90457  0.88271  0.83668  1.0000
  Hf  Hf65      1.0  0.19384  0.31345  0.08812  1.0000
  Hf  Hf66      1.0  0.19607  0.31220  0.58583  1.0000
  Hf  Hf67      1.0  0.19499  0.82684  0.08113  1.0000
  Hf  Hf68      1.0  0.19531  0.81052  0.58636  1.0000
  Hf  Hf69      1.0  0.44747  0.32127  0.07327  1.0000
  Hf  Hf70      1.0  0.44851  0.31082  0.57663  1.0000
  Hf  Hf71      1.0  0.44365  0.82515  0.07779  1.0000
  Hf  Hf72      1.0  0.44172  0.81243  0.59158  1.0000
  Hf  Hf73      1.0  0.69727  0.31741  0.07786  1.0000
  Hf  Hf74      1.0  0.69447  0.32192  0.58138  1.0000
  Hf  Hf75      1.0  0.69727  0.82273  0.07407  1.0000
  Hf  Hf76      1.0  0.69140  0.83038  0.57760  1.0000
  Hf  Hf77      1.0  0.94385  0.30929  0.09071  1.0000
  Hf  Hf78      1.0  0.93973  0.32674  0.57934  1.0000
  Hf  Hf79      1.0  0.94410  0.81415  0.08643  1.0000
  Hf  Hf80      1.0  0.94542  0.81316  0.58228  1.0000
  Hf  Hf81      1.0  0.08963  0.10628  0.17975  1.0000
  Hf  Hf82      1.0  0.09333  0.11400  0.66406  1.0000
  Hf  Hf83      1.0  0.09568  0.60530  0.17921  1.0000
  Hf  Hf84      1.0  0.09258  0.61305  0.67327  1.0000
  Hf  Hf85      1.0  0.34214  0.10944  0.16902  1.0000
  Hf  Hf86      1.0  0.33815  0.11142  0.67216  1.0000
  Hf  Hf87      1.0  0.34241  0.60795  0.17425  1.0000
  Hf  Hf88      1.0  0.34261  0.60983  0.66587  1.0000
  Hf  Hf89      1.0  0.59329  0.12144  0.15079  1.0000
  Hf  Hf90      1.0  0.59217  0.11927  0.65848  1.0000
  Hf  Hf91      1.0  0.59487  0.61464  0.16632  1.0000
  Hf  Hf92      1.0  0.58752  0.62695  0.66837  1.0000
  Hf  Hf93      1.0  0.84056  0.11266  0.16528  1.0000
  Hf  Hf94      1.0  0.84344  0.10880  0.65701  1.0000
  Hf  Hf95      1.0  0.83889  0.60967  0.17129  1.0000
  Hf  Hf96      1.0  0.84201  0.60778  0.66440  1.0000
  F   F1        1.0  0.07379  0.12103  0.31962  1.0000
  F   F2        1.0  0.07607  0.12046  0.80920  1.0000
  F   F3        1.0  0.07968  0.60474  0.31917  1.0000
  F   F4        1.0  0.07745  0.63027  0.81147  1.0000
  F   F5        1.0  0.32843  0.11926  0.31504  1.0000
  F   F6        1.0  0.32187  0.11807  0.81145  1.0000
  F   F7        1.0  0.32175  0.59646  0.32819  1.0000
  F   F8        1.0  0.33497  0.63028  0.80298  1.0000
  F   F9        1.0  0.57314  0.12896  0.29585  1.0000
  F   F10       1.0  0.57976  0.11869  0.80462  1.0000
  F   F11       1.0  0.58427  0.61253  0.30449  1.0000
  F   F12       1.0  0.57537  0.63369  0.80750  1.0000
  F   F13       1.0  0.82016  0.12090  0.30624  1.0000
  F   F14       1.0  0.83549  0.13972  0.78770  1.0000
  F   F15       1.0  0.82830  0.60918  0.31402  1.0000
  F   F16       1.0  0.82173  0.61393  0.80393  1.0000
  F   F17       1.0  0.18658  0.33714  0.45254  1.0000
  F   F18       1.0  0.18561  0.33430  0.95626  1.0000
  F   F19       1.0  0.18511  0.82254  0.45906  1.0000
  F   F20       1.0  0.18305  0.84577  0.94808  1.0000
  F   F21       1.0  0.43501  0.33847  0.44564  1.0000
  F   F22       1.0  0.43501  0.35075  0.94075  1.0000
  F   F23       1.0  0.43953  0.84463  0.44012  1.0000
  F   F24       1.0  0.43047  0.85081  0.95388  1.0000
  F   F25       1.0  0.68729  0.34257  0.44100  1.0000
  F   F26       1.0  0.68350  0.35360  0.93665  1.0000
  F   F27       1.0  0.68171  0.85184  0.43830  1.0000
  F   F28       1.0  0.68806  0.85157  0.93661  1.0000
  F   F29       1.0  0.93851  0.34962  0.43615  1.0000
  F   F30       1.0  0.94234  0.34280  0.94365  1.0000
  F   F31       1.0  0.93399  0.84552  0.44155  1.0000
  F   F32       1.0  0.93333  0.83536  0.94419  1.0000
  F   F33       1.0  0.16580  0.36650  0.20544  1.0000
  F   F34       1.0  0.17613  0.36138  0.70574  1.0000
  F   F35       1.0  0.17267  0.87987  0.19324  1.0000
  F   F36       1.0  0.16246  0.86287  0.70565  1.0000
  F   F37       1.0  0.42886  0.37602  0.19458  1.0000
  F   F38       1.0  0.42750  0.38297  0.68318  1.0000
  F   F39       1.0  0.42813  0.88790  0.17942  1.0000
  F   F40       1.0  0.40899  0.85097  0.71449  1.0000
  F   F41       1.0  0.67375  0.35782  0.19875  1.0000
  F   F42       1.0  0.67105  0.36173  0.70239  1.0000
  F   F43       1.0  0.67997  0.89204  0.17208  1.0000
  F   F44       1.0  0.66352  0.86120  0.70266  1.0000
  F   F45       1.0  0.92371  0.35350  0.20741  1.0000
  F   F46       1.0  0.92831  0.37022  0.70361  1.0000
  F   F47       1.0  0.91492  0.87697  0.18992  1.0000
  F   F48       1.0  0.91871  0.85992  0.70499  1.0000
  F   F49       1.0  0.06541  0.15723  0.06443  1.0000
  F   F50       1.0  0.06454  0.17524  0.54823  1.0000
  F   F51       1.0  0.07222  0.66781  0.05352  1.0000
  F   F52       1.0  0.06988  0.66467  0.55387  1.0000
  F   F53       1.0  0.31478  0.15439  0.05884  1.0000
  F   F54       1.0  0.31192  0.16353  0.55937  1.0000
  F   F55       1.0  0.30770  0.64947  0.07957  1.0000
  F   F56       1.0  0.31603  0.65616  0.55374  1.0000
  F   F57       1.0  0.56638  0.17219  0.03825  1.0000
  F   F58       1.0  0.56616  0.15397  0.54126  1.0000
  F   F59       1.0  0.55605  0.66719  0.05731  1.0000
  F   F60       1.0  0.56189  0.67720  0.54826  1.0000
  F   F61       1.0  0.80767  0.15593  0.05380  1.0000
  F   F62       1.0  0.81777  0.15992  0.54075  1.0000
  F   F63       1.0  0.80725  0.63799  0.07235  1.0000
  F   F64       1.0  0.81846  0.66656  0.54540  1.0000
  F   F65       1.0  0.19919  0.19585  0.22018  1.0000
  F   F66       1.0  0.20090  0.19867  0.70848  1.0000
  F   F67       1.0  0.19544  0.70956  0.20867  1.0000
  F   F68       1.0  0.20629  0.69328  0.71838  1.0000
  F   F69       1.0  0.44592  0.20440  0.20413  1.0000
  F   F70       1.0  0.44959  0.20776  0.71157  1.0000
  F   F71       1.0  0.45986  0.70861  0.20592  1.0000
  F   F72       1.0  0.44504  0.69515  0.72820  1.0000
  F   F73       1.0  0.71219  0.20172  0.19817  1.0000
  F   F74       1.0  0.70635  0.20038  0.69982  1.0000
  F   F75       1.0  0.70944  0.69657  0.20859  1.0000
  F   F76       1.0  0.69708  0.71020  0.70488  1.0000
  F   F77       1.0  0.95605  0.19614  0.21312  1.0000
  F   F78       1.0  0.94548  0.20439  0.72608  1.0000
  F   F79       1.0  0.95873  0.69830  0.20160  1.0000
  F   F80       1.0  0.95430  0.69238  0.71220  1.0000
  F   F81       1.0  0.14571  0.08334  0.04546  1.0000
  F   F82       1.0  0.14799  0.08278  0.53654  1.0000
  F   F83       1.0  0.15156  0.57700  0.04155  1.0000
  F   F84       1.0  0.14591  0.59238  0.55125  1.0000
  F   F85       1.0  0.40236  0.09193  0.02809  1.0000
  F   F86       1.0  0.39341  0.07175  0.54645  1.0000
  F   F87       1.0  0.39901  0.59405  0.05265  1.0000
  F   F88       1.0  0.40754  0.59581  0.52169  1.0000
  F   F89       1.0  0.65241  0.11908  0.02456  1.0000
  F   F90       1.0  0.64564  0.09722  0.53310  1.0000
  F   F91       1.0  0.65162  0.60778  0.03002  1.0000
  F   F92       1.0  0.64791  0.60873  0.53225  1.0000
  F   F93       1.0  0.89634  0.09962  0.04456  1.0000
  F   F94       1.0  0.90271  0.08962  0.53946  1.0000
  F   F95       1.0  0.89683  0.59718  0.03498  1.0000
  F   F96       1.0  0.90097  0.57951  0.53177  1.0000
  F   F97       1.0  0.15169  0.19455  0.11913  1.0000
  F   F98       1.0  0.14807  0.19310  0.62176  1.0000
  F   F99       1.0  0.14476  0.69995  0.12312  1.0000
  F   F100      1.0  0.15189  0.69487  0.63159  1.0000
  F   F101      1.0  0.40040  0.19735  0.12628  1.0000
  F   F102      1.0  0.40542  0.18037  0.61762  1.0000
  F   F103      1.0  0.39636  0.69377  0.14399  1.0000
  F   F104      1.0  0.39930  0.69660  0.62796  1.0000
  F   F105      1.0  0.65167  0.20596  0.12744  1.0000
  F   F106      1.0  0.65377  0.20679  0.62593  1.0000
  F   F107      1.0  0.65835  0.70335  0.11857  1.0000
  F   F108      1.0  0.64108  0.71999  0.62217  1.0000
  F   F109      1.0  0.89890  0.19566  0.13754  1.0000
  F   F110      1.0  0.90448  0.21125  0.61350  1.0000
  F   F111      1.0  0.89585  0.69646  0.14318  1.0000
  F   F112      1.0  0.90380  0.68940  0.61807  1.0000
  F   F113      1.0  0.10001  0.30781  0.38003  1.0000
  F   F114      1.0  0.09175  0.31298  0.90243  1.0000
  F   F115      1.0  0.10379  0.79571  0.37907  1.0000
  F   F116      1.0  0.09179  0.81803  0.87331  1.0000
  F   F117      1.0  0.35276  0.30317  0.37829  1.0000
  F   F118      1.0  0.35614  0.30059  0.89068  1.0000
  F   F119      1.0  0.35749  0.79530  0.34683  1.0000
  F   F120      1.0  0.34600  0.78766  0.89898  1.0000
  F   F121      1.0  0.60413  0.30288  0.38994  1.0000
  F   F122      1.0  0.60396  0.30046  0.86376  1.0000
  F   F123      1.0  0.60119  0.80421  0.34255  1.0000
  F   F124      1.0  0.59261  0.81243  0.88222  1.0000
  F   F125      1.0  0.84834  0.30097  0.37737  1.0000
  F   F126      1.0  0.85310  0.29489  0.85851  1.0000
  F   F127      1.0  0.84561  0.80600  0.36781  1.0000
  F   F128      1.0  0.84857  0.78902  0.89193  1.0000
  F   F129      1.0  0.05843  0.24621  0.15817  1.0000
  F   F130      1.0  0.05141  0.25472  0.66272  1.0000
  F   F131      1.0  0.05660  0.74741  0.17040  1.0000
  F   F132      1.0  0.06821  0.75015  0.64983  1.0000
  F   F133      1.0  0.31618  0.25157  0.14334  1.0000
  F   F134      1.0  0.30446  0.24446  0.66678  1.0000
  F   F135      1.0  0.31189  0.74662  0.15726  1.0000
  F   F136      1.0  0.31698  0.75837  0.63459  1.0000
  F   F137      1.0  0.56679  0.25155  0.14276  1.0000
  F   F138      1.0  0.57580  0.25144  0.62290  1.0000
  F   F139      1.0  0.56757  0.75570  0.12490  1.0000
  F   F140      1.0  0.55336  0.75643  0.65312  1.0000
  F   F141      1.0  0.81016  0.24918  0.13639  1.0000
  F   F142      1.0  0.81807  0.25404  0.63089  1.0000
  F   F143      1.0  0.81068  0.75154  0.13017  1.0000
  F   F144      1.0  0.81724  0.74733  0.65744  1.0000
  F   F145      1.0  0.12290  0.37794  0.11110  1.0000
  F   F146      1.0  0.12534  0.36709  0.60965  1.0000
  F   F147      1.0  0.12315  0.87414  0.11534  1.0000
  F   F148      1.0  0.12739  0.88052  0.59280  1.0000
  F   F149      1.0  0.37509  0.36306  0.11545  1.0000
  F   F150      1.0  0.37281  0.34155  0.63776  1.0000
  F   F151      1.0  0.37055  0.87825  0.11729  1.0000
  F   F152      1.0  0.37605  0.87983  0.59940  1.0000
  F   F153      1.0  0.62697  0.40263  0.08601  1.0000
  F   F154      1.0  0.62382  0.38427  0.60404  1.0000
  F   F155      1.0  0.62653  0.87912  0.11330  1.0000
  F   F156      1.0  0.62524  0.89448  0.58501  1.0000
  F   F157      1.0  0.87362  0.36495  0.10595  1.0000
  F   F158      1.0  0.87118  0.38945  0.60079  1.0000
  F   F159      1.0  0.86875  0.85069  0.12789  1.0000
  F   F160      1.0  0.87574  0.88163  0.59317  1.0000
  F   F161      1.0  0.17709  0.24643  0.37503  1.0000
  F   F162      1.0  0.18388  0.25049  0.86297  1.0000
  F   F163      1.0  0.18933  0.75441  0.34685  1.0000
  F   F164      1.0  0.17634  0.74515  0.87410  1.0000
  F   F165      1.0  0.43852  0.24670  0.35104  1.0000
  F   F166      1.0  0.44369  0.24623  0.84806  1.0000
  F   F167      1.0  0.44310  0.75054  0.34369  1.0000
  F   F168      1.0  0.43595  0.74585  0.86290  1.0000
  F   F169      1.0  0.69363  0.25342  0.34510  1.0000
  F   F170      1.0  0.68948  0.25672  0.84739  1.0000
  F   F171      1.0  0.68713  0.75729  0.34515  1.0000
  F   F172      1.0  0.68363  0.75359  0.85528  1.0000
  F   F173      1.0  0.92468  0.23415  0.38856  1.0000
  F   F174      1.0  0.93520  0.24711  0.86473  1.0000
  F   F175      1.0  0.93114  0.75254  0.36229  1.0000
  F   F176      1.0  0.93890  0.74425  0.84878  1.0000
  F   F177      1.0  0.12464  0.13027  0.39166  1.0000
  F   F178      1.0  0.12163  0.13168  0.89314  1.0000
  F   F179      1.0  0.12742  0.61826  0.40354  1.0000
  F   F180      1.0  0.12554  0.62197  0.89888  1.0000
  F   F181      1.0  0.37480  0.13469  0.38908  1.0000
  F   F182      1.0  0.37282  0.13271  0.88231  1.0000
  F   F183      1.0  0.37706  0.63158  0.38576  1.0000
  F   F184      1.0  0.37291  0.61415  0.92152  1.0000
  F   F185      1.0  0.62865  0.14357  0.36355  1.0000
  F   F186      1.0  0.63017  0.13200  0.87355  1.0000
  F   F187      1.0  0.63168  0.63100  0.38930  1.0000
  F   F188      1.0  0.61957  0.64038  0.89523  1.0000
  F   F189      1.0  0.87033  0.12858  0.38513  1.0000
  F   F190      1.0  0.87321  0.11882  0.91365  1.0000
  F   F191      1.0  0.87808  0.64639  0.36509  1.0000
  F   F192      1.0  0.87429  0.63830  0.86928  1.0000
  F   F193      1.0  0.01419  0.36428  0.06175  1.0000
  F   F194      1.0  0.00466  0.37939  0.57074  1.0000
  F   F195      1.0  0.00377  0.86251  0.07596  1.0000
  F   F196      1.0  0.00540  0.85681  0.58548  1.0000
  F   F197      1.0  0.25400  0.34959  0.08546  1.0000
  F   F198      1.0  0.25988  0.35748  0.56797  1.0000
  F   F199      1.0  0.25780  0.85645  0.07975  1.0000
  F   F200      1.0  0.25349  0.86357  0.59337  1.0000
  F   F201      1.0  0.51358  0.36042  0.06495  1.0000
  F   F202      1.0  0.51419  0.35841  0.57392  1.0000
  F   F203      1.0  0.50783  0.86801  0.06134  1.0000
  F   F204      1.0  0.50376  0.84945  0.58009  1.0000
  F   F205      1.0  0.76047  0.37233  0.05109  1.0000
  F   F206      1.0  0.75550  0.36687  0.57569  1.0000
  F   F207      1.0  0.75614  0.85166  0.08283  1.0000
  F   F208      1.0  0.75734  0.86019  0.57569  1.0000
  F   F209      1.0  0.06736  0.48207  0.18359  1.0000
  F   F210      1.0  0.06947  0.48516  0.68152  1.0000
  F   F211      1.0  0.06684  0.97845  0.18481  1.0000
  F   F212      1.0  0.07408  0.99126  0.67800  1.0000
  F   F213      1.0  0.33012  0.48559  0.16327  1.0000
  F   F214      1.0  0.32541  0.47750  0.66916  1.0000
  F   F215      1.0  0.31994  0.97770  0.19405  1.0000
  F   F216      1.0  0.31067  0.98185  0.68531  1.0000
  F   F217      1.0  0.56847  0.49709  0.17964  1.0000
  F   F218      1.0  0.56267  0.50687  0.66912  1.0000
  F   F219      1.0  0.57180  0.99699  0.15866  1.0000
  F   F220      1.0  0.55940  0.99096  0.68318  1.0000
  F   F221      1.0  0.81614  0.47857  0.17815  1.0000
  F   F222      1.0  0.81229  0.48758  0.69645  1.0000
  F   F223      1.0  0.81636  0.99153  0.16776  1.0000
  F   F224      1.0  0.82004  0.98584  0.67290  1.0000
  F   F225      1.0  0.23847  0.11933  0.44599  1.0000
  F   F226      1.0  0.23761  0.13637  0.93275  1.0000
  F   F227      1.0  0.23953  0.64693  0.42629  1.0000
  F   F228      1.0  0.25047  0.63197  0.91318  1.0000
  F   F229      1.0  0.49020  0.15115  0.43329  1.0000
  F   F230      1.0  0.49485  0.12468  0.92457  1.0000
  F   F231      1.0  0.49641  0.64438  0.40983  1.0000
  F   F232      1.0  0.49010  0.63787  0.92101  1.0000
  F   F233      1.0  0.73893  0.13128  0.43842  1.0000
  F   F234      1.0  0.74848  0.13220  0.90889  1.0000
  F   F235      1.0  0.74151  0.62004  0.44214  1.0000
  F   F236      1.0  0.74200  0.62512  0.92924  1.0000
  F   F237      1.0  0.99100  0.13773  0.44295  1.0000
  F   F238      1.0  0.99172  0.13149  0.92813  1.0000
  F   F239      1.0  0.99481  0.65158  0.42984  1.0000
  F   F240      1.0  0.99208  0.64509  0.92942  1.0000
  F   F241      1.0  0.18385  0.00659  0.32408  1.0000
  F   F242      1.0  0.17752  0.00387  0.84405  1.0000
  F   F243      1.0  0.19068  0.50645  0.33550  1.0000
  F   F244      1.0  0.18653  0.51249  0.82246  1.0000
  F   F245      1.0  0.42523  0.01365  0.33419  1.0000
  F   F246      1.0  0.43456  0.01096  0.80991  1.0000
  F   F247      1.0  0.44352  0.51072  0.31139  1.0000
  F   F248      1.0  0.42678  0.51846  0.82492  1.0000
  F   F249      1.0  0.67833  0.01122  0.32602  1.0000
  F   F250      1.0  0.68256  0.02739  0.79664  1.0000
  F   F251      1.0  0.68179  0.50883  0.33138  1.0000
  F   F252      1.0  0.67403  0.52936  0.81766  1.0000
  F   F253      1.0  0.92840  0.01112  0.34130  1.0000
  F   F254      1.0  0.92912  0.00733  0.83473  1.0000
  F   F255      1.0  0.92996  0.52219  0.32512  1.0000
  F   F256      1.0  0.92620  0.50944  0.83569  1.0000
  F   F257      1.0  0.99589  0.22523  0.01882  1.0000
  F   F258      1.0  0.00110  0.26497  0.49798  1.0000
  F   F259      1.0  0.99749  0.75251  0.99783  1.0000
  F   F260      1.0  0.00426  0.76148  0.49550  1.0000
  F   F261      1.0  0.24493  0.23465  0.01903  1.0000
  F   F262      1.0  0.25150  0.24702  0.50223  1.0000
  F   F263      1.0  0.24913  0.73816  0.00503  1.0000
  F   F264      1.0  0.25201  0.74715  0.50923  1.0000
  F   F265      1.0  0.49676  0.25689  0.97688  1.0000
  F   F266      1.0  0.50940  0.27054  0.47230  1.0000
  F   F267      1.0  0.48257  0.73386  0.01168  1.0000
  F   F268      1.0  0.49538  0.74368  0.51256  1.0000
  F   F269      1.0  0.74800  0.24139  0.99079  1.0000
  F   F270      1.0  0.75125  0.24893  0.50219  1.0000
  F   F271      1.0  0.75137  0.74601  0.99582  1.0000
  F   F272      1.0  0.74625  0.74900  0.49702  1.0000
  F   F273      1.0  0.12312  0.99459  0.26132  1.0000
  F   F274      1.0  0.13810  0.01026  0.73110  1.0000
  F   F275      1.0  0.14595  0.51830  0.23357  1.0000
  F   F276      1.0  0.13304  0.49789  0.73644  1.0000
  F   F277      1.0  0.38137  0.00503  0.23584  1.0000
  F   F278      1.0  0.37115  0.99583  0.74383  1.0000
  F   F279      1.0  0.37850  0.49563  0.25291  1.0000
  F   F280      1.0  0.37722  0.50169  0.73923  1.0000
  F   F281      1.0  0.63458  0.01575  0.22777  1.0000
  F   F282      1.0  0.63540  0.01991  0.70940  1.0000
  F   F283      1.0  0.63276  0.50114  0.24142  1.0000
  F   F284      1.0  0.62187  0.50348  0.73914  1.0000
  F   F285      1.0  0.87371  0.00264  0.25147  1.0000
  F   F286      1.0  0.88008  0.00785  0.73570  1.0000
  F   F287      1.0  0.87824  0.49472  0.24142  1.0000
  F   F288      1.0  0.88116  0.50340  0.73520  1.0000
  F   F289      1.0  0.04145  0.02711  0.03341  1.0000
  F   F290      1.0  0.04784  0.02918  0.53455  1.0000
  F   F291      1.0  0.03777  0.54090  0.03316  1.0000
  F   F292      1.0  0.03724  0.54511  0.53252  1.0000
  F   F293      1.0  0.29172  0.02924  0.03355  1.0000
  F   F294      1.0  0.29882  0.02290  0.52143  1.0000
  F   F295      1.0  0.28030  0.52916  0.04789  1.0000
  F   F296      1.0  0.28607  0.53022  0.54211  1.0000
  F   F297      1.0  0.54390  0.03967  0.01664  1.0000
  F   F298      1.0  0.54953  0.02931  0.50308  1.0000
  F   F299      1.0  0.54418  0.53094  0.02159  1.0000
  F   F300      1.0  0.54439  0.53855  0.51339  1.0000
  F   F301      1.0  0.79346  0.02280  0.02432  1.0000
  F   F302      1.0  0.79190  0.02129  0.52546  1.0000
  F   F303      1.0  0.80311  0.52536  0.00938  1.0000
  F   F304      1.0  0.79545  0.52827  0.54157  1.0000
  F   F305      1.0  0.23342  0.38889  0.24383  1.0000
  F   F306      1.0  0.24001  0.39787  0.73008  1.0000
  F   F307      1.0  0.23491  0.91205  0.22545  1.0000
  F   F308      1.0  0.22990  0.90983  0.73380  1.0000
  F   F309      1.0  0.49245  0.39710  0.22994  1.0000
  F   F310      1.0  0.48553  0.42273  0.72629  1.0000
  F   F311      1.0  0.48731  0.91642  0.22962  1.0000
  F   F312      1.0  0.48062  0.90947  0.72385  1.0000
  F   F313      1.0  0.73438  0.42179  0.22038  1.0000
  F   F314      1.0  0.73123  0.42638  0.72294  1.0000
  F   F315      1.0  0.73626  0.91037  0.23073  1.0000
  F   F316      1.0  0.73672  0.91256  0.72041  1.0000
  F   F317      1.0  0.98525  0.40432  0.24138  1.0000
  F   F318      1.0  0.98574  0.40728  0.74040  1.0000
  F   F319      1.0  0.98410  0.91029  0.23530  1.0000
  F   F320      1.0  0.98633  0.91684  0.72765  1.0000
  F   F321      1.0  0.20414  0.46723  0.49844  1.0000
  F   F322      1.0  0.20747  0.46547  0.97625  1.0000
  F   F323      1.0  0.21208  0.95687  0.47149  1.0000
  F   F324      1.0  0.21217  0.96792  0.98026  1.0000
  F   F325      1.0  0.46031  0.45374  0.46818  1.0000
  F   F326      1.0  0.45584  0.46990  0.98545  1.0000
  F   F327      1.0  0.45752  0.96995  0.47286  1.0000
  F   F328      1.0  0.46099  0.96989  0.96177  1.0000
  F   F329      1.0  0.70281  0.47691  0.47856  1.0000
  F   F330      1.0  0.71080  0.47086  0.96653  1.0000
  F   F331      1.0  0.70879  0.97453  0.47820  1.0000
  F   F332      1.0  0.70042  0.97881  0.97077  1.0000
  F   F333      1.0  0.95675  0.47130  0.46395  1.0000
  F   F334      1.0  0.95367  0.47443  0.98418  1.0000
  F   F335      1.0  0.96321  0.96373  0.48464  1.0000
  F   F336      1.0  0.94978  0.96552  0.98226  1.0000
  F   F337      1.0  0.01321  0.09107  0.27716  1.0000
  F   F338      1.0  0.01592  0.07893  0.76287  1.0000
  F   F339      1.0  0.01648  0.58402  0.27073  1.0000
  F   F340      1.0  0.01571  0.59175  0.77202  1.0000
  F   F341      1.0  0.26862  0.09904  0.26880  1.0000
  F   F342      1.0  0.25747  0.08581  0.77820  1.0000
  F   F343      1.0  0.26017  0.58278  0.28318  1.0000
  F   F344      1.0  0.27246  0.58129  0.77155  1.0000
  F   F345      1.0  0.50880  0.09623  0.27026  1.0000
  F   F346      1.0  0.51202  0.10604  0.75328  1.0000
  F   F347      1.0  0.51919  0.57681  0.27936  1.0000
  F   F348      1.0  0.51155  0.58754  0.77689  1.0000
  F   F349      1.0  0.75800  0.07344  0.28241  1.0000
  F   F350      1.0  0.76571  0.09300  0.75627  1.0000
  F   F351      1.0  0.76647  0.58066  0.28080  1.0000
  F   F352      1.0  0.75971  0.59723  0.75692  1.0000
  F   F353      1.0  0.09901  0.41792  0.46442  1.0000
  F   F354      1.0  0.10483  0.41888  0.96147  1.0000
  F   F355      1.0  0.09765  0.89818  0.46599  1.0000
  F   F356      1.0  0.09533  0.90371  0.96595  1.0000
  F   F357      1.0  0.35377  0.42425  0.47164  1.0000
  F   F358      1.0  0.34452  0.42597  0.97108  1.0000
  F   F359      1.0  0.35180  0.89323  0.44756  1.0000
  F   F360      1.0  0.35196  0.91136  0.95685  1.0000
  F   F361      1.0  0.60262  0.41941  0.45838  1.0000
  F   F362      1.0  0.59995  0.40766  0.94704  1.0000
  F   F363      1.0  0.59657  0.89992  0.44264  1.0000
  F   F364      1.0  0.60607  0.92821  0.94495  1.0000
  F   F365      1.0  0.85131  0.40831  0.45776  1.0000
  F   F366      1.0  0.85140  0.38369  0.96324  1.0000
  F   F367      1.0  0.84860  0.90248  0.46053  1.0000
  F   F368      1.0  0.85028  0.90785  0.96576  1.0000
  F   F369      1.0  0.04547  0.29858  0.30457  1.0000
  F   F370      1.0  0.04445  0.29737  0.80513  1.0000
  F   F371      1.0  0.05047  0.79263  0.29326  1.0000
  F   F372      1.0  0.04890  0.80570  0.78052  1.0000
  F   F373      1.0  0.29891  0.30142  0.28787  1.0000
  F   F374      1.0  0.29968  0.30516  0.80833  1.0000
  F   F375      1.0  0.29307  0.79053  0.29483  1.0000
  F   F376      1.0  0.30133  0.80032  0.79413  1.0000
  F   F377      1.0  0.56599  0.30819  0.26345  1.0000
  F   F378      1.0  0.54738  0.29439  0.77705  1.0000
  F   F379      1.0  0.54639  0.79962  0.27980  1.0000
  F   F380      1.0  0.54519  0.81261  0.78971  1.0000
  F   F381      1.0  0.79901  0.29479  0.28041  1.0000
  F   F382      1.0  0.79356  0.30356  0.78390  1.0000
  F   F383      1.0  0.79585  0.78938  0.28698  1.0000
  F   F384      1.0  0.79926  0.79164  0.79169  1.0000
