data_image0
_chemical_formula_structural       Hf96F384
_chemical_formula_sum              "Hf96 F384"
_cell_length_a       31.039
_cell_length_b       15.5178
_cell_length_c       15.5109
_cell_angle_alpha    63.342
_cell_angle_beta     63.342
_cell_angle_gamma    80.1625

_space_group_name_H-M_alt    "P 1"
_space_group_IT_number       1

loop_
  _space_group_symop_operation_xyz
  'x, y, z'

loop_
  _atom_site_type_symbol
  _atom_site_label
  _atom_site_symmetry_multiplicity
  _atom_site_fract_x
  _atom_site_fract_y
  _atom_site_fract_z
  _atom_site_occupancy
  Hf  Hf1       1.0  0.19753  0.10125  0.37405  1.0000
  Hf  Hf2       1.0  0.19332  0.10451  0.87649  1.0000
  Hf  Hf3       1.0  0.19645  0.60491  0.37619  1.0000
  Hf  Hf4       1.0  0.19695  0.60650  0.86471  1.0000
  Hf  Hf5       1.0  0.44403  0.10233  0.37142  1.0000
  Hf  Hf6       1.0  0.44529  0.11352  0.87232  1.0000
  Hf  Hf7       1.0  0.45079  0.60467  0.36903  1.0000
  Hf  Hf8       1.0  0.44652  0.60071  0.88356  1.0000
  Hf  Hf9       1.0  0.69710  0.11097  0.37098  1.0000
  Hf  Hf10      1.0  0.69563  0.11120  0.86812  1.0000
  Hf  Hf11      1.0  0.69731  0.61177  0.36493  1.0000
  Hf  Hf12      1.0  0.69228  0.60922  0.87431  1.0000
  Hf  Hf13      1.0  0.94364  0.10902  0.37435  1.0000
  Hf  Hf14      1.0  0.94512  0.10666  0.87447  1.0000
  Hf  Hf15      1.0  0.95261  0.60312  0.37152  1.0000
  Hf  Hf16      1.0  0.93909  0.61099  0.88225  1.0000
  Hf  Hf17      1.0  0.05671  0.38643  0.13156  1.0000
  Hf  Hf18      1.0  0.05574  0.38563  0.62201  1.0000
  Hf  Hf19      1.0  0.05267  0.88721  0.12747  1.0000
  Hf  Hf20      1.0  0.05279  0.88747  0.62987  1.0000
  Hf  Hf21      1.0  0.30398  0.38696  0.12852  1.0000
  Hf  Hf22      1.0  0.30445  0.39095  0.62437  1.0000
  Hf  Hf23      1.0  0.30320  0.88797  0.12543  1.0000
  Hf  Hf24      1.0  0.30477  0.88470  0.62782  1.0000
  Hf  Hf25      1.0  0.55523  0.38903  0.13032  1.0000
  Hf  Hf26      1.0  0.55124  0.39141  0.62701  1.0000
  Hf  Hf27      1.0  0.55493  0.90763  0.10080  1.0000
  Hf  Hf28      1.0  0.55346  0.89065  0.62815  1.0000
  Hf  Hf29      1.0  0.80019  0.39925  0.13268  1.0000
  Hf  Hf30      1.0  0.80024  0.39678  0.63560  1.0000
  Hf  Hf31      1.0  0.80646  0.89260  0.12343  1.0000
  Hf  Hf32      1.0  0.80362  0.89606  0.61910  1.0000
  Hf  Hf33      1.0  0.05597  0.17550  0.41945  1.0000
  Hf  Hf34      1.0  0.05408  0.18489  0.91687  1.0000
  Hf  Hf35      1.0  0.05724  0.67491  0.41932  1.0000
  Hf  Hf36      1.0  0.05306  0.67486  0.91803  1.0000
  Hf  Hf37      1.0  0.30402  0.17693  0.42320  1.0000
  Hf  Hf38      1.0  0.30532  0.17913  0.92306  1.0000
  Hf  Hf39      1.0  0.30630  0.68647  0.41155  1.0000
  Hf  Hf40      1.0  0.30567  0.67789  0.91648  1.0000
  Hf  Hf41      1.0  0.55580  0.17841  0.42189  1.0000
  Hf  Hf42      1.0  0.55400  0.19248  0.91676  1.0000
  Hf  Hf43      1.0  0.55892  0.68006  0.41222  1.0000
  Hf  Hf44      1.0  0.55576  0.67887  0.91577  1.0000
  Hf  Hf45      1.0  0.80166  0.18772  0.42428  1.0000
  Hf  Hf46      1.0  0.80519  0.17666  0.92264  1.0000
  Hf  Hf47      1.0  0.80733  0.68144  0.42492  1.0000
  Hf  Hf48      1.0  0.79722  0.68475  0.92650  1.0000
  Hf  Hf49      1.0  0.16112  0.38047  0.33533  1.0000
  Hf  Hf50      1.0  0.15764  0.38794  0.84102  1.0000
  Hf  Hf51      1.0  0.15606  0.88961  0.33196  1.0000
  Hf  Hf52      1.0  0.15976  0.88255  0.82794  1.0000
  Hf  Hf53      1.0  0.40901  0.38746  0.33407  1.0000
  Hf  Hf54      1.0  0.40363  0.38632  0.84519  1.0000
  Hf  Hf55      1.0  0.41079  0.87911  0.33047  1.0000
  Hf  Hf56      1.0  0.40769  0.89276  0.82661  1.0000
  Hf  Hf57      1.0  0.65595  0.39059  0.33955  1.0000
  Hf  Hf58      1.0  0.66017  0.39637  0.82967  1.0000
  Hf  Hf59      1.0  0.66036  0.89117  0.33902  1.0000
  Hf  Hf60      1.0  0.66197  0.89319  0.82588  1.0000
  Hf  Hf61      1.0  0.91052  0.39419  0.32785  1.0000
  Hf  Hf62      1.0  0.90396  0.38753  0.83611  1.0000
  Hf  Hf63      1.0  0.91123  0.88091  0.33768  1.0000
  Hf  Hf64      1.0  0.90869  0.88527  0.83935  1.0000
  Hf  Hf65      1.0  0.19337  0.31391  0.08551  1.0000
  Hf  Hf66      1.0  0.19410  0.31771  0.58895  1.0000
  Hf  Hf67      1.0  0.19455  0.81216  0.08465  1.0000
  Hf  Hf68      1.0  0.19142  0.81185  0.58782  1.0000
  Hf  Hf69      1.0  0.44410  0.32213  0.08238  1.0000
  Hf  Hf70      1.0  0.44247  0.31318  0.59151  1.0000
  Hf  Hf71      1.0  0.44372  0.81803  0.08288  1.0000
  Hf  Hf72      1.0  0.44779  0.82006  0.58089  1.0000
  Hf  Hf73      1.0  0.69226  0.31130  0.09052  1.0000
  Hf  Hf74      1.0  0.69494  0.32641  0.57775  1.0000
  Hf  Hf75      1.0  0.68960  0.83134  0.08476  1.0000
  Hf  Hf76      1.0  0.69427  0.81962  0.58434  1.0000
  Hf  Hf77      1.0  0.94251  0.31380  0.08432  1.0000
  Hf  Hf78      1.0  0.94223  0.31911  0.57970  1.0000
  Hf  Hf79      1.0  0.94380  0.82502  0.08292  1.0000
  Hf  Hf80      1.0  0.94930  0.82696  0.57657  1.0000
  Hf  Hf81      1.0  0.08549  0.10587  0.17644  1.0000
  Hf  Hf82      1.0  0.09614  0.10677  0.66306  1.0000
  Hf  Hf83      1.0  0.09937  0.61649  0.15220  1.0000
  Hf  Hf84      1.0  0.08945  0.61261  0.66301  1.0000
  Hf  Hf85      1.0  0.34369  0.11365  0.16261  1.0000
  Hf  Hf86      1.0  0.34120  0.11455  0.66459  1.0000
  Hf  Hf87      1.0  0.34257  0.60805  0.16661  1.0000
  Hf  Hf88      1.0  0.34489  0.61657  0.65916  1.0000
  Hf  Hf89      1.0  0.58926  0.10080  0.17549  1.0000
  Hf  Hf90      1.0  0.59338  0.12613  0.65660  1.0000
  Hf  Hf91      1.0  0.59478  0.61714  0.15524  1.0000
  Hf  Hf92      1.0  0.59538  0.61618  0.66155  1.0000
  Hf  Hf93      1.0  0.84106  0.11067  0.17289  1.0000
  Hf  Hf94      1.0  0.83986  0.11328  0.66681  1.0000
  Hf  Hf95      1.0  0.84403  0.61071  0.17027  1.0000
  Hf  Hf96      1.0  0.84705  0.62202  0.66756  1.0000
  F   F1        1.0  0.07750  0.13239  0.30119  1.0000
  F   F2        1.0  0.07748  0.12789  0.79513  1.0000
  F   F3        1.0  0.08280  0.62383  0.29547  1.0000
  F   F4        1.0  0.07545  0.63217  0.79826  1.0000
  F   F5        1.0  0.33115  0.13513  0.29765  1.0000
  F   F6        1.0  0.32491  0.13042  0.80511  1.0000
  F   F7        1.0  0.32951  0.63741  0.29785  1.0000
  F   F8        1.0  0.32916  0.62312  0.80564  1.0000
  F   F9        1.0  0.57571  0.12710  0.30117  1.0000
  F   F10       1.0  0.57905  0.14735  0.79770  1.0000
  F   F11       1.0  0.57873  0.62090  0.30449  1.0000
  F   F12       1.0  0.57840  0.62538  0.80259  1.0000
  F   F13       1.0  0.83493  0.14842  0.29302  1.0000
  F   F14       1.0  0.83521  0.14426  0.79002  1.0000
  F   F15       1.0  0.83128  0.63183  0.30426  1.0000
  F   F16       1.0  0.82477  0.62170  0.81363  1.0000
  F   F17       1.0  0.18825  0.34417  0.44207  1.0000
  F   F18       1.0  0.18952  0.34405  0.94627  1.0000
  F   F19       1.0  0.17637  0.84701  0.45378  1.0000
  F   F20       1.0  0.19162  0.82974  0.93766  1.0000
  F   F21       1.0  0.43143  0.34290  0.45311  1.0000
  F   F22       1.0  0.43480  0.32884  0.95113  1.0000
  F   F23       1.0  0.43714  0.84492  0.44691  1.0000
  F   F24       1.0  0.43852  0.84355  0.94050  1.0000
  F   F25       1.0  0.68705  0.34218  0.44823  1.0000
  F   F26       1.0  0.68868  0.34680  0.95090  1.0000
  F   F27       1.0  0.68587  0.84007  0.45392  1.0000
  F   F28       1.0  0.67636  0.84005  0.95254  1.0000
  F   F29       1.0  0.93548  0.34959  0.44374  1.0000
  F   F30       1.0  0.94288  0.34379  0.93289  1.0000
  F   F31       1.0  0.94118  0.83138  0.44561  1.0000
  F   F32       1.0  0.93691  0.83883  0.94650  1.0000
  F   F33       1.0  0.17405  0.36231  0.19720  1.0000
  F   F34       1.0  0.16525  0.36267  0.70823  1.0000
  F   F35       1.0  0.16854  0.86529  0.20058  1.0000
  F   F36       1.0  0.17595  0.88477  0.68429  1.0000
  F   F37       1.0  0.41897  0.37686  0.19499  1.0000
  F   F38       1.0  0.41825  0.37194  0.69826  1.0000
  F   F39       1.0  0.42242  0.88497  0.19012  1.0000
  F   F40       1.0  0.42576  0.88766  0.68250  1.0000
  F   F41       1.0  0.66514  0.36789  0.19953  1.0000
  F   F42       1.0  0.66970  0.36878  0.69576  1.0000
  F   F43       1.0  0.66908  0.87824  0.19611  1.0000
  F   F44       1.0  0.67901  0.87645  0.68563  1.0000
  F   F45       1.0  0.91803  0.36966  0.20409  1.0000
  F   F46       1.0  0.92043  0.37251  0.68524  1.0000
  F   F47       1.0  0.92036  0.87328  0.19831  1.0000
  F   F48       1.0  0.91990  0.86073  0.70870  1.0000
  F   F49       1.0  0.05384  0.14734  0.07029  1.0000
  F   F50       1.0  0.06159  0.14856  0.56049  1.0000
  F   F51       1.0  0.07639  0.67047  0.02623  1.0000
  F   F52       1.0  0.06229  0.64259  0.55387  1.0000
  F   F53       1.0  0.31987  0.16488  0.04694  1.0000
  F   F54       1.0  0.30876  0.14988  0.56170  1.0000
  F   F55       1.0  0.32737  0.67684  0.03353  1.0000
  F   F56       1.0  0.31536  0.66981  0.55288  1.0000
  F   F57       1.0  0.56338  0.15621  0.05148  1.0000
  F   F58       1.0  0.56908  0.16775  0.54600  1.0000
  F   F59       1.0  0.57290  0.66768  0.03848  1.0000
  F   F60       1.0  0.56780  0.66277  0.54351  1.0000
  F   F61       1.0  0.80260  0.14821  0.07695  1.0000
  F   F62       1.0  0.80522  0.14607  0.56536  1.0000
  F   F63       1.0  0.81279  0.64993  0.06113  1.0000
  F   F64       1.0  0.82454  0.66816  0.55582  1.0000
  F   F65       1.0  0.20559  0.20377  0.21524  1.0000
  F   F66       1.0  0.20515  0.20125  0.70674  1.0000
  F   F67       1.0  0.20745  0.69550  0.21788  1.0000
  F   F68       1.0  0.20638  0.70520  0.70707  1.0000
  F   F69       1.0  0.44563  0.20031  0.20636  1.0000
  F   F70       1.0  0.45831  0.20525  0.71707  1.0000
  F   F71       1.0  0.45398  0.70507  0.21109  1.0000
  F   F72       1.0  0.46278  0.70702  0.71094  1.0000
  F   F73       1.0  0.70870  0.19983  0.20915  1.0000
  F   F74       1.0  0.70137  0.19260  0.71066  1.0000
  F   F75       1.0  0.69772  0.71219  0.19768  1.0000
  F   F76       1.0  0.69895  0.70404  0.71090  1.0000
  F   F77       1.0  0.95513  0.18972  0.22250  1.0000
  F   F78       1.0  0.94012  0.20205  0.71323  1.0000
  F   F79       1.0  0.95446  0.70734  0.20542  1.0000
  F   F80       1.0  0.95736  0.70418  0.71724  1.0000
  F   F81       1.0  0.14165  0.08921  0.04152  1.0000
  F   F82       1.0  0.15315  0.06801  0.54102  1.0000
  F   F83       1.0  0.15420  0.61525  0.02211  1.0000
  F   F84       1.0  0.15172  0.58608  0.53807  1.0000
  F   F85       1.0  0.40049  0.08498  0.03148  1.0000
  F   F86       1.0  0.40449  0.08716  0.53531  1.0000
  F   F87       1.0  0.40443  0.58557  0.04433  1.0000
  F   F88       1.0  0.40145  0.59783  0.54608  1.0000
  F   F89       1.0  0.65047  0.09385  0.03132  1.0000
  F   F90       1.0  0.64808  0.11236  0.52722  1.0000
  F   F91       1.0  0.64671  0.58236  0.03199  1.0000
  F   F92       1.0  0.65037  0.59095  0.53539  1.0000
  F   F93       1.0  0.89140  0.07768  0.05528  1.0000
  F   F94       1.0  0.89682  0.08989  0.53175  1.0000
  F   F95       1.0  0.89516  0.58639  0.04672  1.0000
  F   F96       1.0  0.90507  0.59914  0.54525  1.0000
  F   F97       1.0  0.15748  0.18621  0.12139  1.0000
  F   F98       1.0  0.15792  0.18785  0.61498  1.0000
  F   F99       1.0  0.15629  0.69618  0.10781  1.0000
  F   F100      1.0  0.15319  0.69305  0.62209  1.0000
  F   F101      1.0  0.40068  0.19191  0.11381  1.0000
  F   F102      1.0  0.40476  0.18586  0.62963  1.0000
  F   F103      1.0  0.39813  0.70381  0.11310  1.0000
  F   F104      1.0  0.39933  0.70829  0.62720  1.0000
  F   F105      1.0  0.65002  0.19595  0.14656  1.0000
  F   F106      1.0  0.65150  0.20413  0.61815  1.0000
  F   F107      1.0  0.65435  0.69089  0.11396  1.0000
  F   F108      1.0  0.64933  0.69932  0.62085  1.0000
  F   F109      1.0  0.90544  0.19468  0.11134  1.0000
  F   F110      1.0  0.89761  0.19995  0.60719  1.0000
  F   F111      1.0  0.90279  0.69851  0.11030  1.0000
  F   F112      1.0  0.91084  0.70286  0.62508  1.0000
  F   F113      1.0  0.09569  0.30393  0.37469  1.0000
  F   F114      1.0  0.09511  0.30340  0.89449  1.0000
  F   F115      1.0  0.09608  0.79578  0.40756  1.0000
  F   F116      1.0  0.09989  0.80083  0.85173  1.0000
  F   F117      1.0  0.35361  0.29247  0.37132  1.0000
  F   F118      1.0  0.34735  0.29250  0.88621  1.0000
  F   F119      1.0  0.35068  0.79343  0.38057  1.0000
  F   F120      1.0  0.35089  0.81322  0.86521  1.0000
  F   F121      1.0  0.59815  0.29200  0.38164  1.0000
  F   F122      1.0  0.59557  0.31695  0.86813  1.0000
  F   F123      1.0  0.60530  0.80391  0.38998  1.0000
  F   F124      1.0  0.59985  0.81202  0.88205  1.0000
  F   F125      1.0  0.84179  0.30009  0.38979  1.0000
  F   F126      1.0  0.84462  0.29646  0.87158  1.0000
  F   F127      1.0  0.84887  0.81600  0.37275  1.0000
  F   F128      1.0  0.85049  0.80073  0.89942  1.0000
  F   F129      1.0  0.07542  0.24762  0.12865  1.0000
  F   F130      1.0  0.07381  0.25115  0.62734  1.0000
  F   F131      1.0  0.06253  0.74372  0.15193  1.0000
  F   F132      1.0  0.05978  0.74410  0.64563  1.0000
  F   F133      1.0  0.31520  0.25393  0.13529  1.0000
  F   F134      1.0  0.31956  0.25341  0.62985  1.0000
  F   F135      1.0  0.30375  0.73810  0.15483  1.0000
  F   F136      1.0  0.31293  0.74807  0.65104  1.0000
  F   F137      1.0  0.57241  0.24930  0.13744  1.0000
  F   F138      1.0  0.55716  0.25113  0.64630  1.0000
  F   F139      1.0  0.56611  0.75763  0.14091  1.0000
  F   F140      1.0  0.55684  0.74921  0.64719  1.0000
  F   F141      1.0  0.81046  0.25842  0.13838  1.0000
  F   F142      1.0  0.81481  0.25917  0.63512  1.0000
  F   F143      1.0  0.82123  0.75834  0.14130  1.0000
  F   F144      1.0  0.81272  0.75451  0.65847  1.0000
  F   F145      1.0  0.12417  0.34960  0.13704  1.0000
  F   F146      1.0  0.12629  0.35920  0.60456  1.0000
  F   F147      1.0  0.12185  0.84626  0.12767  1.0000
  F   F148      1.0  0.11921  0.84391  0.63496  1.0000
  F   F149      1.0  0.37259  0.34927  0.11423  1.0000
  F   F150      1.0  0.37388  0.35241  0.61299  1.0000
  F   F151      1.0  0.37437  0.86286  0.12415  1.0000
  F   F152      1.0  0.37448  0.87669  0.59789  1.0000
  F   F153      1.0  0.62693  0.38330  0.09679  1.0000
  F   F154      1.0  0.62430  0.37920  0.60366  1.0000
  F   F155      1.0  0.62153  0.87601  0.09918  1.0000
  F   F156      1.0  0.62113  0.85787  0.62523  1.0000
  F   F157      1.0  0.86958  0.36305  0.11686  1.0000
  F   F158      1.0  0.87311  0.38589  0.59691  1.0000
  F   F159      1.0  0.87640  0.86366  0.11203  1.0000
  F   F160      1.0  0.87733  0.88023  0.59505  1.0000
  F   F161      1.0  0.19058  0.23631  0.36738  1.0000
  F   F162      1.0  0.17572  0.24691  0.87668  1.0000
  F   F163      1.0  0.18432  0.74880  0.35875  1.0000
  F   F164      1.0  0.18636  0.74850  0.84567  1.0000
  F   F165      1.0  0.44048  0.24415  0.35195  1.0000
  F   F166      1.0  0.42248  0.24903  0.86623  1.0000
  F   F167      1.0  0.43741  0.74167  0.36744  1.0000
  F   F168      1.0  0.43759  0.74598  0.86343  1.0000
  F   F169      1.0  0.69421  0.25640  0.34891  1.0000
  F   F170      1.0  0.68937  0.26135  0.84203  1.0000
  F   F171      1.0  0.68775  0.75143  0.35418  1.0000
  F   F172      1.0  0.68422  0.75101  0.85576  1.0000
  F   F173      1.0  0.93482  0.26046  0.35159  1.0000
  F   F174      1.0  0.92776  0.24460  0.86611  1.0000
  F   F175      1.0  0.94316  0.74501  0.34081  1.0000
  F   F176      1.0  0.93753  0.74919  0.86217  1.0000
  F   F177      1.0  0.12810  0.13094  0.38452  1.0000
  F   F178      1.0  0.12518  0.13848  0.88377  1.0000
  F   F179      1.0  0.12361  0.61359  0.39926  1.0000
  F   F180      1.0  0.12679  0.62048  0.87788  1.0000
  F   F181      1.0  0.37685  0.12170  0.39994  1.0000
  F   F182      1.0  0.37395  0.10869  0.89677  1.0000
  F   F183      1.0  0.37722  0.62926  0.39099  1.0000
  F   F184      1.0  0.38221  0.63351  0.86869  1.0000
  F   F185      1.0  0.62913  0.13034  0.37648  1.0000
  F   F186      1.0  0.62500  0.15342  0.88446  1.0000
  F   F187      1.0  0.62758  0.64022  0.37367  1.0000
  F   F188      1.0  0.62708  0.65342  0.87210  1.0000
  F   F189      1.0  0.87206  0.14070  0.39242  1.0000
  F   F190      1.0  0.87289  0.12202  0.90139  1.0000
  F   F191      1.0  0.87660  0.63896  0.39551  1.0000
  F   F192      1.0  0.87064  0.64169  0.88390  1.0000
  F   F193      1.0  0.00662  0.35994  0.09179  1.0000
  F   F194      1.0  0.00390  0.34613  0.58816  1.0000
  F   F195      1.0  0.00759  0.85938  0.08137  1.0000
  F   F196      1.0  0.01381  0.86495  0.56620  1.0000
  F   F197      1.0  0.26075  0.36535  0.05830  1.0000
  F   F198      1.0  0.25630  0.36847  0.57608  1.0000
  F   F199      1.0  0.25575  0.86191  0.07098  1.0000
  F   F200      1.0  0.25563  0.85451  0.58974  1.0000
  F   F201      1.0  0.50578  0.35566  0.08497  1.0000
  F   F202      1.0  0.50571  0.37359  0.56263  1.0000
  F   F203      1.0  0.50893  0.85912  0.06086  1.0000
  F   F204      1.0  0.50714  0.87290  0.56851  1.0000
  F   F205      1.0  0.75528  0.38201  0.06903  1.0000
  F   F206      1.0  0.75899  0.37678  0.56381  1.0000
  F   F207      1.0  0.76023  0.85974  0.08234  1.0000
  F   F208      1.0  0.76017  0.86877  0.56287  1.0000
  F   F209      1.0  0.07810  0.49827  0.14940  1.0000
  F   F210      1.0  0.07419  0.48022  0.65431  1.0000
  F   F211      1.0  0.06689  0.97707  0.17690  1.0000
  F   F212      1.0  0.06967  0.98254  0.68134  1.0000
  F   F213      1.0  0.32544  0.48398  0.16198  1.0000
  F   F214      1.0  0.32375  0.48318  0.66700  1.0000
  F   F215      1.0  0.32137  0.98822  0.16527  1.0000
  F   F216      1.0  0.31620  0.98183  0.68106  1.0000
  F   F217      1.0  0.57026  0.48793  0.16881  1.0000
  F   F218      1.0  0.56713  0.49555  0.67279  1.0000
  F   F219      1.0  0.56950  0.98597  0.17078  1.0000
  F   F220      1.0  0.57237  0.99089  0.66589  1.0000
  F   F221      1.0  0.82062  0.49073  0.17039  1.0000
  F   F222      1.0  0.81273  0.49484  0.67709  1.0000
  F   F223      1.0  0.81295  0.98145  0.18698  1.0000
  F   F224      1.0  0.81841  0.99025  0.67219  1.0000
  F   F225      1.0  0.24311  0.12828  0.43556  1.0000
  F   F226      1.0  0.24249  0.14588  0.92051  1.0000
  F   F227      1.0  0.24499  0.63877  0.41539  1.0000
  F   F228      1.0  0.24392  0.61742  0.92628  1.0000
  F   F229      1.0  0.49582  0.14103  0.41747  1.0000
  F   F230      1.0  0.49434  0.14995  0.90700  1.0000
  F   F231      1.0  0.49653  0.62618  0.41810  1.0000
  F   F232      1.0  0.49208  0.62951  0.94165  1.0000
  F   F233      1.0  0.73841  0.14421  0.43674  1.0000
  F   F234      1.0  0.74361  0.14544  0.92415  1.0000
  F   F235      1.0  0.74576  0.64322  0.41926  1.0000
  F   F236      1.0  0.73700  0.63537  0.95159  1.0000
  F   F237      1.0  0.98789  0.14195  0.42420  1.0000
  F   F238      1.0  0.99006  0.13003  0.93087  1.0000
  F   F239      1.0  0.99853  0.63382  0.42581  1.0000
  F   F240      1.0  0.98760  0.63295  0.92696  1.0000
  F   F241      1.0  0.17760  0.02117  0.31702  1.0000
  F   F242      1.0  0.17831  0.01179  0.82794  1.0000
  F   F243      1.0  0.18100  0.52186  0.31380  1.0000
  F   F244      1.0  0.18571  0.51056  0.81090  1.0000
  F   F245      1.0  0.43522  0.01383  0.30705  1.0000
  F   F246      1.0  0.42929  0.01068  0.82264  1.0000
  F   F247      1.0  0.43063  0.51030  0.32411  1.0000
  F   F248      1.0  0.43528  0.50286  0.83714  1.0000
  F   F249      1.0  0.69099  0.01603  0.31729  1.0000
  F   F250      1.0  0.69009  0.00486  0.81837  1.0000
  F   F251      1.0  0.67677  0.52197  0.32503  1.0000
  F   F252      1.0  0.66955  0.52816  0.82418  1.0000
  F   F253      1.0  0.92661  0.00179  0.33732  1.0000
  F   F254      1.0  0.93546  0.02698  0.81132  1.0000
  F   F255      1.0  0.93187  0.51914  0.32171  1.0000
  F   F256      1.0  0.92920  0.51621  0.82755  1.0000
  F   F257      1.0  0.99909  0.25636  0.99713  1.0000
  F   F258      1.0  0.99772  0.24429  0.49766  1.0000
  F   F259      1.0  0.99790  0.72696  0.01380  1.0000
  F   F260      1.0  0.00563  0.76304  0.49430  1.0000
  F   F261      1.0  0.24783  0.24713  0.99853  1.0000
  F   F262      1.0  0.25442  0.25415  0.49759  1.0000
  F   F263      1.0  0.25156  0.73450  0.00868  1.0000
  F   F264      1.0  0.25371  0.76023  0.50062  1.0000
  F   F265      1.0  0.50604  0.26763  0.99319  1.0000
  F   F266      1.0  0.50256  0.26854  0.49234  1.0000
  F   F267      1.0  0.50120  0.74108  0.00126  1.0000
  F   F268      1.0  0.49810  0.74052  0.50602  1.0000
  F   F269      1.0  0.75147  0.25177  0.00248  1.0000
  F   F270      1.0  0.74998  0.25911  0.50134  1.0000
  F   F271      1.0  0.74702  0.78313  0.99269  1.0000
  F   F272      1.0  0.74978  0.73266  0.52170  1.0000
  F   F273      1.0  0.11883  0.99336  0.25505  1.0000
  F   F274      1.0  0.11621  0.99645  0.76752  1.0000
  F   F275      1.0  0.13210  0.49173  0.23953  1.0000
  F   F276      1.0  0.11753  0.49980  0.76425  1.0000
  F   F277      1.0  0.37123  0.00459  0.26370  1.0000
  F   F278      1.0  0.36989  0.00472  0.75149  1.0000
  F   F279      1.0  0.37170  0.49379  0.26305  1.0000
  F   F280      1.0  0.37229  0.49670  0.75025  1.0000
  F   F281      1.0  0.62281  0.00090  0.26243  1.0000
  F   F282      1.0  0.62939  0.01711  0.74475  1.0000
  F   F283      1.0  0.63009  0.50426  0.23236  1.0000
  F   F284      1.0  0.62854  0.50774  0.73801  1.0000
  F   F285      1.0  0.87345  0.99984  0.24795  1.0000
  F   F286      1.0  0.87683  0.99877  0.74549  1.0000
  F   F287      1.0  0.87182  0.49632  0.25455  1.0000
  F   F288      1.0  0.87698  0.50124  0.74573  1.0000
  F   F289      1.0  0.04425  0.02176  0.02501  1.0000
  F   F290      1.0  0.04363  0.02921  0.52139  1.0000
  F   F291      1.0  0.04010  0.52449  0.02397  1.0000
  F   F292      1.0  0.04037  0.52054  0.52182  1.0000
  F   F293      1.0  0.28502  0.03562  0.04364  1.0000
  F   F294      1.0  0.30472  0.02896  0.51412  1.0000
  F   F295      1.0  0.29428  0.53928  0.03096  1.0000
  F   F296      1.0  0.28644  0.54723  0.52133  1.0000
  F   F297      1.0  0.53422  0.03609  0.02160  1.0000
  F   F298      1.0  0.54183  0.03832  0.51595  1.0000
  F   F299      1.0  0.54320  0.51687  0.02610  1.0000
  F   F300      1.0  0.54535  0.52909  0.52404  1.0000
  F   F301      1.0  0.78716  0.02457  0.02762  1.0000
  F   F302      1.0  0.78891  0.03317  0.51397  1.0000
  F   F303      1.0  0.79723  0.53462  0.01723  1.0000
  F   F304      1.0  0.79221  0.53751  0.51546  1.0000
  F   F305      1.0  0.23417  0.42041  0.21092  1.0000
  F   F306      1.0  0.23492  0.40206  0.73443  1.0000
  F   F307      1.0  0.22970  0.92454  0.21904  1.0000
  F   F308      1.0  0.23264  0.91632  0.72938  1.0000
  F   F309      1.0  0.48413  0.40617  0.23592  1.0000
  F   F310      1.0  0.48273  0.39678  0.73689  1.0000
  F   F311      1.0  0.49095  0.91028  0.21829  1.0000
  F   F312      1.0  0.48758  0.92122  0.72084  1.0000
  F   F313      1.0  0.72935  0.42753  0.22633  1.0000
  F   F314      1.0  0.73196  0.43111  0.72063  1.0000
  F   F315      1.0  0.73547  0.89557  0.24169  1.0000
  F   F316      1.0  0.74109  0.89497  0.73978  1.0000
  F   F317      1.0  0.98782  0.42475  0.22153  1.0000
  F   F318      1.0  0.98236  0.41377  0.72883  1.0000
  F   F319      1.0  0.98641  0.91583  0.22328  1.0000
  F   F320      1.0  0.98678  0.91038  0.71904  1.0000
  F   F321      1.0  0.20946  0.46399  0.47232  1.0000
  F   F322      1.0  0.20050  0.47167  0.97938  1.0000
  F   F323      1.0  0.20861  0.96497  0.46811  1.0000
  F   F324      1.0  0.19820  0.96207  0.98467  1.0000
  F   F325      1.0  0.45373  0.47136  0.47667  1.0000
  F   F326      1.0  0.46092  0.46295  0.97858  1.0000
  F   F327      1.0  0.45843  0.97471  0.47113  1.0000
  F   F328      1.0  0.45400  0.97164  0.97131  1.0000
  F   F329      1.0  0.70831  0.47802  0.46688  1.0000
  F   F330      1.0  0.70959  0.48317  0.95737  1.0000
  F   F331      1.0  0.69512  0.97038  0.48363  1.0000
  F   F332      1.0  0.70707  0.98320  0.97369  1.0000
  F   F333      1.0  0.96168  0.47207  0.46423  1.0000
  F   F334      1.0  0.95180  0.45468  0.99446  1.0000
  F   F335      1.0  0.95677  0.97881  0.47825  1.0000
  F   F336      1.0  0.95900  0.96777  0.97705  1.0000
  F   F337      1.0  0.01395  0.08157  0.27465  1.0000
  F   F338      1.0  0.00944  0.10598  0.76113  1.0000
  F   F339      1.0  0.02008  0.58893  0.26295  1.0000
  F   F340      1.0  0.01624  0.56931  0.78388  1.0000
  F   F341      1.0  0.27184  0.09004  0.26145  1.0000
  F   F342      1.0  0.25806  0.07510  0.78542  1.0000
  F   F343      1.0  0.27110  0.56931  0.27943  1.0000
  F   F344      1.0  0.26510  0.58687  0.75980  1.0000
  F   F345      1.0  0.51256  0.08487  0.25853  1.0000
  F   F346      1.0  0.51596  0.09076  0.77420  1.0000
  F   F347      1.0  0.51694  0.59625  0.25756  1.0000
  F   F348      1.0  0.51365  0.58506  0.78877  1.0000
  F   F349      1.0  0.76750  0.09227  0.29120  1.0000
  F   F350      1.0  0.76373  0.09607  0.78073  1.0000
  F   F351      1.0  0.76512  0.58276  0.27433  1.0000
  F   F352      1.0  0.76050  0.60305  0.77804  1.0000
  F   F353      1.0  0.10171  0.41274  0.45892  1.0000
  F   F354      1.0  0.10369  0.40636  0.97841  1.0000
  F   F355      1.0  0.10442  0.92132  0.46603  1.0000
  F   F356      1.0  0.09711  0.89588  0.96656  1.0000
  F   F357      1.0  0.34201  0.41172  0.46401  1.0000
  F   F358      1.0  0.35397  0.42024  0.95498  1.0000
  F   F359      1.0  0.35361  0.89650  0.45773  1.0000
  F   F360      1.0  0.34786  0.91501  0.97128  1.0000
  F   F361      1.0  0.60025  0.40278  0.46439  1.0000
  F   F362      1.0  0.60027  0.40487  0.96488  1.0000
  F   F363      1.0  0.60889  0.92945  0.46789  1.0000
  F   F364      1.0  0.60325  0.92704  0.94147  1.0000
  F   F365      1.0  0.85101  0.42388  0.44906  1.0000
  F   F366      1.0  0.85045  0.40196  0.96153  1.0000
  F   F367      1.0  0.84735  0.89950  0.46485  1.0000
  F   F368      1.0  0.85733  0.93073  0.95170  1.0000
  F   F369      1.0  0.03579  0.29184  0.28565  1.0000
  F   F370      1.0  0.04917  0.29820  0.78560  1.0000
  F   F371      1.0  0.05002  0.78941  0.29309  1.0000
  F   F372      1.0  0.03605  0.79119  0.80295  1.0000
  F   F373      1.0  0.28751  0.29540  0.29438  1.0000
  F   F374      1.0  0.29692  0.29418  0.77712  1.0000
  F   F375      1.0  0.29986  0.81025  0.27758  1.0000
  F   F376      1.0  0.28896  0.78821  0.79720  1.0000
  F   F377      1.0  0.54518  0.29397  0.28483  1.0000
  F   F378      1.0  0.53873  0.31328  0.79686  1.0000
  F   F379      1.0  0.55296  0.79964  0.29614  1.0000
  F   F380      1.0  0.54008  0.80397  0.80079  1.0000
  F   F381      1.0  0.79395  0.30969  0.28886  1.0000
  F   F382      1.0  0.79345  0.30273  0.78535  1.0000
  F   F383      1.0  0.80097  0.79361  0.30155  1.0000
  F   F384      1.0  0.80625  0.79829  0.79316  1.0000
