data_image0
_chemical_formula_structural       Hf96F384
_chemical_formula_sum              "Hf96 F384"
_cell_length_a       31.0051
_cell_length_b       15.5042
_cell_length_c       15.4982
_cell_angle_alpha    63.342
_cell_angle_beta     63.342
_cell_angle_gamma    80.1625

_space_group_name_H-M_alt    "P 1"
_space_group_IT_number       1

loop_
  _space_group_symop_operation_xyz
  'x, y, z'

loop_
  _atom_site_type_symbol
  _atom_site_label
  _atom_site_symmetry_multiplicity
  _atom_site_fract_x
  _atom_site_fract_y
  _atom_site_fract_z
  _atom_site_occupancy
  Hf  Hf1       1.0  0.19770  0.11338  0.36854  1.0000
  Hf  Hf2       1.0  0.19621  0.10555  0.87441  1.0000
  Hf  Hf3       1.0  0.19969  0.60016  0.37392  1.0000
  Hf  Hf4       1.0  0.19566  0.61077  0.88109  1.0000
  Hf  Hf5       1.0  0.44678  0.10856  0.37461  1.0000
  Hf  Hf6       1.0  0.44749  0.11716  0.86874  1.0000
  Hf  Hf7       1.0  0.44445  0.60132  0.39055  1.0000
  Hf  Hf8       1.0  0.44686  0.61175  0.87592  1.0000
  Hf  Hf9       1.0  0.69698  0.10690  0.37592  1.0000
  Hf  Hf10      1.0  0.69834  0.10955  0.86825  1.0000
  Hf  Hf11      1.0  0.69763  0.61466  0.36793  1.0000
  Hf  Hf12      1.0  0.69586  0.60003  0.88212  1.0000
  Hf  Hf13      1.0  0.94681  0.11903  0.37390  1.0000
  Hf  Hf14      1.0  0.94662  0.10197  0.87773  1.0000
  Hf  Hf15      1.0  0.94443  0.61001  0.37883  1.0000
  Hf  Hf16      1.0  0.94440  0.61139  0.87202  1.0000
  Hf  Hf17      1.0  0.05079  0.38867  0.12954  1.0000
  Hf  Hf18      1.0  0.05475  0.39487  0.62819  1.0000
  Hf  Hf19      1.0  0.05763  0.88914  0.12410  1.0000
  Hf  Hf20      1.0  0.05858  0.88928  0.62477  1.0000
  Hf  Hf21      1.0  0.30274  0.38910  0.13018  1.0000
  Hf  Hf22      1.0  0.30323  0.39038  0.62950  1.0000
  Hf  Hf23      1.0  0.30122  0.88962  0.12371  1.0000
  Hf  Hf24      1.0  0.30826  0.90201  0.60903  1.0000
  Hf  Hf25      1.0  0.55506  0.38912  0.12884  1.0000
  Hf  Hf26      1.0  0.55320  0.39781  0.62047  1.0000
  Hf  Hf27      1.0  0.55892  0.89945  0.10917  1.0000
  Hf  Hf28      1.0  0.55381  0.89722  0.61861  1.0000
  Hf  Hf29      1.0  0.80342  0.39060  0.12649  1.0000
  Hf  Hf30      1.0  0.80404  0.39428  0.62867  1.0000
  Hf  Hf31      1.0  0.80095  0.88935  0.12135  1.0000
  Hf  Hf32      1.0  0.80439  0.88869  0.63236  1.0000
  Hf  Hf33      1.0  0.05492  0.18048  0.41882  1.0000
  Hf  Hf34      1.0  0.05606  0.17417  0.91864  1.0000
  Hf  Hf35      1.0  0.05546  0.67928  0.42181  1.0000
  Hf  Hf36      1.0  0.05630  0.68099  0.91682  1.0000
  Hf  Hf37      1.0  0.30531  0.18425  0.41913  1.0000
  Hf  Hf38      1.0  0.30465  0.18016  0.92138  1.0000
  Hf  Hf39      1.0  0.30844  0.68076  0.41812  1.0000
  Hf  Hf40      1.0  0.30690  0.68420  0.91667  1.0000
  Hf  Hf41      1.0  0.55892  0.18520  0.41347  1.0000
  Hf  Hf42      1.0  0.55675  0.18306  0.91425  1.0000
  Hf  Hf43      1.0  0.55522  0.68874  0.41319  1.0000
  Hf  Hf44      1.0  0.55725  0.68617  0.91452  1.0000
  Hf  Hf45      1.0  0.80687  0.18098  0.41626  1.0000
  Hf  Hf46      1.0  0.80478  0.18423  0.91549  1.0000
  Hf  Hf47      1.0  0.80457  0.68213  0.41225  1.0000
  Hf  Hf48      1.0  0.80508  0.68156  0.91375  1.0000
  Hf  Hf49      1.0  0.15966  0.39236  0.33356  1.0000
  Hf  Hf50      1.0  0.15392  0.37855  0.84681  1.0000
  Hf  Hf51      1.0  0.15974  0.87783  0.33917  1.0000
  Hf  Hf52      1.0  0.16259  0.88660  0.82777  1.0000
  Hf  Hf53      1.0  0.40788  0.38731  0.33313  1.0000
  Hf  Hf54      1.0  0.40737  0.38906  0.83134  1.0000
  Hf  Hf55      1.0  0.41000  0.88770  0.33190  1.0000
  Hf  Hf56      1.0  0.40958  0.89324  0.83411  1.0000
  Hf  Hf57      1.0  0.65832  0.38399  0.33782  1.0000
  Hf  Hf58      1.0  0.65547  0.39067  0.83300  1.0000
  Hf  Hf59      1.0  0.66029  0.88556  0.33069  1.0000
  Hf  Hf60      1.0  0.65942  0.89154  0.83204  1.0000
  Hf  Hf61      1.0  0.90590  0.39045  0.33705  1.0000
  Hf  Hf62      1.0  0.90590  0.37898  0.84428  1.0000
  Hf  Hf63      1.0  0.90982  0.88722  0.33088  1.0000
  Hf  Hf64      1.0  0.90715  0.88969  0.83371  1.0000
  Hf  Hf65      1.0  0.19311  0.31932  0.08371  1.0000
  Hf  Hf66      1.0  0.19467  0.31146  0.59014  1.0000
  Hf  Hf67      1.0  0.19212  0.81473  0.08467  1.0000
  Hf  Hf68      1.0  0.19762  0.82046  0.58142  1.0000
  Hf  Hf69      1.0  0.44494  0.31986  0.07679  1.0000
  Hf  Hf70      1.0  0.44446  0.32001  0.57723  1.0000
  Hf  Hf71      1.0  0.44643  0.82078  0.07710  1.0000
  Hf  Hf72      1.0  0.44529  0.81500  0.58420  1.0000
  Hf  Hf73      1.0  0.69345  0.31631  0.08842  1.0000
  Hf  Hf74      1.0  0.69327  0.31846  0.58763  1.0000
  Hf  Hf75      1.0  0.69627  0.81261  0.07877  1.0000
  Hf  Hf76      1.0  0.69181  0.81131  0.59210  1.0000
  Hf  Hf77      1.0  0.94185  0.32162  0.07769  1.0000
  Hf  Hf78      1.0  0.94439  0.31606  0.59250  1.0000
  Hf  Hf79      1.0  0.94293  0.81605  0.08154  1.0000
  Hf  Hf80      1.0  0.94619  0.82428  0.57881  1.0000
  Hf  Hf81      1.0  0.09098  0.10881  0.16714  1.0000
  Hf  Hf82      1.0  0.09134  0.11232  0.66674  1.0000
  Hf  Hf83      1.0  0.08755  0.60566  0.17524  1.0000
  Hf  Hf84      1.0  0.08836  0.60441  0.67138  1.0000
  Hf  Hf85      1.0  0.34049  0.10833  0.16560  1.0000
  Hf  Hf86      1.0  0.34154  0.11737  0.66067  1.0000
  Hf  Hf87      1.0  0.34027  0.61198  0.16404  1.0000
  Hf  Hf88      1.0  0.34271  0.61588  0.66522  1.0000
  Hf  Hf89      1.0  0.59063  0.10874  0.16809  1.0000
  Hf  Hf90      1.0  0.59446  0.11941  0.65479  1.0000
  Hf  Hf91      1.0  0.58735  0.61245  0.17346  1.0000
  Hf  Hf92      1.0  0.59023  0.61497  0.66201  1.0000
  Hf  Hf93      1.0  0.84300  0.10992  0.16465  1.0000
  Hf  Hf94      1.0  0.84062  0.11608  0.66659  1.0000
  Hf  Hf95      1.0  0.83728  0.61184  0.16277  1.0000
  Hf  Hf96      1.0  0.83881  0.61220  0.66720  1.0000
  F   F1        1.0  0.07682  0.12419  0.30186  1.0000
  F   F2        1.0  0.07448  0.10792  0.81309  1.0000
  F   F3        1.0  0.07919  0.61236  0.31397  1.0000
  F   F4        1.0  0.07806  0.60859  0.81379  1.0000
  F   F5        1.0  0.33166  0.13632  0.30641  1.0000
  F   F6        1.0  0.32754  0.13122  0.80203  1.0000
  F   F7        1.0  0.33834  0.64007  0.29564  1.0000
  F   F8        1.0  0.32858  0.63304  0.79874  1.0000
  F   F9        1.0  0.57979  0.12670  0.30566  1.0000
  F   F10       1.0  0.57609  0.12044  0.80479  1.0000
  F   F11       1.0  0.57795  0.61798  0.30948  1.0000
  F   F12       1.0  0.58362  0.62155  0.80437  1.0000
  F   F13       1.0  0.82695  0.11650  0.30468  1.0000
  F   F14       1.0  0.82652  0.12449  0.80928  1.0000
  F   F15       1.0  0.82417  0.62102  0.30730  1.0000
  F   F16       1.0  0.82419  0.62735  0.80161  1.0000
  F   F17       1.0  0.17940  0.33656  0.45596  1.0000
  F   F18       1.0  0.18475  0.34288  0.95329  1.0000
  F   F19       1.0  0.19240  0.83819  0.44144  1.0000
  F   F20       1.0  0.18446  0.83506  0.94941  1.0000
  F   F21       1.0  0.44005  0.35043  0.43956  1.0000
  F   F22       1.0  0.43537  0.33715  0.94457  1.0000
  F   F23       1.0  0.43696  0.82656  0.44500  1.0000
  F   F24       1.0  0.43864  0.84418  0.93825  1.0000
  F   F25       1.0  0.69077  0.34185  0.44282  1.0000
  F   F26       1.0  0.68241  0.33910  0.94851  1.0000
  F   F27       1.0  0.68866  0.83670  0.44032  1.0000
  F   F28       1.0  0.68372  0.83836  0.94597  1.0000
  F   F29       1.0  0.92928  0.33425  0.45824  1.0000
  F   F30       1.0  0.94191  0.34785  0.93924  1.0000
  F   F31       1.0  0.94138  0.85418  0.43611  1.0000
  F   F32       1.0  0.94122  0.84148  0.94012  1.0000
  F   F33       1.0  0.16909  0.36867  0.20142  1.0000
  F   F34       1.0  0.17420  0.36604  0.70145  1.0000
  F   F35       1.0  0.16725  0.84865  0.20980  1.0000
  F   F36       1.0  0.17838  0.88536  0.68769  1.0000
  F   F37       1.0  0.42431  0.37185  0.19165  1.0000
  F   F38       1.0  0.41765  0.36983  0.69912  1.0000
  F   F39       1.0  0.42517  0.87828  0.18686  1.0000
  F   F40       1.0  0.42574  0.87876  0.69064  1.0000
  F   F41       1.0  0.66936  0.35972  0.20920  1.0000
  F   F42       1.0  0.67019  0.37611  0.69359  1.0000
  F   F43       1.0  0.67392  0.86565  0.19384  1.0000
  F   F44       1.0  0.66484  0.86604  0.70593  1.0000
  F   F45       1.0  0.91389  0.36062  0.20189  1.0000
  F   F46       1.0  0.91947  0.37206  0.70460  1.0000
  F   F47       1.0  0.92349  0.87744  0.18996  1.0000
  F   F48       1.0  0.92657  0.87459  0.69449  1.0000
  F   F49       1.0  0.06900  0.14839  0.04914  1.0000
  F   F50       1.0  0.05898  0.15121  0.55667  1.0000
  F   F51       1.0  0.06913  0.66166  0.04816  1.0000
  F   F52       1.0  0.07004  0.65326  0.55419  1.0000
  F   F53       1.0  0.30595  0.16275  0.06522  1.0000
  F   F54       1.0  0.31010  0.16023  0.55439  1.0000
  F   F55       1.0  0.32115  0.66787  0.04772  1.0000
  F   F56       1.0  0.31335  0.65812  0.55656  1.0000
  F   F57       1.0  0.57088  0.17080  0.04065  1.0000
  F   F58       1.0  0.56992  0.16289  0.53934  1.0000
  F   F59       1.0  0.55763  0.66246  0.05903  1.0000
  F   F60       1.0  0.56225  0.65348  0.54736  1.0000
  F   F61       1.0  0.81436  0.15725  0.06090  1.0000
  F   F62       1.0  0.82223  0.15983  0.54875  1.0000
  F   F63       1.0  0.80126  0.65049  0.05893  1.0000
  F   F64       1.0  0.81798  0.65751  0.55077  1.0000
  F   F65       1.0  0.20800  0.20005  0.20549  1.0000
  F   F66       1.0  0.20497  0.19650  0.71668  1.0000
  F   F67       1.0  0.21190  0.69544  0.20704  1.0000
  F   F68       1.0  0.19996  0.70816  0.70877  1.0000
  F   F69       1.0  0.45539  0.21391  0.21637  1.0000
  F   F70       1.0  0.44355  0.19840  0.72056  1.0000
  F   F71       1.0  0.44725  0.70987  0.20287  1.0000
  F   F72       1.0  0.45803  0.69666  0.70422  1.0000
  F   F73       1.0  0.70509  0.20104  0.21405  1.0000
  F   F74       1.0  0.70039  0.20278  0.72168  1.0000
  F   F75       1.0  0.69622  0.69603  0.21003  1.0000
  F   F76       1.0  0.70345  0.69436  0.70523  1.0000
  F   F77       1.0  0.95395  0.20073  0.20554  1.0000
  F   F78       1.0  0.95109  0.19777  0.72353  1.0000
  F   F79       1.0  0.94983  0.70035  0.22554  1.0000
  F   F80       1.0  0.94439  0.70096  0.71771  1.0000
  F   F81       1.0  0.15027  0.07285  0.05561  1.0000
  F   F82       1.0  0.15084  0.11536  0.52802  1.0000
  F   F83       1.0  0.14839  0.58713  0.04251  1.0000
  F   F84       1.0  0.15267  0.57278  0.54004  1.0000
  F   F85       1.0  0.39873  0.11481  0.03016  1.0000
  F   F86       1.0  0.39805  0.08746  0.54905  1.0000
  F   F87       1.0  0.40258  0.59037  0.02747  1.0000
  F   F88       1.0  0.40305  0.58580  0.54904  1.0000
  F   F89       1.0  0.65064  0.07885  0.05001  1.0000
  F   F90       1.0  0.64744  0.10584  0.53350  1.0000
  F   F91       1.0  0.64331  0.58915  0.03607  1.0000
  F   F92       1.0  0.65024  0.59595  0.53770  1.0000
  F   F93       1.0  0.90019  0.09678  0.03557  1.0000
  F   F94       1.0  0.90274  0.08250  0.54481  1.0000
  F   F95       1.0  0.89030  0.59698  0.02660  1.0000
  F   F96       1.0  0.89845  0.58522  0.53684  1.0000
  F   F97       1.0  0.15222  0.20063  0.12364  1.0000
  F   F98       1.0  0.14403  0.20209  0.63585  1.0000
  F   F99       1.0  0.14839  0.69315  0.13337  1.0000
  F   F100      1.0  0.14603  0.69768  0.61493  1.0000
  F   F101      1.0  0.40562  0.18900  0.13377  1.0000
  F   F102      1.0  0.39962  0.21248  0.61151  1.0000
  F   F103      1.0  0.39632  0.70186  0.09718  1.0000
  F   F104      1.0  0.39751  0.69854  0.63145  1.0000
  F   F105      1.0  0.65588  0.20617  0.12910  1.0000
  F   F106      1.0  0.65515  0.20531  0.62748  1.0000
  F   F107      1.0  0.64754  0.69670  0.11324  1.0000
  F   F108      1.0  0.65364  0.70464  0.61098  1.0000
  F   F109      1.0  0.89840  0.20122  0.12440  1.0000
  F   F110      1.0  0.90240  0.19634  0.63423  1.0000
  F   F111      1.0  0.90013  0.70043  0.11980  1.0000
  F   F112      1.0  0.90034  0.69640  0.61129  1.0000
  F   F113      1.0  0.09777  0.30408  0.36876  1.0000
  F   F114      1.0  0.09951  0.29413  0.86878  1.0000
  F   F115      1.0  0.09770  0.79254  0.39035  1.0000
  F   F116      1.0  0.10083  0.80859  0.87884  1.0000
  F   F117      1.0  0.34422  0.30183  0.37631  1.0000
  F   F118      1.0  0.34560  0.30344  0.88117  1.0000
  F   F119      1.0  0.35462  0.80632  0.36309  1.0000
  F   F120      1.0  0.35105  0.81317  0.87561  1.0000
  F   F121      1.0  0.59426  0.30927  0.37712  1.0000
  F   F122      1.0  0.59843  0.30663  0.87068  1.0000
  F   F123      1.0  0.60711  0.79189  0.38405  1.0000
  F   F124      1.0  0.60257  0.81052  0.87835  1.0000
  F   F125      1.0  0.84556  0.31042  0.38271  1.0000
  F   F126      1.0  0.84509  0.29866  0.87713  1.0000
  F   F127      1.0  0.84575  0.79255  0.36863  1.0000
  F   F128      1.0  0.84829  0.79959  0.88055  1.0000
  F   F129      1.0  0.05910  0.24513  0.14740  1.0000
  F   F130      1.0  0.06787  0.24548  0.63809  1.0000
  F   F131      1.0  0.06417  0.74926  0.14660  1.0000
  F   F132      1.0  0.05850  0.74698  0.66175  1.0000
  F   F133      1.0  0.31527  0.24797  0.14523  1.0000
  F   F134      1.0  0.31242  0.25451  0.63888  1.0000
  F   F135      1.0  0.30864  0.75314  0.15453  1.0000
  F   F136      1.0  0.30953  0.76100  0.62862  1.0000
  F   F137      1.0  0.57216  0.25407  0.13418  1.0000
  F   F138      1.0  0.56818  0.25745  0.62943  1.0000
  F   F139      1.0  0.56244  0.75416  0.14478  1.0000
  F   F140      1.0  0.56505  0.74969  0.63514  1.0000
  F   F141      1.0  0.81431  0.25004  0.15608  1.0000
  F   F142      1.0  0.81458  0.25508  0.64216  1.0000
  F   F143      1.0  0.80963  0.74871  0.14056  1.0000
  F   F144      1.0  0.80749  0.74852  0.65049  1.0000
  F   F145      1.0  0.12113  0.37837  0.10296  1.0000
  F   F146      1.0  0.12366  0.38526  0.60900  1.0000
  F   F147      1.0  0.12588  0.87377  0.10994  1.0000
  F   F148      1.0  0.12849  0.85408  0.62883  1.0000
  F   F149      1.0  0.37351  0.36431  0.11910  1.0000
  F   F150      1.0  0.37553  0.38003  0.59930  1.0000
  F   F151      1.0  0.37726  0.85052  0.11638  1.0000
  F   F152      1.0  0.37399  0.86906  0.59667  1.0000
  F   F153      1.0  0.62735  0.37454  0.11056  1.0000
  F   F154      1.0  0.62976  0.38983  0.59093  1.0000
  F   F155      1.0  0.62636  0.86299  0.09747  1.0000
  F   F156      1.0  0.62564  0.88532  0.59694  1.0000
  F   F157      1.0  0.87300  0.37795  0.10890  1.0000
  F   F158      1.0  0.87613  0.36796  0.61191  1.0000
  F   F159      1.0  0.87259  0.87191  0.09628  1.0000
  F   F160      1.0  0.87687  0.86183  0.62012  1.0000
  F   F161      1.0  0.19010  0.25683  0.34327  1.0000
  F   F162      1.0  0.17484  0.24032  0.87904  1.0000
  F   F163      1.0  0.18146  0.74463  0.37478  1.0000
  F   F164      1.0  0.18794  0.75209  0.85493  1.0000
  F   F165      1.0  0.43251  0.25069  0.37350  1.0000
  F   F166      1.0  0.43746  0.25782  0.84811  1.0000
  F   F167      1.0  0.43317  0.74500  0.35716  1.0000
  F   F168      1.0  0.43970  0.75228  0.85104  1.0000
  F   F169      1.0  0.68931  0.24890  0.35887  1.0000
  F   F170      1.0  0.68079  0.24576  0.86846  1.0000
  F   F171      1.0  0.69345  0.75333  0.33937  1.0000
  F   F172      1.0  0.69409  0.74255  0.84750  1.0000
  F   F173      1.0  0.93775  0.25579  0.34810  1.0000
  F   F174      1.0  0.93616  0.23815  0.86777  1.0000
  F   F175      1.0  0.92984  0.74217  0.38021  1.0000
  F   F176      1.0  0.94157  0.75195  0.85167  1.0000
  F   F177      1.0  0.12550  0.13433  0.38586  1.0000
  F   F178      1.0  0.12570  0.12374  0.88739  1.0000
  F   F179      1.0  0.12664  0.62013  0.39165  1.0000
  F   F180      1.0  0.12670  0.65113  0.87202  1.0000
  F   F181      1.0  0.37564  0.12636  0.40432  1.0000
  F   F182      1.0  0.36917  0.12247  0.90612  1.0000
  F   F183      1.0  0.37336  0.63202  0.40794  1.0000
  F   F184      1.0  0.37801  0.63998  0.88222  1.0000
  F   F185      1.0  0.62852  0.14288  0.37559  1.0000
  F   F186      1.0  0.62345  0.13156  0.88855  1.0000
  F   F187      1.0  0.62547  0.63363  0.38598  1.0000
  F   F188      1.0  0.63073  0.64997  0.87346  1.0000
  F   F189      1.0  0.87656  0.13801  0.37759  1.0000
  F   F190      1.0  0.87373  0.12258  0.90578  1.0000
  F   F191      1.0  0.87556  0.62306  0.38842  1.0000
  F   F192      1.0  0.87409  0.65267  0.87043  1.0000
  F   F193      1.0  0.00262  0.36616  0.06525  1.0000
  F   F194      1.0  0.00886  0.35381  0.58672  1.0000
  F   F195      1.0  0.00956  0.85281  0.07569  1.0000
  F   F196      1.0  0.01017  0.86286  0.56568  1.0000
  F   F197      1.0  0.25424  0.36725  0.08427  1.0000
  F   F198      1.0  0.25617  0.35098  0.58828  1.0000
  F   F199      1.0  0.25509  0.87207  0.07129  1.0000
  F   F200      1.0  0.26221  0.87501  0.54477  1.0000
  F   F201      1.0  0.50970  0.36552  0.07294  1.0000
  F   F202      1.0  0.50859  0.36090  0.56885  1.0000
  F   F203      1.0  0.51521  0.86837  0.05233  1.0000
  F   F204      1.0  0.50901  0.86622  0.56919  1.0000
  F   F205      1.0  0.75867  0.36264  0.07682  1.0000
  F   F206      1.0  0.75741  0.36273  0.56878  1.0000
  F   F207      1.0  0.75986  0.85158  0.06553  1.0000
  F   F208      1.0  0.75690  0.86422  0.57755  1.0000
  F   F209      1.0  0.06093  0.49133  0.18324  1.0000
  F   F210      1.0  0.06535  0.48013  0.69005  1.0000
  F   F211      1.0  0.06611  0.97842  0.19178  1.0000
  F   F212      1.0  0.07509  0.98265  0.67234  1.0000
  F   F213      1.0  0.31764  0.49160  0.16344  1.0000
  F   F214      1.0  0.31437  0.49199  0.68319  1.0000
  F   F215      1.0  0.32484  0.98737  0.16768  1.0000
  F   F216      1.0  0.31856  0.98260  0.67111  1.0000
  F   F217      1.0  0.56506  0.48584  0.18117  1.0000
  F   F218      1.0  0.57022  0.48318  0.67915  1.0000
  F   F219      1.0  0.57090  0.98868  0.17684  1.0000
  F   F220      1.0  0.57210  0.99249  0.67343  1.0000
  F   F221      1.0  0.81196  0.48726  0.19095  1.0000
  F   F222      1.0  0.81890  0.48595  0.68200  1.0000
  F   F223      1.0  0.81601  0.97421  0.17513  1.0000
  F   F224      1.0  0.82027  0.98651  0.66982  1.0000
  F   F225      1.0  0.24352  0.14459  0.41723  1.0000
  F   F226      1.0  0.24194  0.13702  0.91974  1.0000
  F   F227      1.0  0.24806  0.63826  0.41634  1.0000
  F   F228      1.0  0.24198  0.64522  0.92528  1.0000
  F   F229      1.0  0.49293  0.13828  0.42633  1.0000
  F   F230      1.0  0.49206  0.15102  0.91491  1.0000
  F   F231      1.0  0.49303  0.64469  0.43109  1.0000
  F   F232      1.0  0.49840  0.64364  0.91329  1.0000
  F   F233      1.0  0.74113  0.13068  0.44659  1.0000
  F   F234      1.0  0.74159  0.14597  0.91284  1.0000
  F   F235      1.0  0.74141  0.63350  0.42694  1.0000
  F   F236      1.0  0.74190  0.63191  0.92818  1.0000
  F   F237      1.0  0.99188  0.14838  0.42524  1.0000
  F   F238      1.0  0.98986  0.13212  0.92801  1.0000
  F   F239      1.0  0.99338  0.63439  0.43386  1.0000
  F   F240      1.0  0.99392  0.62966  0.93371  1.0000
  F   F241      1.0  0.17980  0.00909  0.34470  1.0000
  F   F242      1.0  0.18699  0.01105  0.81349  1.0000
  F   F243      1.0  0.17925  0.51002  0.33627  1.0000
  F   F244      1.0  0.17632  0.50873  0.84283  1.0000
  F   F245      1.0  0.43106  0.01863  0.32202  1.0000
  F   F246      1.0  0.42964  0.01457  0.82928  1.0000
  F   F247      1.0  0.42325  0.51791  0.34044  1.0000
  F   F248      1.0  0.42524  0.52048  0.82407  1.0000
  F   F249      1.0  0.67685  0.01334  0.33691  1.0000
  F   F250      1.0  0.68405  0.01380  0.82057  1.0000
  F   F251      1.0  0.68173  0.51776  0.32052  1.0000
  F   F252      1.0  0.67560  0.50759  0.83801  1.0000
  F   F253      1.0  0.92990  0.01169  0.32507  1.0000
  F   F254      1.0  0.92756  0.01043  0.82722  1.0000
  F   F255      1.0  0.93190  0.51373  0.32374  1.0000
  F   F256      1.0  0.92242  0.51144  0.84605  1.0000
  F   F257      1.0  0.99704  0.23672  0.00607  1.0000
  F   F258      1.0  0.99691  0.25184  0.50403  1.0000
  F   F259      1.0  0.99808  0.73736  0.01930  1.0000
  F   F260      1.0  0.00219  0.75163  0.50276  1.0000
  F   F261      1.0  0.25282  0.26197  0.99723  1.0000
  F   F262      1.0  0.24903  0.25038  0.50616  1.0000
  F   F263      1.0  0.25100  0.75200  0.99678  1.0000
  F   F264      1.0  0.25214  0.73877  0.50594  1.0000
  F   F265      1.0  0.50292  0.26165  0.98848  1.0000
  F   F266      1.0  0.49909  0.24474  0.50590  1.0000
  F   F267      1.0  0.50535  0.75426  0.99325  1.0000
  F   F268      1.0  0.50393  0.76666  0.48283  1.0000
  F   F269      1.0  0.74991  0.24773  0.00435  1.0000
  F   F270      1.0  0.75151  0.23635  0.51111  1.0000
  F   F271      1.0  0.74714  0.75532  0.98871  1.0000
  F   F272      1.0  0.75353  0.76156  0.48338  1.0000
  F   F273      1.0  0.12695  0.99295  0.26156  1.0000
  F   F274      1.0  0.13003  0.00540  0.74590  1.0000
  F   F275      1.0  0.11882  0.49168  0.26779  1.0000
  F   F276      1.0  0.12446  0.49146  0.75092  1.0000
  F   F277      1.0  0.37255  0.99784  0.25477  1.0000
  F   F278      1.0  0.37168  0.00083  0.75014  1.0000
  F   F279      1.0  0.37108  0.49000  0.24871  1.0000
  F   F280      1.0  0.37730  0.50626  0.74555  1.0000
  F   F281      1.0  0.62801  0.99288  0.24764  1.0000
  F   F282      1.0  0.63609  0.01066  0.72399  1.0000
  F   F283      1.0  0.63068  0.50669  0.23710  1.0000
  F   F284      1.0  0.62556  0.50278  0.74286  1.0000
  F   F285      1.0  0.86705  0.99064  0.26040  1.0000
  F   F286      1.0  0.87453  0.99719  0.75346  1.0000
  F   F287      1.0  0.87805  0.50273  0.24043  1.0000
  F   F288      1.0  0.87865  0.50111  0.75508  1.0000
  F   F289      1.0  0.04357  0.02940  0.02197  1.0000
  F   F290      1.0  0.04689  0.02668  0.52054  1.0000
  F   F291      1.0  0.04625  0.52413  0.02196  1.0000
  F   F292      1.0  0.03927  0.52428  0.53382  1.0000
  F   F293      1.0  0.28676  0.03264  0.04161  1.0000
  F   F294      1.0  0.29294  0.03593  0.51735  1.0000
  F   F295      1.0  0.29047  0.54415  0.02158  1.0000
  F   F296      1.0  0.30053  0.52354  0.51734  1.0000
  F   F297      1.0  0.54186  0.03871  0.02514  1.0000
  F   F298      1.0  0.54614  0.03726  0.52202  1.0000
  F   F299      1.0  0.54342  0.52937  0.02454  1.0000
  F   F300      1.0  0.54595  0.53381  0.51114  1.0000
  F   F301      1.0  0.78791  0.03361  0.01596  1.0000
  F   F302      1.0  0.80457  0.02494  0.51328  1.0000
  F   F303      1.0  0.80539  0.52449  0.00444  1.0000
  F   F304      1.0  0.79033  0.52794  0.52944  1.0000
  F   F305      1.0  0.23359  0.42659  0.22885  1.0000
  F   F306      1.0  0.23632  0.41771  0.73175  1.0000
  F   F307      1.0  0.23108  0.91488  0.22536  1.0000
  F   F308      1.0  0.23475  0.91877  0.71576  1.0000
  F   F309      1.0  0.48221  0.41520  0.22658  1.0000
  F   F310      1.0  0.48293  0.42377  0.71792  1.0000
  F   F311      1.0  0.49265  0.91321  0.21968  1.0000
  F   F312      1.0  0.48817  0.93012  0.71112  1.0000
  F   F313      1.0  0.73335  0.42427  0.21663  1.0000
  F   F314      1.0  0.73440  0.42291  0.73022  1.0000
  F   F315      1.0  0.73350  0.91817  0.22266  1.0000
  F   F316      1.0  0.73553  0.92530  0.71459  1.0000
  F   F317      1.0  0.98115  0.41299  0.21573  1.0000
  F   F318      1.0  0.98509  0.41145  0.73343  1.0000
  F   F319      1.0  0.98739  0.89381  0.23454  1.0000
  F   F320      1.0  0.99140  0.91074  0.72041  1.0000
  F   F321      1.0  0.21577  0.45171  0.48493  1.0000
  F   F322      1.0  0.20926  0.46990  0.98022  1.0000
  F   F323      1.0  0.20098  0.97698  0.48390  1.0000
  F   F324      1.0  0.20621  0.96160  0.97881  1.0000
  F   F325      1.0  0.45258  0.46359  0.48603  1.0000
  F   F326      1.0  0.45928  0.47566  0.96920  1.0000
  F   F327      1.0  0.44982  0.97266  0.48170  1.0000
  F   F328      1.0  0.45052  0.97928  0.98198  1.0000
  F   F329      1.0  0.70991  0.47277  0.46265  1.0000
  F   F330      1.0  0.71068  0.45868  0.97664  1.0000
  F   F331      1.0  0.70720  0.96485  0.48049  1.0000
  F   F332      1.0  0.71182  0.97126  0.96886  1.0000
  F   F333      1.0  0.95510  0.46291  0.48287  1.0000
  F   F334      1.0  0.95052  0.47484  0.99073  1.0000
  F   F335      1.0  0.95692  0.97242  0.47966  1.0000
  F   F336      1.0  0.95761  0.96734  0.98397  1.0000
  F   F337      1.0  0.01235  0.09297  0.26927  1.0000
  F   F338      1.0  0.01327  0.08060  0.76819  1.0000
  F   F339      1.0  0.01274  0.57740  0.29099  1.0000
  F   F340      1.0  0.01254  0.58682  0.78509  1.0000
  F   F341      1.0  0.27102  0.07353  0.28538  1.0000
  F   F342      1.0  0.26330  0.08441  0.77085  1.0000
  F   F343      1.0  0.26959  0.57763  0.27404  1.0000
  F   F344      1.0  0.26014  0.61234  0.76714  1.0000
  F   F345      1.0  0.51483  0.08556  0.27287  1.0000
  F   F346      1.0  0.51490  0.10996  0.75829  1.0000
  F   F347      1.0  0.51007  0.59969  0.27228  1.0000
  F   F348      1.0  0.51654  0.58570  0.77160  1.0000
  F   F349      1.0  0.76548  0.08993  0.27018  1.0000
  F   F350      1.0  0.76647  0.08995  0.76836  1.0000
  F   F351      1.0  0.75717  0.60604  0.25884  1.0000
  F   F352      1.0  0.76039  0.57992  0.77038  1.0000
  F   F353      1.0  0.10435  0.40343  0.46189  1.0000
  F   F354      1.0  0.09699  0.37965  0.96908  1.0000
  F   F355      1.0  0.10703  0.90111  0.47114  1.0000
  F   F356      1.0  0.10524  0.90922  0.96096  1.0000
  F   F357      1.0  0.35290  0.39666  0.46175  1.0000
  F   F358      1.0  0.34701  0.41655  0.96391  1.0000
  F   F359      1.0  0.35257  0.91433  0.45033  1.0000
  F   F360      1.0  0.34808  0.91802  0.96606  1.0000
  F   F361      1.0  0.60024  0.40412  0.46758  1.0000
  F   F362      1.0  0.59749  0.41113  0.95995  1.0000
  F   F363      1.0  0.59862  0.90875  0.46399  1.0000
  F   F364      1.0  0.60202  0.92841  0.95609  1.0000
  F   F365      1.0  0.84957  0.40915  0.47054  1.0000
  F   F366      1.0  0.84775  0.37208  0.97951  1.0000
  F   F367      1.0  0.85427  0.88825  0.47610  1.0000
  F   F368      1.0  0.84773  0.90846  0.95371  1.0000
  F   F369      1.0  0.04729  0.30375  0.28451  1.0000
  F   F370      1.0  0.04837  0.28472  0.78825  1.0000
  F   F371      1.0  0.05102  0.79013  0.29270  1.0000
  F   F372      1.0  0.04806  0.78983  0.80251  1.0000
  F   F373      1.0  0.29262  0.30857  0.28694  1.0000
  F   F374      1.0  0.29213  0.29414  0.80070  1.0000
  F   F375      1.0  0.29125  0.80674  0.28673  1.0000
  F   F376      1.0  0.30360  0.79416  0.77734  1.0000
  F   F377      1.0  0.54238  0.30126  0.28977  1.0000
  F   F378      1.0  0.54944  0.30037  0.77617  1.0000
  F   F379      1.0  0.55512  0.80302  0.28282  1.0000
  F   F380      1.0  0.54954  0.80318  0.78294  1.0000
  F   F381      1.0  0.79076  0.29411  0.30121  1.0000
  F   F382      1.0  0.79282  0.29983  0.78987  1.0000
  F   F383      1.0  0.79507  0.79410  0.27730  1.0000
  F   F384      1.0  0.79453  0.80148  0.78874  1.0000
