data_image0
_chemical_formula_structural       Hf96F384
_chemical_formula_sum              "Hf96 F384"
_cell_length_a       31.0535
_cell_length_b       15.525
_cell_length_c       15.521
_cell_angle_alpha    63.342
_cell_angle_beta     63.342
_cell_angle_gamma    80.1625

_space_group_name_H-M_alt    "P 1"
_space_group_IT_number       1

loop_
  _space_group_symop_operation_xyz
  'x, y, z'

loop_
  _atom_site_type_symbol
  _atom_site_label
  _atom_site_symmetry_multiplicity
  _atom_site_fract_x
  _atom_site_fract_y
  _atom_site_fract_z
  _atom_site_occupancy
  Hf  Hf1       1.0  0.19366  0.10539  0.37699  1.0000
  Hf  Hf2       1.0  0.19990  0.10852  0.86936  1.0000
  Hf  Hf3       1.0  0.19367  0.60448  0.37029  1.0000
  Hf  Hf4       1.0  0.19930  0.60470  0.87044  1.0000
  Hf  Hf5       1.0  0.44506  0.10304  0.38145  1.0000
  Hf  Hf6       1.0  0.44549  0.10873  0.87596  1.0000
  Hf  Hf7       1.0  0.44749  0.61062  0.37070  1.0000
  Hf  Hf8       1.0  0.44445  0.60418  0.87607  1.0000
  Hf  Hf9       1.0  0.69687  0.11041  0.37040  1.0000
  Hf  Hf10      1.0  0.69675  0.11180  0.87839  1.0000
  Hf  Hf11      1.0  0.69593  0.61773  0.36467  1.0000
  Hf  Hf12      1.0  0.69447  0.61073  0.86912  1.0000
  Hf  Hf13      1.0  0.94443  0.10618  0.37956  1.0000
  Hf  Hf14      1.0  0.94765  0.10482  0.88291  1.0000
  Hf  Hf15      1.0  0.94340  0.59383  0.38488  1.0000
  Hf  Hf16      1.0  0.94724  0.61227  0.86746  1.0000
  Hf  Hf17      1.0  0.05787  0.39484  0.12090  1.0000
  Hf  Hf18      1.0  0.05431  0.39116  0.61862  1.0000
  Hf  Hf19      1.0  0.05644  0.89564  0.12605  1.0000
  Hf  Hf20      1.0  0.05363  0.88849  0.63386  1.0000
  Hf  Hf21      1.0  0.30251  0.38519  0.13078  1.0000
  Hf  Hf22      1.0  0.30052  0.39002  0.62584  1.0000
  Hf  Hf23      1.0  0.30123  0.88838  0.13057  1.0000
  Hf  Hf24      1.0  0.29912  0.89149  0.63218  1.0000
  Hf  Hf25      1.0  0.55335  0.38791  0.12438  1.0000
  Hf  Hf26      1.0  0.55470  0.40625  0.60983  1.0000
  Hf  Hf27      1.0  0.55617  0.88762  0.12483  1.0000
  Hf  Hf28      1.0  0.55528  0.88851  0.62641  1.0000
  Hf  Hf29      1.0  0.80994  0.39906  0.11856  1.0000
  Hf  Hf30      1.0  0.80263  0.39816  0.62673  1.0000
  Hf  Hf31      1.0  0.81017  0.89927  0.11775  1.0000
  Hf  Hf32      1.0  0.80261  0.89750  0.62078  1.0000
  Hf  Hf33      1.0  0.05355  0.17889  0.42529  1.0000
  Hf  Hf34      1.0  0.05508  0.17120  0.91922  1.0000
  Hf  Hf35      1.0  0.05227  0.67598  0.42002  1.0000
  Hf  Hf36      1.0  0.05663  0.67852  0.92080  1.0000
  Hf  Hf37      1.0  0.30155  0.16889  0.42435  1.0000
  Hf  Hf38      1.0  0.30435  0.18654  0.91155  1.0000
  Hf  Hf39      1.0  0.30723  0.67899  0.41358  1.0000
  Hf  Hf40      1.0  0.30301  0.67627  0.91954  1.0000
  Hf  Hf41      1.0  0.55629  0.18272  0.41420  1.0000
  Hf  Hf42      1.0  0.55740  0.18769  0.91708  1.0000
  Hf  Hf43      1.0  0.55616  0.69768  0.41499  1.0000
  Hf  Hf44      1.0  0.55325  0.68438  0.91463  1.0000
  Hf  Hf45      1.0  0.80578  0.18186  0.41306  1.0000
  Hf  Hf46      1.0  0.80781  0.18359  0.91392  1.0000
  Hf  Hf47      1.0  0.80536  0.69165  0.41668  1.0000
  Hf  Hf48      1.0  0.80581  0.68230  0.91747  1.0000
  Hf  Hf49      1.0  0.15416  0.38469  0.33134  1.0000
  Hf  Hf50      1.0  0.15909  0.38565  0.83614  1.0000
  Hf  Hf51      1.0  0.15491  0.87842  0.33929  1.0000
  Hf  Hf52      1.0  0.15601  0.88204  0.83776  1.0000
  Hf  Hf53      1.0  0.41400  0.38115  0.33341  1.0000
  Hf  Hf54      1.0  0.40696  0.38588  0.83975  1.0000
  Hf  Hf55      1.0  0.41078  0.89315  0.32189  1.0000
  Hf  Hf56      1.0  0.40591  0.88004  0.84229  1.0000
  Hf  Hf57      1.0  0.65935  0.39534  0.32672  1.0000
  Hf  Hf58      1.0  0.65713  0.38968  0.83298  1.0000
  Hf  Hf59      1.0  0.66115  0.89514  0.33043  1.0000
  Hf  Hf60      1.0  0.66239  0.89638  0.82889  1.0000
  Hf  Hf61      1.0  0.90902  0.38192  0.33924  1.0000
  Hf  Hf62      1.0  0.90768  0.39264  0.83037  1.0000
  Hf  Hf63      1.0  0.90809  0.88092  0.33309  1.0000
  Hf  Hf64      1.0  0.90580  0.89712  0.83399  1.0000
  Hf  Hf65      1.0  0.19623  0.31608  0.08315  1.0000
  Hf  Hf66      1.0  0.19461  0.31348  0.57848  1.0000
  Hf  Hf67      1.0  0.19291  0.82120  0.08654  1.0000
  Hf  Hf68      1.0  0.19231  0.80668  0.58857  1.0000
  Hf  Hf69      1.0  0.44407  0.30725  0.08769  1.0000
  Hf  Hf70      1.0  0.44536  0.31380  0.59002  1.0000
  Hf  Hf71      1.0  0.44283  0.81742  0.08747  1.0000
  Hf  Hf72      1.0  0.43848  0.81872  0.58352  1.0000
  Hf  Hf73      1.0  0.69522  0.31774  0.08274  1.0000
  Hf  Hf74      1.0  0.69824  0.32709  0.57991  1.0000
  Hf  Hf75      1.0  0.70016  0.83349  0.07428  1.0000
  Hf  Hf76      1.0  0.69476  0.82330  0.58619  1.0000
  Hf  Hf77      1.0  0.94664  0.31959  0.07892  1.0000
  Hf  Hf78      1.0  0.94087  0.31107  0.58872  1.0000
  Hf  Hf79      1.0  0.94902  0.81519  0.08027  1.0000
  Hf  Hf80      1.0  0.94415  0.81613  0.58315  1.0000
  Hf  Hf81      1.0  0.09318  0.11159  0.16429  1.0000
  Hf  Hf82      1.0  0.09427  0.10375  0.67094  1.0000
  Hf  Hf83      1.0  0.09292  0.60868  0.16577  1.0000
  Hf  Hf84      1.0  0.09190  0.60630  0.66670  1.0000
  Hf  Hf85      1.0  0.33668  0.10413  0.16545  1.0000
  Hf  Hf86      1.0  0.34402  0.11600  0.66058  1.0000
  Hf  Hf87      1.0  0.34378  0.61596  0.15871  1.0000
  Hf  Hf88      1.0  0.34445  0.61548  0.65426  1.0000
  Hf  Hf89      1.0  0.59447  0.11247  0.16716  1.0000
  Hf  Hf90      1.0  0.59516  0.12068  0.65787  1.0000
  Hf  Hf91      1.0  0.59055  0.61626  0.16924  1.0000
  Hf  Hf92      1.0  0.58577  0.61229  0.66990  1.0000
  Hf  Hf93      1.0  0.84740  0.10441  0.16498  1.0000
  Hf  Hf94      1.0  0.83551  0.11479  0.66963  1.0000
  Hf  Hf95      1.0  0.84144  0.61654  0.16922  1.0000
  Hf  Hf96      1.0  0.83892  0.61291  0.67000  1.0000
  F   F1        1.0  0.07987  0.12438  0.30736  1.0000
  F   F2        1.0  0.07633  0.09580  0.82237  1.0000
  F   F3        1.0  0.07602  0.62342  0.30871  1.0000
  F   F4        1.0  0.07808  0.61310  0.80726  1.0000
  F   F5        1.0  0.32993  0.13513  0.29818  1.0000
  F   F6        1.0  0.32913  0.13373  0.80186  1.0000
  F   F7        1.0  0.33188  0.61554  0.30993  1.0000
  F   F8        1.0  0.32905  0.63086  0.80319  1.0000
  F   F9        1.0  0.58120  0.12567  0.30664  1.0000
  F   F10       1.0  0.58511  0.13823  0.78895  1.0000
  F   F11       1.0  0.58315  0.64023  0.29373  1.0000
  F   F12       1.0  0.58221  0.64224  0.79004  1.0000
  F   F13       1.0  0.82788  0.12619  0.30338  1.0000
  F   F14       1.0  0.82665  0.13401  0.80280  1.0000
  F   F15       1.0  0.82842  0.63476  0.30252  1.0000
  F   F16       1.0  0.83271  0.63149  0.80178  1.0000
  F   F17       1.0  0.17666  0.32616  0.44798  1.0000
  F   F18       1.0  0.18099  0.33360  0.95651  1.0000
  F   F19       1.0  0.17683  0.83359  0.46097  1.0000
  F   F20       1.0  0.18166  0.84362  0.94639  1.0000
  F   F21       1.0  0.43731  0.35619  0.45581  1.0000
  F   F22       1.0  0.43889  0.34563  0.94500  1.0000
  F   F23       1.0  0.43837  0.83390  0.44353  1.0000
  F   F24       1.0  0.43284  0.83307  0.94761  1.0000
  F   F25       1.0  0.68361  0.34070  0.43880  1.0000
  F   F26       1.0  0.68199  0.34323  0.95100  1.0000
  F   F27       1.0  0.69419  0.86096  0.43730  1.0000
  F   F28       1.0  0.68840  0.85956  0.93488  1.0000
  F   F29       1.0  0.93589  0.33292  0.45296  1.0000
  F   F30       1.0  0.93461  0.34852  0.94265  1.0000
  F   F31       1.0  0.92921  0.83577  0.45015  1.0000
  F   F32       1.0  0.94352  0.83697  0.93320  1.0000
  F   F33       1.0  0.16403  0.37465  0.19870  1.0000
  F   F34       1.0  0.16890  0.35763  0.69705  1.0000
  F   F35       1.0  0.16799  0.87276  0.19978  1.0000
  F   F36       1.0  0.17356  0.87418  0.68809  1.0000
  F   F37       1.0  0.42669  0.37042  0.19049  1.0000
  F   F38       1.0  0.42043  0.36413  0.71032  1.0000
  F   F39       1.0  0.42309  0.88472  0.18383  1.0000
  F   F40       1.0  0.41166  0.87252  0.69530  1.0000
  F   F41       1.0  0.66933  0.38055  0.19443  1.0000
  F   F42       1.0  0.66471  0.37925  0.69702  1.0000
  F   F43       1.0  0.66896  0.88092  0.19446  1.0000
  F   F44       1.0  0.66990  0.85984  0.70993  1.0000
  F   F45       1.0  0.91578  0.35772  0.21190  1.0000
  F   F46       1.0  0.92415  0.39255  0.68521  1.0000
  F   F47       1.0  0.92363  0.85810  0.20452  1.0000
  F   F48       1.0  0.91668  0.87191  0.70278  1.0000
  F   F49       1.0  0.05854  0.16532  0.05388  1.0000
  F   F50       1.0  0.06889  0.14227  0.55107  1.0000
  F   F51       1.0  0.05883  0.64539  0.07306  1.0000
  F   F52       1.0  0.06239  0.65561  0.55045  1.0000
  F   F53       1.0  0.30655  0.16205  0.05152  1.0000
  F   F54       1.0  0.31146  0.15388  0.55865  1.0000
  F   F55       1.0  0.31782  0.65739  0.05850  1.0000
  F   F56       1.0  0.31256  0.65210  0.55420  1.0000
  F   F57       1.0  0.56287  0.16374  0.05061  1.0000
  F   F58       1.0  0.56264  0.17488  0.55515  1.0000
  F   F59       1.0  0.56473  0.66523  0.03985  1.0000
  F   F60       1.0  0.56843  0.67898  0.53847  1.0000
  F   F61       1.0  0.81387  0.14494  0.07545  1.0000
  F   F62       1.0  0.81028  0.15710  0.56042  1.0000
  F   F63       1.0  0.81012  0.66630  0.05751  1.0000
  F   F64       1.0  0.81256  0.67552  0.56295  1.0000
  F   F65       1.0  0.20646  0.20569  0.19945  1.0000
  F   F66       1.0  0.20879  0.20054  0.71545  1.0000
  F   F67       1.0  0.20013  0.69196  0.21384  1.0000
  F   F68       1.0  0.21311  0.68677  0.71105  1.0000
  F   F69       1.0  0.45374  0.19359  0.21211  1.0000
  F   F70       1.0  0.45533  0.19943  0.70810  1.0000
  F   F71       1.0  0.44820  0.69124  0.21479  1.0000
  F   F72       1.0  0.45437  0.69845  0.71195  1.0000
  F   F73       1.0  0.69497  0.20094  0.21137  1.0000
  F   F74       1.0  0.71063  0.21656  0.69629  1.0000
  F   F75       1.0  0.70905  0.72527  0.21333  1.0000
  F   F76       1.0  0.69655  0.69534  0.71631  1.0000
  F   F77       1.0  0.94364  0.19943  0.21340  1.0000
  F   F78       1.0  0.95083  0.19959  0.71728  1.0000
  F   F79       1.0  0.94924  0.69735  0.22216  1.0000
  F   F80       1.0  0.95032  0.69801  0.70432  1.0000
  F   F81       1.0  0.15017  0.10032  0.04271  1.0000
  F   F82       1.0  0.14901  0.09477  0.53266  1.0000
  F   F83       1.0  0.14806  0.59201  0.04061  1.0000
  F   F84       1.0  0.14536  0.58223  0.53889  1.0000
  F   F85       1.0  0.39814  0.07235  0.03370  1.0000
  F   F86       1.0  0.40321  0.09722  0.54261  1.0000
  F   F87       1.0  0.40457  0.59448  0.03876  1.0000
  F   F88       1.0  0.40198  0.62862  0.52514  1.0000
  F   F89       1.0  0.65116  0.07963  0.04156  1.0000
  F   F90       1.0  0.64842  0.11064  0.53299  1.0000
  F   F91       1.0  0.64693  0.61768  0.03217  1.0000
  F   F92       1.0  0.63884  0.57891  0.56236  1.0000
  F   F93       1.0  0.90255  0.09140  0.03420  1.0000
  F   F94       1.0  0.89501  0.10656  0.54726  1.0000
  F   F95       1.0  0.89858  0.59808  0.03555  1.0000
  F   F96       1.0  0.89759  0.58735  0.54437  1.0000
  F   F97       1.0  0.15878  0.19177  0.11325  1.0000
  F   F98       1.0  0.15598  0.18200  0.64692  1.0000
  F   F99       1.0  0.15034  0.69181  0.12412  1.0000
  F   F100      1.0  0.15514  0.68166  0.63086  1.0000
  F   F101      1.0  0.39798  0.18942  0.10840  1.0000
  F   F102      1.0  0.39924  0.19707  0.63468  1.0000
  F   F103      1.0  0.39454  0.71021  0.12609  1.0000
  F   F104      1.0  0.39936  0.69828  0.63679  1.0000
  F   F105      1.0  0.65376  0.19701  0.11286  1.0000
  F   F106      1.0  0.66212  0.20782  0.61657  1.0000
  F   F107      1.0  0.66018  0.71185  0.12524  1.0000
  F   F108      1.0  0.64602  0.71252  0.60066  1.0000
  F   F109      1.0  0.90173  0.20466  0.11140  1.0000
  F   F110      1.0  0.89793  0.20366  0.63564  1.0000
  F   F111      1.0  0.91019  0.69375  0.12193  1.0000
  F   F112      1.0  0.89312  0.71108  0.62237  1.0000
  F   F113      1.0  0.09444  0.29614  0.37354  1.0000
  F   F114      1.0  0.10758  0.28346  0.88482  1.0000
  F   F115      1.0  0.09787  0.79406  0.37755  1.0000
  F   F116      1.0  0.09260  0.80600  0.87813  1.0000
  F   F117      1.0  0.35817  0.29894  0.37050  1.0000
  F   F118      1.0  0.34811  0.30307  0.86963  1.0000
  F   F119      1.0  0.35379  0.79013  0.36754  1.0000
  F   F120      1.0  0.34534  0.78932  0.86086  1.0000
  F   F121      1.0  0.60779  0.30763  0.36462  1.0000
  F   F122      1.0  0.59774  0.30575  0.89789  1.0000
  F   F123      1.0  0.59002  0.81021  0.37786  1.0000
  F   F124      1.0  0.59618  0.79970  0.86270  1.0000
  F   F125      1.0  0.84163  0.29886  0.39504  1.0000
  F   F126      1.0  0.84998  0.30035  0.85637  1.0000
  F   F127      1.0  0.84227  0.80741  0.38736  1.0000
  F   F128      1.0  0.85542  0.80994  0.89220  1.0000
  F   F129      1.0  0.07144  0.24545  0.14030  1.0000
  F   F130      1.0  0.07774  0.24532  0.62873  1.0000
  F   F131      1.0  0.06632  0.75600  0.14298  1.0000
  F   F132      1.0  0.06587  0.74441  0.64014  1.0000
  F   F133      1.0  0.31145  0.24827  0.14330  1.0000
  F   F134      1.0  0.31743  0.25318  0.64116  1.0000
  F   F135      1.0  0.30962  0.75063  0.14620  1.0000
  F   F136      1.0  0.31164  0.75392  0.62758  1.0000
  F   F137      1.0  0.55986  0.24331  0.15700  1.0000
  F   F138      1.0  0.56282  0.25429  0.65314  1.0000
  F   F139      1.0  0.57162  0.75202  0.13417  1.0000
  F   F140      1.0  0.55292  0.75459  0.65295  1.0000
  F   F141      1.0  0.81553  0.25329  0.15253  1.0000
  F   F142      1.0  0.80930  0.26487  0.63407  1.0000
  F   F143      1.0  0.82289  0.75244  0.13798  1.0000
  F   F144      1.0  0.80071  0.75193  0.67865  1.0000
  F   F145      1.0  0.12700  0.37154  0.10937  1.0000
  F   F146      1.0  0.12303  0.37800  0.60159  1.0000
  F   F147      1.0  0.12221  0.85177  0.12440  1.0000
  F   F148      1.0  0.12062  0.84620  0.62805  1.0000
  F   F149      1.0  0.37299  0.34859  0.12621  1.0000
  F   F150      1.0  0.37587  0.37334  0.60451  1.0000
  F   F151      1.0  0.37313  0.86745  0.10796  1.0000
  F   F152      1.0  0.37284  0.87815  0.58989  1.0000
  F   F153      1.0  0.62180  0.35504  0.12350  1.0000
  F   F154      1.0  0.62404  0.37786  0.59374  1.0000
  F   F155      1.0  0.63035  0.89237  0.08257  1.0000
  F   F156      1.0  0.62565  0.87416  0.60694  1.0000
  F   F157      1.0  0.88008  0.38974  0.09381  1.0000
  F   F158      1.0  0.87587  0.37436  0.60940  1.0000
  F   F159      1.0  0.88351  0.87594  0.09432  1.0000
  F   F160      1.0  0.87133  0.88188  0.60621  1.0000
  F   F161      1.0  0.18637  0.24764  0.33826  1.0000
  F   F162      1.0  0.19116  0.24573  0.86099  1.0000
  F   F163      1.0  0.18539  0.74210  0.36289  1.0000
  F   F164      1.0  0.18565  0.74805  0.85789  1.0000
  F   F165      1.0  0.44244  0.25110  0.35311  1.0000
  F   F166      1.0  0.43219  0.24495  0.87487  1.0000
  F   F167      1.0  0.43653  0.75476  0.34398  1.0000
  F   F168      1.0  0.43112  0.74691  0.86763  1.0000
  F   F169      1.0  0.69729  0.24591  0.34340  1.0000
  F   F170      1.0  0.68143  0.25101  0.86008  1.0000
  F   F171      1.0  0.67219  0.75382  0.38105  1.0000
  F   F172      1.0  0.69675  0.75473  0.84485  1.0000
  F   F173      1.0  0.93735  0.24505  0.35966  1.0000
  F   F174      1.0  0.93076  0.24959  0.86237  1.0000
  F   F175      1.0  0.93476  0.74306  0.35982  1.0000
  F   F176      1.0  0.93908  0.75740  0.84412  1.0000
  F   F177      1.0  0.12527  0.11576  0.39278  1.0000
  F   F178      1.0  0.12303  0.11478  0.90650  1.0000
  F   F179      1.0  0.12226  0.63009  0.38868  1.0000
  F   F180      1.0  0.12276  0.62662  0.89965  1.0000
  F   F181      1.0  0.37266  0.12805  0.38980  1.0000
  F   F182      1.0  0.37293  0.14993  0.89741  1.0000
  F   F183      1.0  0.37308  0.61065  0.41806  1.0000
  F   F184      1.0  0.37743  0.62865  0.88942  1.0000
  F   F185      1.0  0.62009  0.13449  0.40387  1.0000
  F   F186      1.0  0.62539  0.13959  0.89262  1.0000
  F   F187      1.0  0.62628  0.63353  0.39137  1.0000
  F   F188      1.0  0.62430  0.63325  0.88924  1.0000
  F   F189      1.0  0.87531  0.12322  0.39941  1.0000
  F   F190      1.0  0.87203  0.11379  0.90760  1.0000
  F   F191      1.0  0.86995  0.63478  0.40147  1.0000
  F   F192      1.0  0.87417  0.63867  0.88936  1.0000
  F   F193      1.0  0.00951  0.36319  0.07307  1.0000
  F   F194      1.0  0.00595  0.34378  0.59500  1.0000
  F   F195      1.0  0.01035  0.85638  0.08098  1.0000
  F   F196      1.0  0.00368  0.84563  0.59542  1.0000
  F   F197      1.0  0.25721  0.36506  0.07222  1.0000
  F   F198      1.0  0.25751  0.35502  0.58390  1.0000
  F   F199      1.0  0.25642  0.86767  0.07267  1.0000
  F   F200      1.0  0.25468  0.86443  0.58222  1.0000
  F   F201      1.0  0.50760  0.36133  0.07641  1.0000
  F   F202      1.0  0.51060  0.37079  0.54872  1.0000
  F   F203      1.0  0.50867  0.84127  0.09037  1.0000
  F   F204      1.0  0.49983  0.86868  0.57652  1.0000
  F   F205      1.0  0.75748  0.34353  0.09161  1.0000
  F   F206      1.0  0.75460  0.38659  0.55884  1.0000
  F   F207      1.0  0.76862  0.86734  0.05714  1.0000
  F   F208      1.0  0.75604  0.86937  0.57369  1.0000
  F   F209      1.0  0.06955  0.47773  0.17570  1.0000
  F   F210      1.0  0.06567  0.48748  0.67535  1.0000
  F   F211      1.0  0.06753  0.98724  0.18506  1.0000
  F   F212      1.0  0.07193  0.96868  0.69682  1.0000
  F   F213      1.0  0.32897  0.49089  0.15127  1.0000
  F   F214      1.0  0.32516  0.48500  0.66479  1.0000
  F   F215      1.0  0.31663  0.97819  0.18256  1.0000
  F   F216      1.0  0.32339  0.98224  0.67179  1.0000
  F   F217      1.0  0.57022  0.47806  0.17873  1.0000
  F   F218      1.0  0.56649  0.49343  0.66576  1.0000
  F   F219      1.0  0.57125  0.99035  0.18108  1.0000
  F   F220      1.0  0.57178  0.00104  0.67066  1.0000
  F   F221      1.0  0.81736  0.49954  0.16970  1.0000
  F   F222      1.0  0.81305  0.48870  0.67789  1.0000
  F   F223      1.0  0.82467  0.97203  0.18474  1.0000
  F   F224      1.0  0.81302  0.99164  0.68065  1.0000
  F   F225      1.0  0.23800  0.13692  0.42825  1.0000
  F   F226      1.0  0.24440  0.11519  0.94984  1.0000
  F   F227      1.0  0.24220  0.63593  0.42140  1.0000
  F   F228      1.0  0.24215  0.64664  0.91203  1.0000
  F   F229      1.0  0.49585  0.13191  0.42870  1.0000
  F   F230      1.0  0.49020  0.13104  0.93082  1.0000
  F   F231      1.0  0.49609  0.65850  0.40547  1.0000
  F   F232      1.0  0.49374  0.65140  0.92395  1.0000
  F   F233      1.0  0.74314  0.14705  0.42189  1.0000
  F   F234      1.0  0.74182  0.13676  0.93255  1.0000
  F   F235      1.0  0.73751  0.65004  0.42314  1.0000
  F   F236      1.0  0.74389  0.63130  0.93831  1.0000
  F   F237      1.0  0.98899  0.13221  0.43823  1.0000
  F   F238      1.0  0.98942  0.13829  0.93098  1.0000
  F   F239      1.0  0.99146  0.63724  0.42469  1.0000
  F   F240      1.0  0.99051  0.63298  0.93016  1.0000
  F   F241      1.0  0.18034  0.01298  0.32296  1.0000
  F   F242      1.0  0.18833  0.01237  0.82124  1.0000
  F   F243      1.0  0.18058  0.50522  0.33046  1.0000
  F   F244      1.0  0.18402  0.50188  0.83441  1.0000
  F   F245      1.0  0.43315  0.02179  0.31758  1.0000
  F   F246      1.0  0.41954  0.00224  0.85902  1.0000
  F   F247      1.0  0.43343  0.51744  0.31712  1.0000
  F   F248      1.0  0.43150  0.50791  0.83274  1.0000
  F   F249      1.0  0.67929  0.02090  0.32430  1.0000
  F   F250      1.0  0.67641  0.03160  0.83199  1.0000
  F   F251      1.0  0.68489  0.53376  0.30709  1.0000
  F   F252      1.0  0.68584  0.51657  0.81839  1.0000
  F   F253      1.0  0.93393  0.01394  0.32183  1.0000
  F   F254      1.0  0.93647  0.01225  0.83417  1.0000
  F   F255      1.0  0.92296  0.52286  0.32683  1.0000
  F   F256      1.0  0.93690  0.53225  0.78789  1.0000
  F   F257      1.0  0.00357  0.26113  0.99091  1.0000
  F   F258      1.0  0.00001  0.24809  0.50669  1.0000
  F   F259      1.0  0.00141  0.74676  0.00265  1.0000
  F   F260      1.0  0.99874  0.75476  0.49765  1.0000
  F   F261      1.0  0.25726  0.27779  0.96244  1.0000
  F   F262      1.0  0.24606  0.24845  0.50123  1.0000
  F   F263      1.0  0.24716  0.73123  0.01654  1.0000
  F   F264      1.0  0.24915  0.75850  0.49188  1.0000
  F   F265      1.0  0.49809  0.24686  0.99553  1.0000
  F   F266      1.0  0.49825  0.25596  0.48763  1.0000
  F   F267      1.0  0.49949  0.76390  0.00104  1.0000
  F   F268      1.0  0.49971  0.75229  0.50695  1.0000
  F   F269      1.0  0.75598  0.26189  0.99398  1.0000
  F   F270      1.0  0.75478  0.26823  0.47966  1.0000
  F   F271      1.0  0.75326  0.76628  0.98487  1.0000
  F   F272      1.0  0.74364  0.74396  0.51515  1.0000
  F   F273      1.0  0.12045  0.99636  0.26072  1.0000
  F   F274      1.0  0.14027  0.00217  0.73214  1.0000
  F   F275      1.0  0.13029  0.50818  0.23843  1.0000
  F   F276      1.0  0.12720  0.49739  0.74708  1.0000
  F   F277      1.0  0.37263  0.00997  0.24281  1.0000
  F   F278      1.0  0.37266  0.99523  0.76824  1.0000
  F   F279      1.0  0.37059  0.48566  0.25886  1.0000
  F   F280      1.0  0.38169  0.51323  0.73487  1.0000
  F   F281      1.0  0.62831  0.01093  0.24361  1.0000
  F   F282      1.0  0.63626  0.00078  0.73175  1.0000
  F   F283      1.0  0.62480  0.51290  0.24824  1.0000
  F   F284      1.0  0.61623  0.49683  0.76806  1.0000
  F   F285      1.0  0.87919  0.99046  0.24830  1.0000
  F   F286      1.0  0.87485  0.01322  0.74771  1.0000
  F   F287      1.0  0.87763  0.50678  0.23608  1.0000
  F   F288      1.0  0.86902  0.50182  0.75805  1.0000
  F   F289      1.0  0.03833  0.03158  0.03338  1.0000
  F   F290      1.0  0.04590  0.02376  0.52267  1.0000
  F   F291      1.0  0.04728  0.52794  0.02426  1.0000
  F   F292      1.0  0.04641  0.52041  0.51516  1.0000
  F   F293      1.0  0.30652  0.02110  0.01496  1.0000
  F   F294      1.0  0.28690  0.02979  0.51757  1.0000
  F   F295      1.0  0.28496  0.53029  0.02652  1.0000
  F   F296      1.0  0.28472  0.53130  0.53341  1.0000
  F   F297      1.0  0.55057  0.02345  0.01664  1.0000
  F   F298      1.0  0.53914  0.01573  0.54175  1.0000
  F   F299      1.0  0.54138  0.53016  0.02295  1.0000
  F   F300      1.0  0.53259  0.53555  0.53456  1.0000
  F   F301      1.0  0.79131  0.03322  0.03296  1.0000
  F   F302      1.0  0.79323  0.03647  0.51228  1.0000
  F   F303      1.0  0.80161  0.53038  0.01873  1.0000
  F   F304      1.0  0.79094  0.54384  0.52777  1.0000
  F   F305      1.0  0.23857  0.40976  0.23511  1.0000
  F   F306      1.0  0.23434  0.40538  0.73446  1.0000
  F   F307      1.0  0.22951  0.91353  0.22825  1.0000
  F   F308      1.0  0.23247  0.92873  0.72255  1.0000
  F   F309      1.0  0.48573  0.42243  0.22719  1.0000
  F   F310      1.0  0.48610  0.41296  0.72789  1.0000
  F   F311      1.0  0.48399  0.90489  0.23259  1.0000
  F   F312      1.0  0.48059  0.90902  0.73453  1.0000
  F   F313      1.0  0.73638  0.41998  0.22370  1.0000
  F   F314      1.0  0.73214  0.42664  0.71313  1.0000
  F   F315      1.0  0.73291  0.92611  0.22038  1.0000
  F   F316      1.0  0.73787  0.92054  0.72282  1.0000
  F   F317      1.0  0.98052  0.41041  0.24315  1.0000
  F   F318      1.0  0.99074  0.39065  0.74912  1.0000
  F   F319      1.0  0.98950  0.89996  0.22442  1.0000
  F   F320      1.0  0.98370  0.92012  0.72217  1.0000
  F   F321      1.0  0.20035  0.46202  0.48349  1.0000
  F   F322      1.0  0.20536  0.47633  0.98449  1.0000
  F   F323      1.0  0.20214  0.96030  0.48898  1.0000
  F   F324      1.0  0.20065  0.96860  0.98299  1.0000
  F   F325      1.0  0.45372  0.48665  0.47938  1.0000
  F   F326      1.0  0.45266  0.47289  0.98949  1.0000
  F   F327      1.0  0.45483  0.96971  0.46509  1.0000
  F   F328      1.0  0.45815  0.95067  0.99263  1.0000
  F   F329      1.0  0.70623  0.47620  0.46312  1.0000
  F   F330      1.0  0.70618  0.48244  0.98166  1.0000
  F   F331      1.0  0.70560  0.97427  0.49496  1.0000
  F   F332      1.0  0.71917  0.97393  0.96992  1.0000
  F   F333      1.0  0.95618  0.47067  0.48383  1.0000
  F   F334      1.0  0.96084  0.48552  0.97000  1.0000
  F   F335      1.0  0.95869  0.96249  0.47939  1.0000
  F   F336      1.0  0.95931  0.97012  0.98796  1.0000
  F   F337      1.0  0.00985  0.09814  0.27133  1.0000
  F   F338      1.0  0.02045  0.07958  0.77081  1.0000
  F   F339      1.0  0.00874  0.58183  0.27292  1.0000
  F   F340      1.0  0.01234  0.58833  0.77289  1.0000
  F   F341      1.0  0.26530  0.08766  0.27075  1.0000
  F   F342      1.0  0.26643  0.07423  0.78372  1.0000
  F   F343      1.0  0.26504  0.58702  0.26830  1.0000
  F   F344      1.0  0.26454  0.57594  0.77660  1.0000
  F   F345      1.0  0.51134  0.08384  0.28625  1.0000
  F   F346      1.0  0.51219  0.08887  0.77874  1.0000
  F   F347      1.0  0.51739  0.58658  0.27862  1.0000
  F   F348      1.0  0.51733  0.56849  0.79069  1.0000
  F   F349      1.0  0.76267  0.09882  0.26023  1.0000
  F   F350      1.0  0.76503  0.07943  0.78064  1.0000
  F   F351      1.0  0.76496  0.58076  0.27371  1.0000
  F   F352      1.0  0.76049  0.59219  0.76280  1.0000
  F   F353      1.0  0.09556  0.40979  0.45511  1.0000
  F   F354      1.0  0.10200  0.40763  0.96731  1.0000
  F   F355      1.0  0.09336  0.89025  0.47609  1.0000
  F   F356      1.0  0.10265  0.91528  0.96213  1.0000
  F   F357      1.0  0.35506  0.41333  0.46246  1.0000
  F   F358      1.0  0.35172  0.39213  0.96750  1.0000
  F   F359      1.0  0.35618  0.90576  0.44066  1.0000
  F   F360      1.0  0.34660  0.87926  0.97015  1.0000
  F   F361      1.0  0.60049  0.42653  0.44209  1.0000
  F   F362      1.0  0.60033  0.40257  0.97773  1.0000
  F   F363      1.0  0.60097  0.89377  0.46606  1.0000
  F   F364      1.0  0.60220  0.88624  0.95444  1.0000
  F   F365      1.0  0.84874  0.40702  0.46452  1.0000
  F   F366      1.0  0.85233  0.39571  0.96052  1.0000
  F   F367      1.0  0.84876  0.90596  0.46317  1.0000
  F   F368      1.0  0.85055  0.93134  0.96189  1.0000
  F   F369      1.0  0.04258  0.29501  0.29259  1.0000
  F   F370      1.0  0.05650  0.28671  0.77869  1.0000
  F   F371      1.0  0.05204  0.79680  0.28678  1.0000
  F   F372      1.0  0.03531  0.77761  0.80358  1.0000
  F   F373      1.0  0.29310  0.29629  0.29028  1.0000
  F   F374      1.0  0.29567  0.29588  0.78684  1.0000
  F   F375      1.0  0.29444  0.79747  0.28987  1.0000
  F   F376      1.0  0.28739  0.80534  0.78343  1.0000
  F   F377      1.0  0.55085  0.29577  0.28884  1.0000
  F   F378      1.0  0.55308  0.29801  0.79128  1.0000
  F   F379      1.0  0.54797  0.81680  0.27683  1.0000
  F   F380      1.0  0.54284  0.81037  0.78636  1.0000
  F   F381      1.0  0.81044  0.30976  0.27573  1.0000
  F   F382      1.0  0.78646  0.31202  0.79404  1.0000
  F   F383      1.0  0.79845  0.81399  0.27688  1.0000
  F   F384      1.0  0.81295  0.80570  0.79223  1.0000
