data_image0
_chemical_formula_structural       Hf96F384
_chemical_formula_sum              "Hf96 F384"
_cell_length_a       31.0074
_cell_length_b       15.5027
_cell_length_c       15.4958
_cell_angle_alpha    63.342
_cell_angle_beta     63.342
_cell_angle_gamma    80.1625

_space_group_name_H-M_alt    "P 1"
_space_group_IT_number       1

loop_
  _space_group_symop_operation_xyz
  'x, y, z'

loop_
  _atom_site_type_symbol
  _atom_site_label
  _atom_site_symmetry_multiplicity
  _atom_site_fract_x
  _atom_site_fract_y
  _atom_site_fract_z
  _atom_site_occupancy
  Hf  Hf1       1.0  0.19601  0.10279  0.37761  1.0000
  Hf  Hf2       1.0  0.19587  0.10904  0.87471  1.0000
  Hf  Hf3       1.0  0.19908  0.60507  0.37919  1.0000
  Hf  Hf4       1.0  0.19474  0.60912  0.87284  1.0000
  Hf  Hf5       1.0  0.44510  0.10514  0.38125  1.0000
  Hf  Hf6       1.0  0.44810  0.11358  0.86698  1.0000
  Hf  Hf7       1.0  0.44693  0.60226  0.37335  1.0000
  Hf  Hf8       1.0  0.44589  0.60552  0.87830  1.0000
  Hf  Hf9       1.0  0.69421  0.10502  0.37436  1.0000
  Hf  Hf10      1.0  0.69746  0.11287  0.87416  1.0000
  Hf  Hf11      1.0  0.69817  0.60474  0.36896  1.0000
  Hf  Hf12      1.0  0.70026  0.60516  0.87182  1.0000
  Hf  Hf13      1.0  0.93973  0.10749  0.38853  1.0000
  Hf  Hf14      1.0  0.94713  0.11586  0.86879  1.0000
  Hf  Hf15      1.0  0.94697  0.61120  0.36729  1.0000
  Hf  Hf16      1.0  0.94667  0.61123  0.87249  1.0000
  Hf  Hf17      1.0  0.05221  0.39550  0.11987  1.0000
  Hf  Hf18      1.0  0.05448  0.39046  0.62379  1.0000
  Hf  Hf19      1.0  0.05211  0.89607  0.12849  1.0000
  Hf  Hf20      1.0  0.05663  0.90006  0.61945  1.0000
  Hf  Hf21      1.0  0.30195  0.38969  0.12927  1.0000
  Hf  Hf22      1.0  0.30453  0.39259  0.62667  1.0000
  Hf  Hf23      1.0  0.30602  0.89204  0.11698  1.0000
  Hf  Hf24      1.0  0.30283  0.88279  0.62976  1.0000
  Hf  Hf25      1.0  0.55361  0.38932  0.12850  1.0000
  Hf  Hf26      1.0  0.55319  0.39147  0.62872  1.0000
  Hf  Hf27      1.0  0.55347  0.88976  0.12405  1.0000
  Hf  Hf28      1.0  0.55566  0.89072  0.62116  1.0000
  Hf  Hf29      1.0  0.80060  0.39360  0.12478  1.0000
  Hf  Hf30      1.0  0.80191  0.38648  0.63219  1.0000
  Hf  Hf31      1.0  0.80307  0.88884  0.13024  1.0000
  Hf  Hf32      1.0  0.80562  0.88964  0.62491  1.0000
  Hf  Hf33      1.0  0.05488  0.18672  0.41183  1.0000
  Hf  Hf34      1.0  0.05684  0.17844  0.92000  1.0000
  Hf  Hf35      1.0  0.05722  0.68608  0.41422  1.0000
  Hf  Hf36      1.0  0.05451  0.68644  0.91678  1.0000
  Hf  Hf37      1.0  0.30816  0.18431  0.41695  1.0000
  Hf  Hf38      1.0  0.30397  0.18955  0.91230  1.0000
  Hf  Hf39      1.0  0.30973  0.68638  0.41459  1.0000
  Hf  Hf40      1.0  0.30590  0.67892  0.92198  1.0000
  Hf  Hf41      1.0  0.55528  0.18823  0.41632  1.0000
  Hf  Hf42      1.0  0.55788  0.17565  0.92077  1.0000
  Hf  Hf43      1.0  0.55918  0.68263  0.41457  1.0000
  Hf  Hf44      1.0  0.55838  0.68391  0.91087  1.0000
  Hf  Hf45      1.0  0.80322  0.18407  0.41348  1.0000
  Hf  Hf46      1.0  0.80680  0.18558  0.91263  1.0000
  Hf  Hf47      1.0  0.80556  0.67230  0.41878  1.0000
  Hf  Hf48      1.0  0.80657  0.67751  0.91986  1.0000
  Hf  Hf49      1.0  0.15769  0.38471  0.33751  1.0000
  Hf  Hf50      1.0  0.15838  0.38335  0.82993  1.0000
  Hf  Hf51      1.0  0.16101  0.89283  0.33111  1.0000
  Hf  Hf52      1.0  0.15820  0.88577  0.84008  1.0000
  Hf  Hf53      1.0  0.41061  0.38834  0.33522  1.0000
  Hf  Hf54      1.0  0.40711  0.39446  0.83291  1.0000
  Hf  Hf55      1.0  0.40894  0.88479  0.33511  1.0000
  Hf  Hf56      1.0  0.41121  0.89737  0.82757  1.0000
  Hf  Hf57      1.0  0.65657  0.38701  0.34012  1.0000
  Hf  Hf58      1.0  0.65587  0.38595  0.84173  1.0000
  Hf  Hf59      1.0  0.65903  0.88474  0.33573  1.0000
  Hf  Hf60      1.0  0.65954  0.88436  0.83566  1.0000
  Hf  Hf61      1.0  0.90876  0.39219  0.32651  1.0000
  Hf  Hf62      1.0  0.90888  0.38808  0.83421  1.0000
  Hf  Hf63      1.0  0.90834  0.89567  0.32451  1.0000
  Hf  Hf64      1.0  0.90813  0.88814  0.83964  1.0000
  Hf  Hf65      1.0  0.19310  0.32188  0.07986  1.0000
  Hf  Hf66      1.0  0.19685  0.31666  0.57956  1.0000
  Hf  Hf67      1.0  0.19478  0.81538  0.08776  1.0000
  Hf  Hf68      1.0  0.19595  0.81973  0.58134  1.0000
  Hf  Hf69      1.0  0.44084  0.31332  0.09263  1.0000
  Hf  Hf70      1.0  0.44401  0.32455  0.58388  1.0000
  Hf  Hf71      1.0  0.44280  0.81128  0.08687  1.0000
  Hf  Hf72      1.0  0.44489  0.81796  0.57635  1.0000
  Hf  Hf73      1.0  0.68993  0.31264  0.09588  1.0000
  Hf  Hf74      1.0  0.69317  0.31945  0.58407  1.0000
  Hf  Hf75      1.0  0.69490  0.81134  0.08275  1.0000
  Hf  Hf76      1.0  0.69631  0.81895  0.58104  1.0000
  Hf  Hf77      1.0  0.94070  0.31727  0.08124  1.0000
  Hf  Hf78      1.0  0.94489  0.31886  0.58080  1.0000
  Hf  Hf79      1.0  0.94575  0.82663  0.08052  1.0000
  Hf  Hf80      1.0  0.94408  0.82127  0.58029  1.0000
  Hf  Hf81      1.0  0.09033  0.11642  0.17179  1.0000
  Hf  Hf82      1.0  0.08967  0.10959  0.66827  1.0000
  Hf  Hf83      1.0  0.09290  0.61506  0.16551  1.0000
  Hf  Hf84      1.0  0.09290  0.61093  0.66512  1.0000
  Hf  Hf85      1.0  0.34437  0.11259  0.15899  1.0000
  Hf  Hf86      1.0  0.33831  0.10882  0.67064  1.0000
  Hf  Hf87      1.0  0.34255  0.61204  0.16971  1.0000
  Hf  Hf88      1.0  0.33853  0.60759  0.67111  1.0000
  Hf  Hf89      1.0  0.59123  0.11111  0.17014  1.0000
  Hf  Hf90      1.0  0.59070  0.10382  0.67051  1.0000
  Hf  Hf91      1.0  0.59331  0.61224  0.16069  1.0000
  Hf  Hf92      1.0  0.59379  0.61388  0.65723  1.0000
  Hf  Hf93      1.0  0.83398  0.11178  0.16989  1.0000
  Hf  Hf94      1.0  0.83925  0.11519  0.66851  1.0000
  Hf  Hf95      1.0  0.84300  0.61490  0.16546  1.0000
  Hf  Hf96      1.0  0.84483  0.61073  0.66089  1.0000
  F   F1        1.0  0.07369  0.12676  0.30993  1.0000
  F   F2        1.0  0.07743  0.12182  0.81614  1.0000
  F   F3        1.0  0.07614  0.62394  0.31308  1.0000
  F   F4        1.0  0.08022  0.62876  0.80164  1.0000
  F   F5        1.0  0.33228  0.14104  0.29911  1.0000
  F   F6        1.0  0.32872  0.12880  0.80458  1.0000
  F   F7        1.0  0.33245  0.63423  0.30501  1.0000
  F   F8        1.0  0.32420  0.61301  0.81554  1.0000
  F   F9        1.0  0.57697  0.13744  0.30337  1.0000
  F   F10       1.0  0.57631  0.11664  0.81534  1.0000
  F   F11       1.0  0.58700  0.64035  0.29371  1.0000
  F   F12       1.0  0.57822  0.62421  0.79786  1.0000
  F   F13       1.0  0.82458  0.13028  0.30241  1.0000
  F   F14       1.0  0.83074  0.11902  0.80869  1.0000
  F   F15       1.0  0.82954  0.63033  0.29826  1.0000
  F   F16       1.0  0.82812  0.61973  0.80857  1.0000
  F   F17       1.0  0.18741  0.34858  0.44376  1.0000
  F   F18       1.0  0.18406  0.33845  0.94317  1.0000
  F   F19       1.0  0.19315  0.84927  0.43460  1.0000
  F   F20       1.0  0.18348  0.84331  0.95085  1.0000
  F   F21       1.0  0.43551  0.35010  0.44885  1.0000
  F   F22       1.0  0.42951  0.34596  0.95026  1.0000
  F   F23       1.0  0.44104  0.84298  0.43604  1.0000
  F   F24       1.0  0.43331  0.82992  0.94897  1.0000
  F   F25       1.0  0.68307  0.34155  0.44637  1.0000
  F   F26       1.0  0.67922  0.33245  0.95494  1.0000
  F   F27       1.0  0.68282  0.82825  0.45667  1.0000
  F   F28       1.0  0.69596  0.86203  0.93862  1.0000
  F   F29       1.0  0.93471  0.33698  0.44597  1.0000
  F   F30       1.0  0.93921  0.34724  0.93699  1.0000
  F   F31       1.0  0.93565  0.84776  0.43977  1.0000
  F   F32       1.0  0.93218  0.84558  0.95051  1.0000
  F   F33       1.0  0.16288  0.36224  0.20821  1.0000
  F   F34       1.0  0.17025  0.35599  0.69905  1.0000
  F   F35       1.0  0.17305  0.87710  0.19592  1.0000
  F   F36       1.0  0.17301  0.86299  0.69655  1.0000
  F   F37       1.0  0.42390  0.36404  0.19987  1.0000
  F   F38       1.0  0.42328  0.37448  0.69480  1.0000
  F   F39       1.0  0.41873  0.87150  0.19694  1.0000
  F   F40       1.0  0.42463  0.88657  0.68765  1.0000
  F   F41       1.0  0.66264  0.36100  0.21218  1.0000
  F   F42       1.0  0.66873  0.37873  0.69002  1.0000
  F   F43       1.0  0.66652  0.87709  0.19831  1.0000
  F   F44       1.0  0.66612  0.86582  0.70152  1.0000
  F   F45       1.0  0.92068  0.38715  0.18529  1.0000
  F   F46       1.0  0.91858  0.37965  0.69131  1.0000
  F   F47       1.0  0.93058  0.89119  0.17616  1.0000
  F   F48       1.0  0.91956  0.86490  0.70233  1.0000
  F   F49       1.0  0.06607  0.15971  0.05365  1.0000
  F   F50       1.0  0.06409  0.15368  0.55738  1.0000
  F   F51       1.0  0.06402  0.66416  0.05420  1.0000
  F   F52       1.0  0.06326  0.66212  0.55438  1.0000
  F   F53       1.0  0.32076  0.17399  0.03300  1.0000
  F   F54       1.0  0.31224  0.14435  0.56056  1.0000
  F   F55       1.0  0.30572  0.65106  0.06749  1.0000
  F   F56       1.0  0.32527  0.65542  0.54074  1.0000
  F   F57       1.0  0.55222  0.15238  0.06892  1.0000
  F   F58       1.0  0.56037  0.15460  0.55849  1.0000
  F   F59       1.0  0.56366  0.65637  0.05248  1.0000
  F   F60       1.0  0.56050  0.66019  0.55150  1.0000
  F   F61       1.0  0.81192  0.15429  0.05339  1.0000
  F   F62       1.0  0.81446  0.16030  0.54996  1.0000
  F   F63       1.0  0.81497  0.65159  0.05833  1.0000
  F   F64       1.0  0.82287  0.66850  0.53428  1.0000
  F   F65       1.0  0.21217  0.20137  0.21238  1.0000
  F   F66       1.0  0.20421  0.19691  0.71880  1.0000
  F   F67       1.0  0.20803  0.70079  0.20526  1.0000
  F   F68       1.0  0.21002  0.70272  0.70361  1.0000
  F   F69       1.0  0.44552  0.19835  0.21409  1.0000
  F   F70       1.0  0.46284  0.20587  0.71188  1.0000
  F   F71       1.0  0.45826  0.69564  0.21564  1.0000
  F   F72       1.0  0.44112  0.69573  0.70126  1.0000
  F   F73       1.0  0.71414  0.20336  0.20875  1.0000
  F   F74       1.0  0.69771  0.20042  0.71432  1.0000
  F   F75       1.0  0.70499  0.69656  0.19714  1.0000
  F   F76       1.0  0.70476  0.69379  0.71965  1.0000
  F   F77       1.0  0.93877  0.20825  0.21301  1.0000
  F   F78       1.0  0.95323  0.20541  0.71155  1.0000
  F   F79       1.0  0.95504  0.71148  0.21167  1.0000
  F   F80       1.0  0.96060  0.70625  0.71381  1.0000
  F   F81       1.0  0.14761  0.10437  0.04902  1.0000
  F   F82       1.0  0.14826  0.09174  0.53553  1.0000
  F   F83       1.0  0.15080  0.60924  0.03995  1.0000
  F   F84       1.0  0.15333  0.58813  0.53255  1.0000
  F   F85       1.0  0.39919  0.09907  0.01891  1.0000
  F   F86       1.0  0.40177  0.09890  0.54675  1.0000
  F   F87       1.0  0.39993  0.59810  0.04140  1.0000
  F   F88       1.0  0.40035  0.57162  0.54180  1.0000
  F   F89       1.0  0.64546  0.10967  0.03858  1.0000
  F   F90       1.0  0.64767  0.07713  0.54417  1.0000
  F   F91       1.0  0.64802  0.59236  0.03554  1.0000
  F   F92       1.0  0.64927  0.60276  0.52323  1.0000
  F   F93       1.0  0.89815  0.07845  0.03739  1.0000
  F   F94       1.0  0.89843  0.09908  0.54280  1.0000
  F   F95       1.0  0.89934  0.58361  0.04068  1.0000
  F   F96       1.0  0.90115  0.58522  0.54543  1.0000
  F   F97       1.0  0.14696  0.20778  0.14919  1.0000
  F   F98       1.0  0.14977  0.19665  0.61361  1.0000
  F   F99       1.0  0.15083  0.69839  0.13595  1.0000
  F   F100      1.0  0.15480  0.70064  0.61550  1.0000
  F   F101      1.0  0.40133  0.19574  0.11069  1.0000
  F   F102      1.0  0.40469  0.19591  0.63451  1.0000
  F   F103      1.0  0.40174  0.69283  0.13842  1.0000
  F   F104      1.0  0.39836  0.69429  0.60865  1.0000
  F   F105      1.0  0.65536  0.19083  0.14115  1.0000
  F   F106      1.0  0.65329  0.20483  0.61166  1.0000
  F   F107      1.0  0.65627  0.70019  0.10250  1.0000
  F   F108      1.0  0.65912  0.69533  0.62222  1.0000
  F   F109      1.0  0.89315  0.19665  0.11733  1.0000
  F   F110      1.0  0.90456  0.18841  0.62646  1.0000
  F   F111      1.0  0.90378  0.69923  0.12966  1.0000
  F   F112      1.0  0.90017  0.69769  0.63177  1.0000
  F   F113      1.0  0.09580  0.29472  0.37531  1.0000
  F   F114      1.0  0.10381  0.29043  0.88164  1.0000
  F   F115      1.0  0.10272  0.80824  0.37979  1.0000
  F   F116      1.0  0.09759  0.81392  0.88031  1.0000
  F   F117      1.0  0.34582  0.30115  0.37535  1.0000
  F   F118      1.0  0.34674  0.32031  0.86301  1.0000
  F   F119      1.0  0.35005  0.80984  0.36352  1.0000
  F   F120      1.0  0.35397  0.80410  0.87855  1.0000
  F   F121      1.0  0.59430  0.31600  0.38070  1.0000
  F   F122      1.0  0.59953  0.29325  0.88687  1.0000
  F   F123      1.0  0.60488  0.79892  0.36902  1.0000
  F   F124      1.0  0.60041  0.80516  0.87638  1.0000
  F   F125      1.0  0.84538  0.30491  0.37548  1.0000
  F   F126      1.0  0.85072  0.29193  0.88909  1.0000
  F   F127      1.0  0.85006  0.79752  0.34175  1.0000
  F   F128      1.0  0.85014  0.79241  0.87900  1.0000
  F   F129      1.0  0.07048  0.25995  0.12240  1.0000
  F   F130      1.0  0.06543  0.24849  0.64675  1.0000
  F   F131      1.0  0.06077  0.74428  0.15251  1.0000
  F   F132      1.0  0.06438  0.76022  0.64147  1.0000
  F   F133      1.0  0.31258  0.24693  0.14396  1.0000
  F   F134      1.0  0.31901  0.25027  0.62856  1.0000
  F   F135      1.0  0.31305  0.75195  0.14428  1.0000
  F   F136      1.0  0.30664  0.74501  0.64557  1.0000
  F   F137      1.0  0.57123  0.25708  0.13638  1.0000
  F   F138      1.0  0.56690  0.25170  0.63181  1.0000
  F   F139      1.0  0.56577  0.74727  0.14199  1.0000
  F   F140      1.0  0.56967  0.75055  0.63830  1.0000
  F   F141      1.0  0.81132  0.25938  0.13858  1.0000
  F   F142      1.0  0.81073  0.25030  0.65275  1.0000
  F   F143      1.0  0.82379  0.75649  0.11830  1.0000
  F   F144      1.0  0.82103  0.75572  0.63400  1.0000
  F   F145      1.0  0.12341  0.37830  0.09941  1.0000
  F   F146      1.0  0.12688  0.37932  0.59343  1.0000
  F   F147      1.0  0.12536  0.86148  0.11500  1.0000
  F   F148      1.0  0.12914  0.88176  0.59641  1.0000
  F   F149      1.0  0.37291  0.35962  0.12258  1.0000
  F   F150      1.0  0.37527  0.36955  0.61483  1.0000
  F   F151      1.0  0.37278  0.85366  0.12070  1.0000
  F   F152      1.0  0.37805  0.86358  0.60662  1.0000
  F   F153      1.0  0.62527  0.37875  0.10326  1.0000
  F   F154      1.0  0.61951  0.36466  0.62101  1.0000
  F   F155      1.0  0.62632  0.86698  0.10710  1.0000
  F   F156      1.0  0.62454  0.87303  0.59729  1.0000
  F   F157      1.0  0.87198  0.36979  0.11295  1.0000
  F   F158      1.0  0.87083  0.35390  0.62284  1.0000
  F   F159      1.0  0.87343  0.86612  0.11291  1.0000
  F   F160      1.0  0.87590  0.88213  0.59093  1.0000
  F   F161      1.0  0.18058  0.24234  0.36124  1.0000
  F   F162      1.0  0.19464  0.24885  0.85011  1.0000
  F   F163      1.0  0.19038  0.75296  0.34624  1.0000
  F   F164      1.0  0.18626  0.75743  0.85213  1.0000
  F   F165      1.0  0.43624  0.25143  0.35607  1.0000
  F   F166      1.0  0.44354  0.25921  0.84456  1.0000
  F   F167      1.0  0.44028  0.74234  0.35189  1.0000
  F   F168      1.0  0.43936  0.74199  0.84366  1.0000
  F   F169      1.0  0.67280  0.24373  0.38303  1.0000
  F   F170      1.0  0.68625  0.25135  0.85092  1.0000
  F   F171      1.0  0.69341  0.74503  0.34658  1.0000
  F   F172      1.0  0.68635  0.74272  0.86660  1.0000
  F   F173      1.0  0.93178  0.24896  0.35937  1.0000
  F   F174      1.0  0.93291  0.25038  0.86140  1.0000
  F   F175      1.0  0.92191  0.74960  0.36915  1.0000
  F   F176      1.0  0.93193  0.74621  0.86657  1.0000
  F   F177      1.0  0.12364  0.11703  0.40180  1.0000
  F   F178      1.0  0.12275  0.11701  0.90751  1.0000
  F   F179      1.0  0.12834  0.64300  0.38483  1.0000
  F   F180      1.0  0.12364  0.63264  0.90020  1.0000
  F   F181      1.0  0.37426  0.11594  0.40954  1.0000
  F   F182      1.0  0.37730  0.14089  0.87522  1.0000
  F   F183      1.0  0.37708  0.62408  0.39206  1.0000
  F   F184      1.0  0.37362  0.63820  0.88996  1.0000
  F   F185      1.0  0.62849  0.13906  0.38344  1.0000
  F   F186      1.0  0.62704  0.12926  0.88738  1.0000
  F   F187      1.0  0.62550  0.61960  0.39286  1.0000
  F   F188      1.0  0.62825  0.63527  0.87649  1.0000
  F   F189      1.0  0.86859  0.12443  0.40984  1.0000
  F   F190      1.0  0.87617  0.12620  0.89143  1.0000
  F   F191      1.0  0.87432  0.60345  0.39489  1.0000
  F   F192      1.0  0.87704  0.63992  0.88010  1.0000
  F   F193      1.0  0.00288  0.36330  0.06908  1.0000
  F   F194      1.0  0.00716  0.35425  0.58014  1.0000
  F   F195      1.0  0.01111  0.85349  0.07984  1.0000
  F   F196      1.0  0.00575  0.86722  0.56473  1.0000
  F   F197      1.0  0.25162  0.37218  0.07828  1.0000
  F   F198      1.0  0.25612  0.35619  0.59113  1.0000
  F   F199      1.0  0.26032  0.87139  0.05913  1.0000
  F   F200      1.0  0.25702  0.86535  0.57173  1.0000
  F   F201      1.0  0.50602  0.34470  0.07939  1.0000
  F   F202      1.0  0.51052  0.37451  0.56684  1.0000
  F   F203      1.0  0.50685  0.84725  0.08361  1.0000
  F   F204      1.0  0.50709  0.84860  0.58751  1.0000
  F   F205      1.0  0.75547  0.37046  0.07866  1.0000
  F   F206      1.0  0.75414  0.35832  0.58418  1.0000
  F   F207      1.0  0.75585  0.86309  0.07004  1.0000
  F   F208      1.0  0.75749  0.84914  0.57439  1.0000
  F   F209      1.0  0.06857  0.49034  0.16846  1.0000
  F   F210      1.0  0.06796  0.48409  0.67039  1.0000
  F   F211      1.0  0.06506  0.99166  0.17996  1.0000
  F   F212      1.0  0.06827  0.98093  0.67869  1.0000
  F   F213      1.0  0.32240  0.48426  0.17438  1.0000
  F   F214      1.0  0.31358  0.47121  0.70272  1.0000
  F   F215      1.0  0.32202  0.98373  0.17210  1.0000
  F   F216      1.0  0.31626  0.97745  0.68941  1.0000
  F   F217      1.0  0.56663  0.48186  0.16843  1.0000
  F   F218      1.0  0.57309  0.48772  0.66734  1.0000
  F   F219      1.0  0.56808  0.99082  0.16591  1.0000
  F   F220      1.0  0.57025  0.98108  0.67783  1.0000
  F   F221      1.0  0.81229  0.48002  0.19077  1.0000
  F   F222      1.0  0.81834  0.49067  0.66416  1.0000
  F   F223      1.0  0.81893  0.97547  0.17611  1.0000
  F   F224      1.0  0.81754  0.99073  0.66703  1.0000
  F   F225      1.0  0.24026  0.14009  0.43249  1.0000
  F   F226      1.0  0.24343  0.13666  0.92658  1.0000
  F   F227      1.0  0.24515  0.63065  0.42949  1.0000
  F   F228      1.0  0.24113  0.63550  0.92830  1.0000
  F   F229      1.0  0.49174  0.13355  0.43585  1.0000
  F   F230      1.0  0.49268  0.13537  0.92167  1.0000
  F   F231      1.0  0.50158  0.63535  0.40634  1.0000
  F   F232      1.0  0.49207  0.63571  0.93203  1.0000
  F   F233      1.0  0.74023  0.14177  0.42040  1.0000
  F   F234      1.0  0.73998  0.14671  0.92689  1.0000
  F   F235      1.0  0.73832  0.62723  0.43871  1.0000
  F   F236      1.0  0.74187  0.63589  0.92333  1.0000
  F   F237      1.0  0.99280  0.15144  0.41305  1.0000
  F   F238      1.0  0.99091  0.14921  0.92667  1.0000
  F   F239      1.0  0.99114  0.65233  0.40669  1.0000
  F   F240      1.0  0.99392  0.65055  0.91251  1.0000
  F   F241      1.0  0.18532  0.02029  0.31541  1.0000
  F   F242      1.0  0.18326  0.00880  0.82590  1.0000
  F   F243      1.0  0.17736  0.51838  0.33451  1.0000
  F   F244      1.0  0.18483  0.51838  0.81752  1.0000
  F   F245      1.0  0.43439  0.01377  0.32741  1.0000
  F   F246      1.0  0.43197  0.01982  0.82176  1.0000
  F   F247      1.0  0.43769  0.51791  0.30988  1.0000
  F   F248      1.0  0.42691  0.51948  0.83448  1.0000
  F   F249      1.0  0.67763  0.00867  0.32745  1.0000
  F   F250      1.0  0.68676  0.01758  0.81505  1.0000
  F   F251      1.0  0.68151  0.51408  0.31693  1.0000
  F   F252      1.0  0.68199  0.50488  0.83745  1.0000
  F   F253      1.0  0.92300  0.01550  0.32946  1.0000
  F   F254      1.0  0.93378  0.02222  0.81269  1.0000
  F   F255      1.0  0.93300  0.51516  0.31281  1.0000
  F   F256      1.0  0.92941  0.51066  0.82605  1.0000
  F   F257      1.0  0.00243  0.24586  0.00703  1.0000
  F   F258      1.0  0.99636  0.24477  0.49768  1.0000
  F   F259      1.0  0.00160  0.75478  0.99843  1.0000
  F   F260      1.0  0.99392  0.74397  0.50582  1.0000
  F   F261      1.0  0.24749  0.25642  0.99769  1.0000
  F   F262      1.0  0.25641  0.25188  0.50211  1.0000
  F   F263      1.0  0.24869  0.75491  0.00089  1.0000
  F   F264      1.0  0.25333  0.74423  0.50279  1.0000
  F   F265      1.0  0.49567  0.25161  0.00309  1.0000
  F   F266      1.0  0.49614  0.25237  0.50558  1.0000
  F   F267      1.0  0.50189  0.76606  0.98520  1.0000
  F   F268      1.0  0.49428  0.74700  0.49494  1.0000
  F   F269      1.0  0.74791  0.24713  0.00390  1.0000
  F   F270      1.0  0.74802  0.24543  0.50732  1.0000
  F   F271      1.0  0.75324  0.76147  0.99090  1.0000
  F   F272      1.0  0.75275  0.74405  0.49828  1.0000
  F   F273      1.0  0.12127  0.00080  0.26372  1.0000
  F   F274      1.0  0.12272  0.00333  0.75304  1.0000
  F   F275      1.0  0.12614  0.49354  0.25092  1.0000
  F   F276      1.0  0.12543  0.49941  0.74246  1.0000
  F   F277      1.0  0.36893  0.99996  0.25256  1.0000
  F   F278      1.0  0.37048  0.00126  0.76090  1.0000
  F   F279      1.0  0.37392  0.48959  0.25695  1.0000
  F   F280      1.0  0.37614  0.50721  0.74264  1.0000
  F   F281      1.0  0.61874  0.99935  0.26155  1.0000
  F   F282      1.0  0.62551  0.99830  0.75885  1.0000
  F   F283      1.0  0.61642  0.50087  0.25818  1.0000
  F   F284      1.0  0.62545  0.50627  0.75227  1.0000
  F   F285      1.0  0.86606  0.00403  0.25489  1.0000
  F   F286      1.0  0.87230  0.99117  0.74619  1.0000
  F   F287      1.0  0.87122  0.50307  0.25599  1.0000
  F   F288      1.0  0.87802  0.50340  0.74494  1.0000
  F   F289      1.0  0.03677  0.03585  0.03663  1.0000
  F   F290      1.0  0.03937  0.03692  0.52584  1.0000
  F   F291      1.0  0.04003  0.54058  0.01066  1.0000
  F   F292      1.0  0.04071  0.53929  0.51634  1.0000
  F   F293      1.0  0.29438  0.03614  0.01940  1.0000
  F   F294      1.0  0.29704  0.01759  0.51686  1.0000
  F   F295      1.0  0.28964  0.52531  0.03609  1.0000
  F   F296      1.0  0.29437  0.52680  0.52417  1.0000
  F   F297      1.0  0.53675  0.02619  0.02892  1.0000
  F   F298      1.0  0.54848  0.02939  0.51431  1.0000
  F   F299      1.0  0.53753  0.52915  0.02558  1.0000
  F   F300      1.0  0.53904  0.52943  0.52811  1.0000
  F   F301      1.0  0.79010  0.03448  0.02020  1.0000
  F   F302      1.0  0.79005  0.02529  0.52124  1.0000
  F   F303      1.0  0.78499  0.53131  0.02987  1.0000
  F   F304      1.0  0.78877  0.53302  0.52941  1.0000
  F   F305      1.0  0.23174  0.40694  0.23953  1.0000
  F   F306      1.0  0.23417  0.40974  0.73571  1.0000
  F   F307      1.0  0.23742  0.92863  0.20251  1.0000
  F   F308      1.0  0.23806  0.91384  0.72718  1.0000
  F   F309      1.0  0.48354  0.39941  0.23236  1.0000
  F   F310      1.0  0.48403  0.41973  0.73406  1.0000
  F   F311      1.0  0.48545  0.90095  0.23413  1.0000
  F   F312      1.0  0.48650  0.91916  0.72142  1.0000
  F   F313      1.0  0.73201  0.39186  0.23851  1.0000
  F   F314      1.0  0.73249  0.40460  0.73708  1.0000
  F   F315      1.0  0.72874  0.92141  0.22542  1.0000
  F   F316      1.0  0.73592  0.90282  0.72693  1.0000
  F   F317      1.0  0.98372  0.40701  0.22544  1.0000
  F   F318      1.0  0.98646  0.42072  0.71988  1.0000
  F   F319      1.0  0.98674  0.90468  0.24250  1.0000
  F   F320      1.0  0.98852  0.90689  0.73490  1.0000
  F   F321      1.0  0.21664  0.46243  0.47845  1.0000
  F   F322      1.0  0.20376  0.47439  0.98000  1.0000
  F   F323      1.0  0.21094  0.96794  0.48326  1.0000
  F   F324      1.0  0.20118  0.97943  0.98666  1.0000
  F   F325      1.0  0.46224  0.46849  0.46826  1.0000
  F   F326      1.0  0.46027  0.47219  0.97628  1.0000
  F   F327      1.0  0.45974  0.96815  0.47760  1.0000
  F   F328      1.0  0.45529  0.96491  0.97919  1.0000
  F   F329      1.0  0.70348  0.46608  0.47089  1.0000
  F   F330      1.0  0.70987  0.46565  0.97025  1.0000
  F   F331      1.0  0.70909  0.97163  0.46494  1.0000
  F   F332      1.0  0.70192  0.98323  0.98850  1.0000
  F   F333      1.0  0.95961  0.46505  0.48077  1.0000
  F   F334      1.0  0.95838  0.47752  0.96994  1.0000
  F   F335      1.0  0.95195  0.96885  0.48081  1.0000
  F   F336      1.0  0.96240  0.97295  0.96562  1.0000
  F   F337      1.0  0.00647  0.11117  0.26403  1.0000
  F   F338      1.0  0.01682  0.08319  0.77326  1.0000
  F   F339      1.0  0.01656  0.58047  0.27787  1.0000
  F   F340      1.0  0.01944  0.58253  0.77061  1.0000
  F   F341      1.0  0.27239  0.08598  0.26910  1.0000
  F   F342      1.0  0.26649  0.08579  0.77175  1.0000
  F   F343      1.0  0.27044  0.59517  0.26764  1.0000
  F   F344      1.0  0.26192  0.59044  0.77383  1.0000
  F   F345      1.0  0.51622  0.08319  0.27834  1.0000
  F   F346      1.0  0.51975  0.07782  0.77653  1.0000
  F   F347      1.0  0.52089  0.57559  0.26098  1.0000
  F   F348      1.0  0.51302  0.60716  0.75584  1.0000
  F   F349      1.0  0.76408  0.07301  0.27938  1.0000
  F   F350      1.0  0.76502  0.08589  0.77732  1.0000
  F   F351      1.0  0.76680  0.58979  0.27434  1.0000
  F   F352      1.0  0.76809  0.57050  0.77561  1.0000
  F   F353      1.0  0.09304  0.39432  0.45668  1.0000
  F   F354      1.0  0.10013  0.41299  0.94888  1.0000
  F   F355      1.0  0.10213  0.92891  0.45885  1.0000
  F   F356      1.0  0.09672  0.92040  0.97409  1.0000
  F   F357      1.0  0.35435  0.41415  0.45428  1.0000
  F   F358      1.0  0.34567  0.40891  0.97037  1.0000
  F   F359      1.0  0.35494  0.90301  0.46503  1.0000
  F   F360      1.0  0.35491  0.92868  0.96069  1.0000
  F   F361      1.0  0.59764  0.41850  0.46477  1.0000
  F   F362      1.0  0.59513  0.40818  0.96189  1.0000
  F   F363      1.0  0.59769  0.90051  0.46293  1.0000
  F   F364      1.0  0.60432  0.89915  0.96272  1.0000
  F   F365      1.0  0.85160  0.39590  0.46906  1.0000
  F   F366      1.0  0.85383  0.41137  0.96055  1.0000
  F   F367      1.0  0.84883  0.90286  0.45228  1.0000
  F   F368      1.0  0.84899  0.90233  0.97033  1.0000
  F   F369      1.0  0.04758  0.29696  0.28146  1.0000
  F   F370      1.0  0.04916  0.30854  0.78316  1.0000
  F   F371      1.0  0.05456  0.80350  0.28823  1.0000
  F   F372      1.0  0.05279  0.80358  0.79010  1.0000
  F   F373      1.0  0.29676  0.30583  0.27834  1.0000
  F   F374      1.0  0.29733  0.28799  0.78341  1.0000
  F   F375      1.0  0.29129  0.79295  0.29916  1.0000
  F   F376      1.0  0.29685  0.79023  0.79294  1.0000
  F   F377      1.0  0.54390  0.29981  0.29721  1.0000
  F   F378      1.0  0.54414  0.29225  0.80088  1.0000
  F   F379      1.0  0.54995  0.81000  0.29131  1.0000
  F   F380      1.0  0.54807  0.79425  0.77792  1.0000
  F   F381      1.0  0.79194  0.29342  0.29184  1.0000
  F   F382      1.0  0.79595  0.30275  0.78819  1.0000
  F   F383      1.0  0.78400  0.78920  0.28665  1.0000
  F   F384      1.0  0.80509  0.80684  0.77197  1.0000
