data_image0
_chemical_formula_structural       Hf96F384
_chemical_formula_sum              "Hf96 F384"
_cell_length_a       31.0565
_cell_length_b       15.5253
_cell_length_c       15.519
_cell_angle_alpha    63.342
_cell_angle_beta     63.342
_cell_angle_gamma    80.1625

_space_group_name_H-M_alt    "P 1"
_space_group_IT_number       1

loop_
  _space_group_symop_operation_xyz
  'x, y, z'

loop_
  _atom_site_type_symbol
  _atom_site_label
  _atom_site_symmetry_multiplicity
  _atom_site_fract_x
  _atom_site_fract_y
  _atom_site_fract_z
  _atom_site_occupancy
  Hf  Hf1       1.0  0.19516  0.09889  0.37363  1.0000
  Hf  Hf2       1.0  0.20039  0.10802  0.87375  1.0000
  Hf  Hf3       1.0  0.19136  0.60525  0.39137  1.0000
  Hf  Hf4       1.0  0.19497  0.60634  0.88130  1.0000
  Hf  Hf5       1.0  0.44563  0.10296  0.36688  1.0000
  Hf  Hf6       1.0  0.44559  0.10119  0.87606  1.0000
  Hf  Hf7       1.0  0.44738  0.60571  0.36571  1.0000
  Hf  Hf8       1.0  0.44550  0.61097  0.87291  1.0000
  Hf  Hf9       1.0  0.69449  0.10500  0.37409  1.0000
  Hf  Hf10      1.0  0.69604  0.10948  0.87757  1.0000
  Hf  Hf11      1.0  0.69751  0.61380  0.37264  1.0000
  Hf  Hf12      1.0  0.70144  0.61353  0.85688  1.0000
  Hf  Hf13      1.0  0.94594  0.11610  0.36031  1.0000
  Hf  Hf14      1.0  0.94805  0.10648  0.87556  1.0000
  Hf  Hf15      1.0  0.94375  0.60370  0.38387  1.0000
  Hf  Hf16      1.0  0.94362  0.60355  0.88357  1.0000
  Hf  Hf17      1.0  0.05310  0.39810  0.11895  1.0000
  Hf  Hf18      1.0  0.05465  0.39384  0.62423  1.0000
  Hf  Hf19      1.0  0.05617  0.89322  0.12696  1.0000
  Hf  Hf20      1.0  0.05249  0.89874  0.62904  1.0000
  Hf  Hf21      1.0  0.30416  0.39012  0.12525  1.0000
  Hf  Hf22      1.0  0.30373  0.38867  0.62639  1.0000
  Hf  Hf23      1.0  0.30490  0.89658  0.11981  1.0000
  Hf  Hf24      1.0  0.30299  0.87916  0.63187  1.0000
  Hf  Hf25      1.0  0.55156  0.39104  0.12709  1.0000
  Hf  Hf26      1.0  0.55401  0.39279  0.62113  1.0000
  Hf  Hf27      1.0  0.55681  0.89600  0.11741  1.0000
  Hf  Hf28      1.0  0.55821  0.90674  0.61207  1.0000
  Hf  Hf29      1.0  0.80557  0.39358  0.12126  1.0000
  Hf  Hf30      1.0  0.80559  0.39926  0.62303  1.0000
  Hf  Hf31      1.0  0.80273  0.89635  0.12663  1.0000
  Hf  Hf32      1.0  0.80475  0.88537  0.62933  1.0000
  Hf  Hf33      1.0  0.05544  0.18595  0.41971  1.0000
  Hf  Hf34      1.0  0.05734  0.18048  0.91611  1.0000
  Hf  Hf35      1.0  0.05282  0.67994  0.41314  1.0000
  Hf  Hf36      1.0  0.05496  0.68770  0.91948  1.0000
  Hf  Hf37      1.0  0.30324  0.17020  0.42531  1.0000
  Hf  Hf38      1.0  0.30458  0.18549  0.91615  1.0000
  Hf  Hf39      1.0  0.30610  0.68529  0.41347  1.0000
  Hf  Hf40      1.0  0.30798  0.67916  0.92301  1.0000
  Hf  Hf41      1.0  0.55690  0.18833  0.40981  1.0000
  Hf  Hf42      1.0  0.55482  0.17281  0.91648  1.0000
  Hf  Hf43      1.0  0.55786  0.68322  0.40980  1.0000
  Hf  Hf44      1.0  0.55536  0.68169  0.91683  1.0000
  Hf  Hf45      1.0  0.80488  0.18217  0.41944  1.0000
  Hf  Hf46      1.0  0.80647  0.17571  0.92652  1.0000
  Hf  Hf47      1.0  0.80488  0.68840  0.41395  1.0000
  Hf  Hf48      1.0  0.80414  0.68229  0.91710  1.0000
  Hf  Hf49      1.0  0.15911  0.39127  0.33109  1.0000
  Hf  Hf50      1.0  0.15739  0.38806  0.82977  1.0000
  Hf  Hf51      1.0  0.15829  0.87610  0.34398  1.0000
  Hf  Hf52      1.0  0.15627  0.87629  0.84997  1.0000
  Hf  Hf53      1.0  0.40611  0.37352  0.33776  1.0000
  Hf  Hf54      1.0  0.40832  0.38282  0.83749  1.0000
  Hf  Hf55      1.0  0.40841  0.88439  0.33491  1.0000
  Hf  Hf56      1.0  0.41270  0.87802  0.83454  1.0000
  Hf  Hf57      1.0  0.65980  0.39195  0.32629  1.0000
  Hf  Hf58      1.0  0.65560  0.38713  0.83737  1.0000
  Hf  Hf59      1.0  0.66169  0.89080  0.32717  1.0000
  Hf  Hf60      1.0  0.66289  0.89149  0.82852  1.0000
  Hf  Hf61      1.0  0.90398  0.38564  0.34950  1.0000
  Hf  Hf62      1.0  0.90813  0.38531  0.83113  1.0000
  Hf  Hf63      1.0  0.90849  0.89078  0.32882  1.0000
  Hf  Hf64      1.0  0.90892  0.88866  0.83266  1.0000
  Hf  Hf65      1.0  0.19371  0.31672  0.08285  1.0000
  Hf  Hf66      1.0  0.19388  0.31407  0.57969  1.0000
  Hf  Hf67      1.0  0.19705  0.81856  0.08699  1.0000
  Hf  Hf68      1.0  0.19232  0.81030  0.59337  1.0000
  Hf  Hf69      1.0  0.44694  0.32061  0.07067  1.0000
  Hf  Hf70      1.0  0.44355  0.31885  0.58208  1.0000
  Hf  Hf71      1.0  0.44519  0.81804  0.08048  1.0000
  Hf  Hf72      1.0  0.44590  0.81734  0.58104  1.0000
  Hf  Hf73      1.0  0.69536  0.32634  0.07720  1.0000
  Hf  Hf74      1.0  0.69635  0.31961  0.57808  1.0000
  Hf  Hf75      1.0  0.69558  0.81364  0.08168  1.0000
  Hf  Hf76      1.0  0.69419  0.82084  0.58018  1.0000
  Hf  Hf77      1.0  0.93866  0.31566  0.08404  1.0000
  Hf  Hf78      1.0  0.94131  0.31703  0.58917  1.0000
  Hf  Hf79      1.0  0.94099  0.81670  0.09191  1.0000
  Hf  Hf80      1.0  0.94641  0.82304  0.57332  1.0000
  Hf  Hf81      1.0  0.09156  0.11742  0.16893  1.0000
  Hf  Hf82      1.0  0.09467  0.11371  0.66070  1.0000
  Hf  Hf83      1.0  0.09299  0.60871  0.16779  1.0000
  Hf  Hf84      1.0  0.08749  0.61720  0.67350  1.0000
  Hf  Hf85      1.0  0.34274  0.11488  0.16799  1.0000
  Hf  Hf86      1.0  0.34426  0.10558  0.66424  1.0000
  Hf  Hf87      1.0  0.34258  0.61281  0.16471  1.0000
  Hf  Hf88      1.0  0.34305  0.61230  0.66228  1.0000
  Hf  Hf89      1.0  0.59186  0.11034  0.16999  1.0000
  Hf  Hf90      1.0  0.59309  0.11500  0.66321  1.0000
  Hf  Hf91      1.0  0.59375  0.60873  0.15841  1.0000
  Hf  Hf92      1.0  0.59201  0.62253  0.65773  1.0000
  Hf  Hf93      1.0  0.83979  0.11042  0.17386  1.0000
  Hf  Hf94      1.0  0.83516  0.11129  0.67181  1.0000
  Hf  Hf95      1.0  0.83970  0.61519  0.16901  1.0000
  Hf  Hf96      1.0  0.83767  0.61470  0.66414  1.0000
  F   F1        1.0  0.07424  0.12965  0.31291  1.0000
  F   F2        1.0  0.08157  0.11131  0.82092  1.0000
  F   F3        1.0  0.06630  0.61048  0.32150  1.0000
  F   F4        1.0  0.08018  0.63511  0.80471  1.0000
  F   F5        1.0  0.32985  0.13329  0.29614  1.0000
  F   F6        1.0  0.33805  0.14303  0.80017  1.0000
  F   F7        1.0  0.33129  0.62683  0.30345  1.0000
  F   F8        1.0  0.33483  0.64122  0.79126  1.0000
  F   F9        1.0  0.58203  0.12945  0.30346  1.0000
  F   F10       1.0  0.58370  0.12243  0.79872  1.0000
  F   F11       1.0  0.59323  0.64230  0.29092  1.0000
  F   F12       1.0  0.57375  0.63076  0.79631  1.0000
  F   F13       1.0  0.82376  0.12319  0.31391  1.0000
  F   F14       1.0  0.82927  0.10361  0.82035  1.0000
  F   F15       1.0  0.82785  0.63873  0.29409  1.0000
  F   F16       1.0  0.82073  0.62128  0.81119  1.0000
  F   F17       1.0  0.18767  0.34332  0.43332  1.0000
  F   F18       1.0  0.17151  0.33627  0.95682  1.0000
  F   F19       1.0  0.18860  0.84051  0.44031  1.0000
  F   F20       1.0  0.18739  0.83814  0.95598  1.0000
  F   F21       1.0  0.43709  0.34799  0.43242  1.0000
  F   F22       1.0  0.43630  0.33610  0.95128  1.0000
  F   F23       1.0  0.44101  0.84320  0.44116  1.0000
  F   F24       1.0  0.43840  0.85030  0.94432  1.0000
  F   F25       1.0  0.68753  0.33929  0.43937  1.0000
  F   F26       1.0  0.68247  0.35134  0.94934  1.0000
  F   F27       1.0  0.68969  0.84974  0.43702  1.0000
  F   F28       1.0  0.68578  0.83757  0.95064  1.0000
  F   F29       1.0  0.93820  0.35235  0.44234  1.0000
  F   F30       1.0  0.92102  0.33197  0.95972  1.0000
  F   F31       1.0  0.93237  0.84194  0.44784  1.0000
  F   F32       1.0  0.93112  0.83781  0.94672  1.0000
  F   F33       1.0  0.16440  0.36778  0.19467  1.0000
  F   F34       1.0  0.17813  0.39026  0.68028  1.0000
  F   F35       1.0  0.16729  0.86269  0.20981  1.0000
  F   F36       1.0  0.17276  0.86090  0.70391  1.0000
  F   F37       1.0  0.41469  0.34674  0.20665  1.0000
  F   F38       1.0  0.42471  0.37324  0.69377  1.0000
  F   F39       1.0  0.41634  0.85401  0.20277  1.0000
  F   F40       1.0  0.42517  0.89159  0.68186  1.0000
  F   F41       1.0  0.67510  0.39751  0.18382  1.0000
  F   F42       1.0  0.67352  0.38462  0.68932  1.0000
  F   F43       1.0  0.67254  0.86520  0.19968  1.0000
  F   F44       1.0  0.66724  0.86058  0.70029  1.0000
  F   F45       1.0  0.91855  0.36541  0.20624  1.0000
  F   F46       1.0  0.91883  0.37014  0.70392  1.0000
  F   F47       1.0  0.92750  0.89453  0.18245  1.0000
  F   F48       1.0  0.92325  0.86770  0.68396  1.0000
  F   F49       1.0  0.06375  0.16145  0.05518  1.0000
  F   F50       1.0  0.06453  0.17139  0.54692  1.0000
  F   F51       1.0  0.06202  0.65372  0.05943  1.0000
  F   F52       1.0  0.06398  0.66343  0.55120  1.0000
  F   F53       1.0  0.30801  0.15591  0.04878  1.0000
  F   F54       1.0  0.30715  0.14580  0.55780  1.0000
  F   F55       1.0  0.31541  0.66479  0.05847  1.0000
  F   F56       1.0  0.31239  0.64854  0.55501  1.0000
  F   F57       1.0  0.56248  0.15482  0.05241  1.0000
  F   F58       1.0  0.56756  0.16977  0.54488  1.0000
  F   F59       1.0  0.56608  0.65818  0.04745  1.0000
  F   F60       1.0  0.56713  0.65971  0.54456  1.0000
  F   F61       1.0  0.81356  0.15536  0.06032  1.0000
  F   F62       1.0  0.79976  0.16159  0.57090  1.0000
  F   F63       1.0  0.80766  0.64986  0.05858  1.0000
  F   F64       1.0  0.82499  0.68641  0.53332  1.0000
  F   F65       1.0  0.20239  0.18841  0.20760  1.0000
  F   F66       1.0  0.20257  0.18599  0.71219  1.0000
  F   F67       1.0  0.20620  0.71426  0.20048  1.0000
  F   F68       1.0  0.19471  0.69400  0.72990  1.0000
  F   F69       1.0  0.45560  0.19285  0.20111  1.0000
  F   F70       1.0  0.45492  0.20031  0.70759  1.0000
  F   F71       1.0  0.45711  0.70296  0.20127  1.0000
  F   F72       1.0  0.43971  0.72394  0.73358  1.0000
  F   F73       1.0  0.69693  0.20424  0.21371  1.0000
  F   F74       1.0  0.70255  0.21243  0.71119  1.0000
  F   F75       1.0  0.69626  0.69304  0.21418  1.0000
  F   F76       1.0  0.71345  0.70166  0.68941  1.0000
  F   F77       1.0  0.95005  0.20059  0.21235  1.0000
  F   F78       1.0  0.94605  0.19602  0.72966  1.0000
  F   F79       1.0  0.95114  0.70770  0.21053  1.0000
  F   F80       1.0  0.94866  0.69311  0.70481  1.0000
  F   F81       1.0  0.15192  0.11816  0.04040  1.0000
  F   F82       1.0  0.14869  0.08659  0.53705  1.0000
  F   F83       1.0  0.15060  0.58478  0.04031  1.0000
  F   F84       1.0  0.14930  0.59486  0.53523  1.0000
  F   F85       1.0  0.40009  0.11530  0.03504  1.0000
  F   F86       1.0  0.40072  0.10327  0.52949  1.0000
  F   F87       1.0  0.39835  0.58856  0.04970  1.0000
  F   F88       1.0  0.40264  0.60147  0.53135  1.0000
  F   F89       1.0  0.64544  0.08242  0.03610  1.0000
  F   F90       1.0  0.64943  0.08400  0.55196  1.0000
  F   F91       1.0  0.64229  0.59212  0.02644  1.0000
  F   F92       1.0  0.65548  0.60592  0.53749  1.0000
  F   F93       1.0  0.89622  0.07804  0.06231  1.0000
  F   F94       1.0  0.88954  0.09798  0.54341  1.0000
  F   F95       1.0  0.89955  0.61683  0.02698  1.0000
  F   F96       1.0  0.89964  0.56870  0.54973  1.0000
  F   F97       1.0  0.14045  0.21079  0.15059  1.0000
  F   F98       1.0  0.15791  0.20924  0.59047  1.0000
  F   F99       1.0  0.15225  0.68670  0.13992  1.0000
  F   F100      1.0  0.15161  0.69836  0.60719  1.0000
  F   F101      1.0  0.40272  0.20131  0.13319  1.0000
  F   F102      1.0  0.40273  0.20091  0.62004  1.0000
  F   F103      1.0  0.40193  0.70005  0.12220  1.0000
  F   F104      1.0  0.40402  0.69061  0.62463  1.0000
  F   F105      1.0  0.64953  0.20107  0.12251  1.0000
  F   F106      1.0  0.65547  0.19522  0.61742  1.0000
  F   F107      1.0  0.65258  0.69803  0.10593  1.0000
  F   F108      1.0  0.65344  0.71337  0.61584  1.0000
  F   F109      1.0  0.89583  0.19152  0.14043  1.0000
  F   F110      1.0  0.89198  0.21136  0.62230  1.0000
  F   F111      1.0  0.90196  0.70424  0.12942  1.0000
  F   F112      1.0  0.89569  0.68892  0.62635  1.0000
  F   F113      1.0  0.09489  0.31485  0.38288  1.0000
  F   F114      1.0  0.09898  0.30348  0.87803  1.0000
  F   F115      1.0  0.09563  0.79818  0.37866  1.0000
  F   F116      1.0  0.09455  0.80758  0.88240  1.0000
  F   F117      1.0  0.35102  0.28578  0.38096  1.0000
  F   F118      1.0  0.34809  0.30699  0.87457  1.0000
  F   F119      1.0  0.34796  0.79689  0.39707  1.0000
  F   F120      1.0  0.35080  0.79446  0.87623  1.0000
  F   F121      1.0  0.59853  0.30404  0.35462  1.0000
  F   F122      1.0  0.59896  0.30723  0.87179  1.0000
  F   F123      1.0  0.60024  0.80505  0.38116  1.0000
  F   F124      1.0  0.60437  0.81878  0.89900  1.0000
  F   F125      1.0  0.84394  0.31412  0.38540  1.0000
  F   F126      1.0  0.84990  0.29444  0.89618  1.0000
  F   F127      1.0  0.85472  0.80903  0.35092  1.0000
  F   F128      1.0  0.84955  0.80078  0.87624  1.0000
  F   F129      1.0  0.06740  0.25762  0.13659  1.0000
  F   F130      1.0  0.06774  0.24162  0.65364  1.0000
  F   F131      1.0  0.06659  0.74168  0.15388  1.0000
  F   F132      1.0  0.05878  0.75006  0.65930  1.0000
  F   F133      1.0  0.32208  0.25413  0.12346  1.0000
  F   F134      1.0  0.32173  0.24922  0.62113  1.0000
  F   F135      1.0  0.31137  0.74643  0.16508  1.0000
  F   F136      1.0  0.31217  0.74794  0.64855  1.0000
  F   F137      1.0  0.56025  0.23970  0.15051  1.0000
  F   F138      1.0  0.56205  0.25145  0.64511  1.0000
  F   F139      1.0  0.56680  0.76059  0.13725  1.0000
  F   F140      1.0  0.56334  0.76070  0.64410  1.0000
  F   F141      1.0  0.81449  0.25699  0.14817  1.0000
  F   F142      1.0  0.81479  0.25922  0.63998  1.0000
  F   F143      1.0  0.82787  0.75743  0.11386  1.0000
  F   F144      1.0  0.79930  0.73665  0.66857  1.0000
  F   F145      1.0  0.12333  0.39511  0.08291  1.0000
  F   F146      1.0  0.11811  0.36334  0.63145  1.0000
  F   F147      1.0  0.12382  0.87403  0.10991  1.0000
  F   F148      1.0  0.12359  0.86358  0.62294  1.0000
  F   F149      1.0  0.37774  0.38387  0.07827  1.0000
  F   F150      1.0  0.37463  0.37654  0.60647  1.0000
  F   F151      1.0  0.37436  0.89169  0.09452  1.0000
  F   F152      1.0  0.37760  0.84916  0.61602  1.0000
  F   F153      1.0  0.62222  0.36733  0.12513  1.0000
  F   F154      1.0  0.62575  0.37287  0.60366  1.0000
  F   F155      1.0  0.62896  0.85716  0.11962  1.0000
  F   F156      1.0  0.62361  0.89318  0.59715  1.0000
  F   F157      1.0  0.87312  0.37056  0.11562  1.0000
  F   F158      1.0  0.87748  0.37690  0.60303  1.0000
  F   F159      1.0  0.87231  0.87517  0.13048  1.0000
  F   F160      1.0  0.87061  0.87066  0.61043  1.0000
  F   F161      1.0  0.18470  0.24282  0.34758  1.0000
  F   F162      1.0  0.18269  0.24847  0.84567  1.0000
  F   F163      1.0  0.19196  0.74878  0.35562  1.0000
  F   F164      1.0  0.18790  0.74209  0.86533  1.0000
  F   F165      1.0  0.44010  0.24225  0.34604  1.0000
  F   F166      1.0  0.43934  0.25658  0.85092  1.0000
  F   F167      1.0  0.43629  0.75418  0.35686  1.0000
  F   F168      1.0  0.42946  0.73839  0.88747  1.0000
  F   F169      1.0  0.67667  0.25229  0.36361  1.0000
  F   F170      1.0  0.68162  0.25324  0.87533  1.0000
  F   F171      1.0  0.70201  0.75158  0.34134  1.0000
  F   F172      1.0  0.69005  0.75072  0.83967  1.0000
  F   F173      1.0  0.93529  0.25123  0.36374  1.0000
  F   F174      1.0  0.93557  0.24301  0.86319  1.0000
  F   F175      1.0  0.93418  0.75335  0.36229  1.0000
  F   F176      1.0  0.93892  0.75662  0.83470  1.0000
  F   F177      1.0  0.12208  0.13850  0.39187  1.0000
  F   F178      1.0  0.12826  0.12852  0.89609  1.0000
  F   F179      1.0  0.13107  0.63756  0.36841  1.0000
  F   F180      1.0  0.12191  0.62421  0.90661  1.0000
  F   F181      1.0  0.37600  0.11792  0.39446  1.0000
  F   F182      1.0  0.37530  0.13532  0.90300  1.0000
  F   F183      1.0  0.37999  0.63553  0.38863  1.0000
  F   F184      1.0  0.37187  0.61237  0.92056  1.0000
  F   F185      1.0  0.62787  0.12701  0.39549  1.0000
  F   F186      1.0  0.62933  0.13653  0.87750  1.0000
  F   F187      1.0  0.62951  0.63719  0.39834  1.0000
  F   F188      1.0  0.62732  0.64600  0.87052  1.0000
  F   F189      1.0  0.87346  0.14002  0.38887  1.0000
  F   F190      1.0  0.87323  0.10975  0.92270  1.0000
  F   F191      1.0  0.87632  0.63967  0.37328  1.0000
  F   F192      1.0  0.87291  0.63258  0.88918  1.0000
  F   F193      1.0  0.00162  0.36069  0.07311  1.0000
  F   F194      1.0  0.01057  0.35045  0.58327  1.0000
  F   F195      1.0  0.01416  0.86181  0.07412  1.0000
  F   F196      1.0  0.00788  0.88577  0.56150  1.0000
  F   F197      1.0  0.25531  0.35364  0.08973  1.0000
  F   F198      1.0  0.25852  0.35160  0.57772  1.0000
  F   F199      1.0  0.26350  0.86667  0.04684  1.0000
  F   F200      1.0  0.25521  0.85195  0.57816  1.0000
  F   F201      1.0  0.50589  0.35823  0.08083  1.0000
  F   F202      1.0  0.50429  0.35109  0.58319  1.0000
  F   F203      1.0  0.51222  0.86361  0.06195  1.0000
  F   F204      1.0  0.51398  0.86601  0.56326  1.0000
  F   F205      1.0  0.76192  0.37830  0.06588  1.0000
  F   F206      1.0  0.75962  0.36751  0.56817  1.0000
  F   F207      1.0  0.75733  0.83287  0.10320  1.0000
  F   F208      1.0  0.75771  0.87105  0.57275  1.0000
  F   F209      1.0  0.07277  0.49110  0.17574  1.0000
  F   F210      1.0  0.06775  0.50090  0.65551  1.0000
  F   F211      1.0  0.07453  0.98115  0.18113  1.0000
  F   F212      1.0  0.06979  0.99115  0.67261  1.0000
  F   F213      1.0  0.31274  0.48410  0.19250  1.0000
  F   F214      1.0  0.32589  0.48269  0.66641  1.0000
  F   F215      1.0  0.32164  0.99795  0.15574  1.0000
  F   F216      1.0  0.33205  0.98375  0.64793  1.0000
  F   F217      1.0  0.56954  0.48928  0.16591  1.0000
  F   F218      1.0  0.57117  0.47440  0.68393  1.0000
  F   F219      1.0  0.57403  0.98261  0.17320  1.0000
  F   F220      1.0  0.56639  0.99283  0.68180  1.0000
  F   F221      1.0  0.81866  0.48521  0.17646  1.0000
  F   F222      1.0  0.81798  0.49207  0.67332  1.0000
  F   F223      1.0  0.81263  0.99132  0.18720  1.0000
  F   F224      1.0  0.81122  0.98227  0.69822  1.0000
  F   F225      1.0  0.24565  0.13987  0.41350  1.0000
  F   F226      1.0  0.24130  0.14480  0.92244  1.0000
  F   F227      1.0  0.24034  0.62686  0.44333  1.0000
  F   F228      1.0  0.25018  0.63293  0.92245  1.0000
  F   F229      1.0  0.49563  0.13744  0.40716  1.0000
  F   F230      1.0  0.49027  0.12776  0.93388  1.0000
  F   F231      1.0  0.50146  0.63424  0.40615  1.0000
  F   F232      1.0  0.49189  0.63054  0.93133  1.0000
  F   F233      1.0  0.74183  0.13897  0.43222  1.0000
  F   F234      1.0  0.74512  0.13799  0.92831  1.0000
  F   F235      1.0  0.73963  0.64834  0.44516  1.0000
  F   F236      1.0  0.73787  0.63163  0.92984  1.0000
  F   F237      1.0  0.98670  0.12183  0.42750  1.0000
  F   F238      1.0  0.99775  0.11819  0.93097  1.0000
  F   F239      1.0  0.98744  0.64825  0.42895  1.0000
  F   F240      1.0  0.99355  0.64321  0.91512  1.0000
  F   F241      1.0  0.17484  0.00218  0.34921  1.0000
  F   F242      1.0  0.18966  0.00052  0.83098  1.0000
  F   F243      1.0  0.18139  0.51664  0.32216  1.0000
  F   F244      1.0  0.18027  0.51448  0.83207  1.0000
  F   F245      1.0  0.43341  0.02151  0.30797  1.0000
  F   F246      1.0  0.43163  0.01485  0.82752  1.0000
  F   F247      1.0  0.43235  0.51687  0.32131  1.0000
  F   F248      1.0  0.42312  0.51911  0.83487  1.0000
  F   F249      1.0  0.68257  0.02233  0.30712  1.0000
  F   F250      1.0  0.68588  0.01498  0.82952  1.0000
  F   F251      1.0  0.68017  0.51987  0.31843  1.0000
  F   F252      1.0  0.67771  0.51000  0.82772  1.0000
  F   F253      1.0  0.92567  0.02101  0.31959  1.0000
  F   F254      1.0  0.93303  0.00969  0.83365  1.0000
  F   F255      1.0  0.92707  0.51820  0.33604  1.0000
  F   F256      1.0  0.93001  0.51269  0.83353  1.0000
  F   F257      1.0  0.99409  0.23181  0.01271  1.0000
  F   F258      1.0  0.98907  0.23366  0.51258  1.0000
  F   F259      1.0  0.00406  0.76379  0.99765  1.0000
  F   F260      1.0  0.00307  0.76180  0.49638  1.0000
  F   F261      1.0  0.24766  0.26471  0.98637  1.0000
  F   F262      1.0  0.24835  0.25323  0.48954  1.0000
  F   F263      1.0  0.24629  0.75400  0.99273  1.0000
  F   F264      1.0  0.24591  0.73510  0.52087  1.0000
  F   F265      1.0  0.50460  0.24601  0.99508  1.0000
  F   F266      1.0  0.50127  0.24939  0.48950  1.0000
  F   F267      1.0  0.50647  0.74999  0.99469  1.0000
  F   F268      1.0  0.49660  0.72653  0.52057  1.0000
  F   F269      1.0  0.74847  0.25780  0.00157  1.0000
  F   F270      1.0  0.74878  0.25296  0.50188  1.0000
  F   F271      1.0  0.74825  0.74354  0.99834  1.0000
  F   F272      1.0  0.75926  0.76371  0.49185  1.0000
  F   F273      1.0  0.13483  0.00685  0.24515  1.0000
  F   F274      1.0  0.13153  0.00385  0.74574  1.0000
  F   F275      1.0  0.13416  0.50081  0.23820  1.0000
  F   F276      1.0  0.12503  0.50897  0.73972  1.0000
  F   F277      1.0  0.37403  0.99859  0.25012  1.0000
  F   F278      1.0  0.37229  0.99165  0.76249  1.0000
  F   F279      1.0  0.37929  0.49546  0.24185  1.0000
  F   F280      1.0  0.37244  0.50176  0.75781  1.0000
  F   F281      1.0  0.62989  0.99363  0.24174  1.0000
  F   F282      1.0  0.63037  0.00369  0.74998  1.0000
  F   F283      1.0  0.61354  0.49889  0.25966  1.0000
  F   F284      1.0  0.62685  0.52275  0.74061  1.0000
  F   F285      1.0  0.86696  0.99678  0.26594  1.0000
  F   F286      1.0  0.87916  0.99779  0.74258  1.0000
  F   F287      1.0  0.87616  0.50696  0.25518  1.0000
  F   F288      1.0  0.87575  0.50459  0.74625  1.0000
  F   F289      1.0  0.04667  0.03609  0.02723  1.0000
  F   F290      1.0  0.04054  0.02827  0.53183  1.0000
  F   F291      1.0  0.03577  0.53896  0.02528  1.0000
  F   F292      1.0  0.03732  0.53432  0.52369  1.0000
  F   F293      1.0  0.28759  0.02996  0.02347  1.0000
  F   F294      1.0  0.29100  0.02702  0.51843  1.0000
  F   F295      1.0  0.29336  0.52812  0.02765  1.0000
  F   F296      1.0  0.30564  0.52144  0.52375  1.0000
  F   F297      1.0  0.54019  0.03148  0.01843  1.0000
  F   F298      1.0  0.53983  0.03763  0.52794  1.0000
  F   F299      1.0  0.55368  0.52690  0.01238  1.0000
  F   F300      1.0  0.55505  0.51692  0.51526  1.0000
  F   F301      1.0  0.78573  0.02982  0.04131  1.0000
  F   F302      1.0  0.79675  0.03329  0.52616  1.0000
  F   F303      1.0  0.79039  0.52960  0.02800  1.0000
  F   F304      1.0  0.79576  0.53071  0.53225  1.0000
  F   F305      1.0  0.23068  0.40855  0.23461  1.0000
  F   F306      1.0  0.23320  0.40410  0.74578  1.0000
  F   F307      1.0  0.23833  0.90151  0.23181  1.0000
  F   F308      1.0  0.23907  0.90151  0.72287  1.0000
  F   F309      1.0  0.47883  0.42245  0.22011  1.0000
  F   F310      1.0  0.48857  0.41571  0.72619  1.0000
  F   F311      1.0  0.48520  0.91937  0.20855  1.0000
  F   F312      1.0  0.48929  0.88515  0.74949  1.0000
  F   F313      1.0  0.73335  0.41452  0.22977  1.0000
  F   F314      1.0  0.73893  0.41024  0.72747  1.0000
  F   F315      1.0  0.73035  0.90732  0.22772  1.0000
  F   F316      1.0  0.73796  0.91937  0.71991  1.0000
  F   F317      1.0  0.98396  0.41611  0.22727  1.0000
  F   F318      1.0  0.98221  0.41201  0.73508  1.0000
  F   F319      1.0  0.98682  0.90515  0.22961  1.0000
  F   F320      1.0  0.98449  0.91433  0.72989  1.0000
  F   F321      1.0  0.19767  0.46432  0.49254  1.0000
  F   F322      1.0  0.20579  0.46586  0.98211  1.0000
  F   F323      1.0  0.20626  0.95821  0.49453  1.0000
  F   F324      1.0  0.20284  0.98250  0.98751  1.0000
  F   F325      1.0  0.46543  0.46885  0.46368  1.0000
  F   F326      1.0  0.45914  0.46847  0.96763  1.0000
  F   F327      1.0  0.45586  0.97106  0.47041  1.0000
  F   F328      1.0  0.45346  0.97473  0.99681  1.0000
  F   F329      1.0  0.70518  0.47829  0.46481  1.0000
  F   F330      1.0  0.70746  0.47157  0.96893  1.0000
  F   F331      1.0  0.70150  0.97227  0.48796  1.0000
  F   F332      1.0  0.70696  0.96515  0.98946  1.0000
  F   F333      1.0  0.95923  0.46955  0.48350  1.0000
  F   F334      1.0  0.95349  0.47188  0.99553  1.0000
  F   F335      1.0  0.94491  0.97700  0.46957  1.0000
  F   F336      1.0  0.95544  0.96865  0.98615  1.0000
  F   F337      1.0  0.01741  0.09774  0.25137  1.0000
  F   F338      1.0  0.01793  0.09205  0.76063  1.0000
  F   F339      1.0  0.00983  0.58861  0.28212  1.0000
  F   F340      1.0  0.01291  0.57554  0.79226  1.0000
  F   F341      1.0  0.26297  0.07272  0.27518  1.0000
  F   F342      1.0  0.27486  0.07773  0.76722  1.0000
  F   F343      1.0  0.26297  0.58926  0.27967  1.0000
  F   F344      1.0  0.26774  0.58582  0.76727  1.0000
  F   F345      1.0  0.51955  0.07720  0.26659  1.0000
  F   F346      1.0  0.51117  0.09375  0.78124  1.0000
  F   F347      1.0  0.52134  0.60331  0.26098  1.0000
  F   F348      1.0  0.50961  0.60740  0.75413  1.0000
  F   F349      1.0  0.76175  0.10017  0.26976  1.0000
  F   F350      1.0  0.76372  0.10652  0.76765  1.0000
  F   F351      1.0  0.76216  0.59789  0.26769  1.0000
  F   F352      1.0  0.76635  0.56926  0.77021  1.0000
  F   F353      1.0  0.10383  0.40691  0.46917  1.0000
  F   F354      1.0  0.09039  0.41890  0.96109  1.0000
  F   F355      1.0  0.10393  0.90106  0.46803  1.0000
  F   F356      1.0  0.10445  0.90504  0.96364  1.0000
  F   F357      1.0  0.35487  0.39032  0.45954  1.0000
  F   F358      1.0  0.34874  0.41557  0.95773  1.0000
  F   F359      1.0  0.34919  0.91089  0.47507  1.0000
  F   F360      1.0  0.35130  0.89073  0.96626  1.0000
  F   F361      1.0  0.59873  0.37944  0.45665  1.0000
  F   F362      1.0  0.59650  0.39228  0.97382  1.0000
  F   F363      1.0  0.60916  0.89924  0.46262  1.0000
  F   F364      1.0  0.60478  0.93032  0.96551  1.0000
  F   F365      1.0  0.85002  0.42157  0.46568  1.0000
  F   F366      1.0  0.85035  0.42867  0.96138  1.0000
  F   F367      1.0  0.85072  0.88845  0.47162  1.0000
  F   F368      1.0  0.85263  0.92337  0.96574  1.0000
  F   F369      1.0  0.05047  0.30701  0.28604  1.0000
  F   F370      1.0  0.04347  0.29539  0.79079  1.0000
  F   F371      1.0  0.04627  0.79762  0.28759  1.0000
  F   F372      1.0  0.04419  0.81201  0.80304  1.0000
  F   F373      1.0  0.29241  0.29710  0.28013  1.0000
  F   F374      1.0  0.29860  0.29518  0.77828  1.0000
  F   F375      1.0  0.29359  0.80859  0.30881  1.0000
  F   F376      1.0  0.29683  0.80070  0.78494  1.0000
  F   F377      1.0  0.53369  0.30264  0.29124  1.0000
  F   F378      1.0  0.55003  0.28717  0.78339  1.0000
  F   F379      1.0  0.54652  0.80046  0.28837  1.0000
  F   F380      1.0  0.55993  0.79611  0.79205  1.0000
  F   F381      1.0  0.78855  0.29246  0.29530  1.0000
  F   F382      1.0  0.80918  0.29296  0.78727  1.0000
  F   F383      1.0  0.79294  0.80863  0.28246  1.0000
  F   F384      1.0  0.79747  0.79507  0.79638  1.0000
