data_image0
_chemical_formula_structural       Hf96F384
_chemical_formula_sum              "Hf96 F384"
_cell_length_a       31.0594
_cell_length_b       15.5326
_cell_length_c       15.5206
_cell_angle_alpha    63.342
_cell_angle_beta     63.342
_cell_angle_gamma    80.1625

_space_group_name_H-M_alt    "P 1"
_space_group_IT_number       1

loop_
  _space_group_symop_operation_xyz
  'x, y, z'

loop_
  _atom_site_type_symbol
  _atom_site_label
  _atom_site_symmetry_multiplicity
  _atom_site_fract_x
  _atom_site_fract_y
  _atom_site_fract_z
  _atom_site_occupancy
  Hf  Hf1       1.0  0.19541  0.10227  0.37733  1.0000
  Hf  Hf2       1.0  0.19593  0.11035  0.87574  1.0000
  Hf  Hf3       1.0  0.19700  0.61113  0.37240  1.0000
  Hf  Hf4       1.0  0.19718  0.60260  0.88261  1.0000
  Hf  Hf5       1.0  0.44646  0.10958  0.37563  1.0000
  Hf  Hf6       1.0  0.45165  0.09639  0.87585  1.0000
  Hf  Hf7       1.0  0.44418  0.60132  0.38239  1.0000
  Hf  Hf8       1.0  0.44129  0.60226  0.88612  1.0000
  Hf  Hf9       1.0  0.69809  0.09944  0.37692  1.0000
  Hf  Hf10      1.0  0.69413  0.11216  0.87645  1.0000
  Hf  Hf11      1.0  0.69776  0.60606  0.37297  1.0000
  Hf  Hf12      1.0  0.69953  0.61083  0.86554  1.0000
  Hf  Hf13      1.0  0.94878  0.11453  0.36659  1.0000
  Hf  Hf14      1.0  0.94786  0.10755  0.87606  1.0000
  Hf  Hf15      1.0  0.94878  0.60220  0.37787  1.0000
  Hf  Hf16      1.0  0.94417  0.60479  0.87485  1.0000
  Hf  Hf17      1.0  0.05338  0.39798  0.11796  1.0000
  Hf  Hf18      1.0  0.05490  0.38964  0.63120  1.0000
  Hf  Hf19      1.0  0.05978  0.88203  0.11700  1.0000
  Hf  Hf20      1.0  0.05523  0.88413  0.63588  1.0000
  Hf  Hf21      1.0  0.29532  0.38767  0.13925  1.0000
  Hf  Hf22      1.0  0.30002  0.39076  0.63730  1.0000
  Hf  Hf23      1.0  0.30508  0.89340  0.11521  1.0000
  Hf  Hf24      1.0  0.29987  0.89232  0.63331  1.0000
  Hf  Hf25      1.0  0.54715  0.39577  0.13827  1.0000
  Hf  Hf26      1.0  0.55589  0.38286  0.63535  1.0000
  Hf  Hf27      1.0  0.55105  0.89035  0.13717  1.0000
  Hf  Hf28      1.0  0.55257  0.89796  0.62286  1.0000
  Hf  Hf29      1.0  0.80954  0.40268  0.10471  1.0000
  Hf  Hf30      1.0  0.80340  0.41214  0.60695  1.0000
  Hf  Hf31      1.0  0.80470  0.89068  0.12038  1.0000
  Hf  Hf32      1.0  0.80451  0.90296  0.61432  1.0000
  Hf  Hf33      1.0  0.05655  0.17999  0.41854  1.0000
  Hf  Hf34      1.0  0.05502  0.17781  0.92689  1.0000
  Hf  Hf35      1.0  0.05875  0.68630  0.40485  1.0000
  Hf  Hf36      1.0  0.05262  0.68065  0.92140  1.0000
  Hf  Hf37      1.0  0.30089  0.18297  0.41700  1.0000
  Hf  Hf38      1.0  0.30729  0.18041  0.91779  1.0000
  Hf  Hf39      1.0  0.30736  0.68890  0.40925  1.0000
  Hf  Hf40      1.0  0.30713  0.67705  0.91645  1.0000
  Hf  Hf41      1.0  0.55568  0.18965  0.40820  1.0000
  Hf  Hf42      1.0  0.55580  0.17616  0.92008  1.0000
  Hf  Hf43      1.0  0.55291  0.67647  0.42193  1.0000
  Hf  Hf44      1.0  0.55621  0.68700  0.91474  1.0000
  Hf  Hf45      1.0  0.80889  0.19273  0.41118  1.0000
  Hf  Hf46      1.0  0.80548  0.18546  0.91925  1.0000
  Hf  Hf47      1.0  0.80941  0.69274  0.39868  1.0000
  Hf  Hf48      1.0  0.80612  0.68538  0.91241  1.0000
  Hf  Hf49      1.0  0.15455  0.37813  0.34783  1.0000
  Hf  Hf50      1.0  0.15756  0.38534  0.83861  1.0000
  Hf  Hf51      1.0  0.15977  0.88471  0.33714  1.0000
  Hf  Hf52      1.0  0.15630  0.87279  0.83826  1.0000
  Hf  Hf53      1.0  0.40663  0.38427  0.33337  1.0000
  Hf  Hf54      1.0  0.40776  0.38207  0.83645  1.0000
  Hf  Hf55      1.0  0.40924  0.88862  0.33196  1.0000
  Hf  Hf56      1.0  0.40926  0.88561  0.83554  1.0000
  Hf  Hf57      1.0  0.66247  0.38905  0.33063  1.0000
  Hf  Hf58      1.0  0.65733  0.38982  0.82792  1.0000
  Hf  Hf59      1.0  0.65973  0.89149  0.32728  1.0000
  Hf  Hf60      1.0  0.66176  0.89395  0.83369  1.0000
  Hf  Hf61      1.0  0.91236  0.38903  0.32107  1.0000
  Hf  Hf62      1.0  0.90507  0.38664  0.82829  1.0000
  Hf  Hf63      1.0  0.91072  0.88884  0.32987  1.0000
  Hf  Hf64      1.0  0.90843  0.88869  0.83322  1.0000
  Hf  Hf65      1.0  0.19303  0.31490  0.08983  1.0000
  Hf  Hf66      1.0  0.19361  0.32511  0.58270  1.0000
  Hf  Hf67      1.0  0.19608  0.82609  0.07409  1.0000
  Hf  Hf68      1.0  0.19434  0.80729  0.58979  1.0000
  Hf  Hf69      1.0  0.44014  0.31577  0.08978  1.0000
  Hf  Hf70      1.0  0.44259  0.31224  0.58412  1.0000
  Hf  Hf71      1.0  0.44384  0.81480  0.08166  1.0000
  Hf  Hf72      1.0  0.44426  0.82530  0.57745  1.0000
  Hf  Hf73      1.0  0.69083  0.31620  0.08957  1.0000
  Hf  Hf74      1.0  0.69258  0.30775  0.58565  1.0000
  Hf  Hf75      1.0  0.69608  0.82037  0.08227  1.0000
  Hf  Hf76      1.0  0.69473  0.82141  0.58159  1.0000
  Hf  Hf77      1.0  0.94318  0.31665  0.08017  1.0000
  Hf  Hf78      1.0  0.94427  0.32255  0.58340  1.0000
  Hf  Hf79      1.0  0.94359  0.82009  0.08220  1.0000
  Hf  Hf80      1.0  0.95064  0.82624  0.57425  1.0000
  Hf  Hf81      1.0  0.09242  0.11000  0.17094  1.0000
  Hf  Hf82      1.0  0.09030  0.10808  0.67855  1.0000
  Hf  Hf83      1.0  0.09439  0.60418  0.16151  1.0000
  Hf  Hf84      1.0  0.09004  0.61501  0.66237  1.0000
  Hf  Hf85      1.0  0.34063  0.10360  0.17927  1.0000
  Hf  Hf86      1.0  0.33880  0.10385  0.67095  1.0000
  Hf  Hf87      1.0  0.34201  0.61790  0.16449  1.0000
  Hf  Hf88      1.0  0.34150  0.61167  0.66402  1.0000
  Hf  Hf89      1.0  0.58903  0.11721  0.16569  1.0000
  Hf  Hf90      1.0  0.59406  0.10418  0.66377  1.0000
  Hf  Hf91      1.0  0.59113  0.61413  0.16751  1.0000
  Hf  Hf92      1.0  0.58939  0.61388  0.66733  1.0000
  Hf  Hf93      1.0  0.84419  0.11493  0.16512  1.0000
  Hf  Hf94      1.0  0.83731  0.12073  0.67273  1.0000
  Hf  Hf95      1.0  0.84506  0.60928  0.15770  1.0000
  Hf  Hf96      1.0  0.84174  0.62335  0.66067  1.0000
  F   F1        1.0  0.07485  0.13571  0.30268  1.0000
  F   F2        1.0  0.08775  0.12533  0.80297  1.0000
  F   F3        1.0  0.08208  0.62907  0.29917  1.0000
  F   F4        1.0  0.08237  0.63991  0.78994  1.0000
  F   F5        1.0  0.32759  0.11809  0.31612  1.0000
  F   F6        1.0  0.32106  0.11104  0.82559  1.0000
  F   F7        1.0  0.33410  0.63849  0.29708  1.0000
  F   F8        1.0  0.33226  0.62376  0.79840  1.0000
  F   F9        1.0  0.58228  0.13281  0.30111  1.0000
  F   F10       1.0  0.57447  0.12221  0.80338  1.0000
  F   F11       1.0  0.57746  0.63908  0.29985  1.0000
  F   F12       1.0  0.57219  0.61793  0.81184  1.0000
  F   F13       1.0  0.83490  0.14826  0.29023  1.0000
  F   F14       1.0  0.82698  0.13912  0.80464  1.0000
  F   F15       1.0  0.83798  0.65441  0.27889  1.0000
  F   F16       1.0  0.83224  0.64551  0.78888  1.0000
  F   F17       1.0  0.18669  0.35223  0.44543  1.0000
  F   F18       1.0  0.18482  0.32913  0.94918  1.0000
  F   F19       1.0  0.18997  0.83536  0.43976  1.0000
  F   F20       1.0  0.19122  0.83937  0.94185  1.0000
  F   F21       1.0  0.43277  0.32926  0.45381  1.0000
  F   F22       1.0  0.43087  0.35205  0.94893  1.0000
  F   F23       1.0  0.43653  0.84684  0.44170  1.0000
  F   F24       1.0  0.44036  0.84454  0.93999  1.0000
  F   F25       1.0  0.69605  0.33910  0.44333  1.0000
  F   F26       1.0  0.67614  0.32729  0.95560  1.0000
  F   F27       1.0  0.67770  0.84854  0.44383  1.0000
  F   F28       1.0  0.69364  0.85416  0.93361  1.0000
  F   F29       1.0  0.92750  0.33671  0.45621  1.0000
  F   F30       1.0  0.92490  0.33482  0.95765  1.0000
  F   F31       1.0  0.94236  0.86293  0.43270  1.0000
  F   F32       1.0  0.94447  0.85132  0.92424  1.0000
  F   F33       1.0  0.17018  0.36459  0.19941  1.0000
  F   F34       1.0  0.16585  0.36379  0.71262  1.0000
  F   F35       1.0  0.16920  0.88481  0.19002  1.0000
  F   F36       1.0  0.16903  0.86383  0.70008  1.0000
  F   F37       1.0  0.42148  0.37049  0.19988  1.0000
  F   F38       1.0  0.42116  0.36317  0.69845  1.0000
  F   F39       1.0  0.41488  0.86243  0.20428  1.0000
  F   F40       1.0  0.42485  0.87235  0.69971  1.0000
  F   F41       1.0  0.67307  0.38146  0.19313  1.0000
  F   F42       1.0  0.67076  0.36764  0.69731  1.0000
  F   F43       1.0  0.67160  0.88462  0.19096  1.0000
  F   F44       1.0  0.66896  0.87246  0.69841  1.0000
  F   F45       1.0  0.91514  0.37162  0.19653  1.0000
  F   F46       1.0  0.91724  0.37398  0.69636  1.0000
  F   F47       1.0  0.93124  0.88965  0.18228  1.0000
  F   F48       1.0  0.92201  0.86424  0.70122  1.0000
  F   F49       1.0  0.04828  0.13915  0.07511  1.0000
  F   F50       1.0  0.05470  0.15770  0.58008  1.0000
  F   F51       1.0  0.07636  0.67063  0.03776  1.0000
  F   F52       1.0  0.05345  0.65382  0.55986  1.0000
  F   F53       1.0  0.31728  0.16623  0.06357  1.0000
  F   F54       1.0  0.31523  0.15491  0.55225  1.0000
  F   F55       1.0  0.31435  0.66115  0.05167  1.0000
  F   F56       1.0  0.31281  0.65831  0.55638  1.0000
  F   F57       1.0  0.56485  0.16063  0.05065  1.0000
  F   F58       1.0  0.57384  0.16390  0.53519  1.0000
  F   F59       1.0  0.56321  0.65190  0.06195  1.0000
  F   F60       1.0  0.56567  0.64989  0.55017  1.0000
  F   F61       1.0  0.81082  0.14447  0.06241  1.0000
  F   F62       1.0  0.81112  0.16998  0.55570  1.0000
  F   F63       1.0  0.82260  0.66140  0.03717  1.0000
  F   F64       1.0  0.81605  0.67398  0.53875  1.0000
  F   F65       1.0  0.20190  0.19899  0.22088  1.0000
  F   F66       1.0  0.20109  0.20097  0.71399  1.0000
  F   F67       1.0  0.19944  0.71326  0.20436  1.0000
  F   F68       1.0  0.20089  0.70155  0.72310  1.0000
  F   F69       1.0  0.45620  0.20048  0.21048  1.0000
  F   F70       1.0  0.45065  0.19373  0.71903  1.0000
  F   F71       1.0  0.45336  0.70192  0.22075  1.0000
  F   F72       1.0  0.43521  0.70279  0.71284  1.0000
  F   F73       1.0  0.70260  0.20686  0.21794  1.0000
  F   F74       1.0  0.69435  0.18941  0.72511  1.0000
  F   F75       1.0  0.71035  0.70631  0.21134  1.0000
  F   F76       1.0  0.70403  0.70404  0.71181  1.0000
  F   F77       1.0  0.96554  0.19838  0.20715  1.0000
  F   F78       1.0  0.95673  0.19942  0.71808  1.0000
  F   F79       1.0  0.94382  0.70680  0.21136  1.0000
  F   F80       1.0  0.95715  0.70195  0.70463  1.0000
  F   F81       1.0  0.15690  0.09611  0.05625  1.0000
  F   F82       1.0  0.14352  0.09734  0.54368  1.0000
  F   F83       1.0  0.15620  0.57828  0.04383  1.0000
  F   F84       1.0  0.14107  0.59571  0.52619  1.0000
  F   F85       1.0  0.40246  0.09211  0.04195  1.0000
  F   F86       1.0  0.39913  0.10855  0.53504  1.0000
  F   F87       1.0  0.39677  0.59993  0.03852  1.0000
  F   F88       1.0  0.39887  0.57934  0.53812  1.0000
  F   F89       1.0  0.64687  0.10009  0.03418  1.0000
  F   F90       1.0  0.65438  0.07486  0.54514  1.0000
  F   F91       1.0  0.65040  0.60910  0.01858  1.0000
  F   F92       1.0  0.65229  0.60583  0.54267  1.0000
  F   F93       1.0  0.90236  0.10017  0.04670  1.0000
  F   F94       1.0  0.89438  0.10578  0.54161  1.0000
  F   F95       1.0  0.89693  0.57284  0.04190  1.0000
  F   F96       1.0  0.90382  0.59920  0.54299  1.0000
  F   F97       1.0  0.14798  0.21014  0.13508  1.0000
  F   F98       1.0  0.14788  0.21190  0.62091  1.0000
  F   F99       1.0  0.15170  0.68516  0.11490  1.0000
  F   F100      1.0  0.16456  0.68802  0.60121  1.0000
  F   F101      1.0  0.39680  0.20346  0.13342  1.0000
  F   F102      1.0  0.39833  0.19308  0.64262  1.0000
  F   F103      1.0  0.40192  0.70186  0.13098  1.0000
  F   F104      1.0  0.39877  0.70631  0.59832  1.0000
  F   F105      1.0  0.65033  0.19853  0.13180  1.0000
  F   F106      1.0  0.65570  0.19657  0.60838  1.0000
  F   F107      1.0  0.65234  0.70074  0.11993  1.0000
  F   F108      1.0  0.64605  0.71943  0.62510  1.0000
  F   F109      1.0  0.90884  0.18793  0.13118  1.0000
  F   F110      1.0  0.89873  0.18849  0.63734  1.0000
  F   F111      1.0  0.90565  0.70442  0.09198  1.0000
  F   F112      1.0  0.90677  0.71156  0.60993  1.0000
  F   F113      1.0  0.09261  0.30417  0.38348  1.0000
  F   F114      1.0  0.09725  0.28641  0.89112  1.0000
  F   F115      1.0  0.10252  0.79930  0.39505  1.0000
  F   F116      1.0  0.09329  0.79737  0.86803  1.0000
  F   F117      1.0  0.35148  0.28778  0.37661  1.0000
  F   F118      1.0  0.35207  0.29093  0.87084  1.0000
  F   F119      1.0  0.34012  0.82012  0.37694  1.0000
  F   F120      1.0  0.34894  0.81155  0.87801  1.0000
  F   F121      1.0  0.60246  0.30570  0.35122  1.0000
  F   F122      1.0  0.60033  0.28545  0.87569  1.0000
  F   F123      1.0  0.59586  0.79386  0.37856  1.0000
  F   F124      1.0  0.59706  0.81111  0.86576  1.0000
  F   F125      1.0  0.85008  0.31668  0.38055  1.0000
  F   F126      1.0  0.84662  0.30658  0.89500  1.0000
  F   F127      1.0  0.85637  0.80744  0.35608  1.0000
  F   F128      1.0  0.84553  0.81466  0.88022  1.0000
  F   F129      1.0  0.06508  0.25706  0.13491  1.0000
  F   F130      1.0  0.05961  0.24327  0.66025  1.0000
  F   F131      1.0  0.05232  0.73578  0.17032  1.0000
  F   F132      1.0  0.06394  0.75329  0.62726  1.0000
  F   F133      1.0  0.31211  0.24109  0.17192  1.0000
  F   F134      1.0  0.31444  0.24686  0.65993  1.0000
  F   F135      1.0  0.31959  0.75155  0.13823  1.0000
  F   F136      1.0  0.30734  0.74935  0.65529  1.0000
  F   F137      1.0  0.55925  0.25629  0.14142  1.0000
  F   F138      1.0  0.57155  0.24767  0.63538  1.0000
  F   F139      1.0  0.56009  0.75487  0.14733  1.0000
  F   F140      1.0  0.56439  0.75172  0.63252  1.0000
  F   F141      1.0  0.81808  0.26351  0.12626  1.0000
  F   F142      1.0  0.81031  0.25426  0.65766  1.0000
  F   F143      1.0  0.80989  0.74683  0.14623  1.0000
  F   F144      1.0  0.81516  0.76349  0.62322  1.0000
  F   F145      1.0  0.12892  0.39191  0.09017  1.0000
  F   F146      1.0  0.12303  0.37323  0.61350  1.0000
  F   F147      1.0  0.12414  0.83261  0.13043  1.0000
  F   F148      1.0  0.12448  0.84043  0.63027  1.0000
  F   F149      1.0  0.36927  0.38031  0.11335  1.0000
  F   F150      1.0  0.37179  0.37292  0.59902  1.0000
  F   F151      1.0  0.37837  0.89125  0.09026  1.0000
  F   F152      1.0  0.37432  0.86897  0.62029  1.0000
  F   F153      1.0  0.62003  0.36556  0.12353  1.0000
  F   F154      1.0  0.62549  0.36670  0.60715  1.0000
  F   F155      1.0  0.62487  0.86505  0.11068  1.0000
  F   F156      1.0  0.61982  0.88165  0.60510  1.0000
  F   F157      1.0  0.87288  0.36490  0.12042  1.0000
  F   F158      1.0  0.87451  0.36892  0.61257  1.0000
  F   F159      1.0  0.87551  0.85895  0.11958  1.0000
  F   F160      1.0  0.87528  0.87098  0.59560  1.0000
  F   F161      1.0  0.17649  0.23186  0.38185  1.0000
  F   F162      1.0  0.18562  0.24050  0.85486  1.0000
  F   F163      1.0  0.18314  0.74154  0.36057  1.0000
  F   F164      1.0  0.18232  0.74060  0.87597  1.0000
  F   F165      1.0  0.44036  0.25412  0.34836  1.0000
  F   F166      1.0  0.44110  0.24263  0.85934  1.0000
  F   F167      1.0  0.43293  0.73995  0.36686  1.0000
  F   F168      1.0  0.43374  0.73817  0.86608  1.0000
  F   F169      1.0  0.68191  0.23823  0.37829  1.0000
  F   F170      1.0  0.68832  0.24892  0.84525  1.0000
  F   F171      1.0  0.68372  0.75242  0.36068  1.0000
  F   F172      1.0  0.69050  0.75697  0.85109  1.0000
  F   F173      1.0  0.94144  0.25330  0.34743  1.0000
  F   F174      1.0  0.93397  0.25424  0.85922  1.0000
  F   F175      1.0  0.94397  0.74293  0.35652  1.0000
  F   F176      1.0  0.93777  0.74473  0.84354  1.0000
  F   F177      1.0  0.12654  0.14125  0.36595  1.0000
  F   F178      1.0  0.12251  0.11945  0.92418  1.0000
  F   F179      1.0  0.12457  0.63351  0.38378  1.0000
  F   F180      1.0  0.12628  0.63700  0.88916  1.0000
  F   F181      1.0  0.37940  0.13870  0.38199  1.0000
  F   F182      1.0  0.37740  0.12664  0.89380  1.0000
  F   F183      1.0  0.37457  0.63977  0.38859  1.0000
  F   F184      1.0  0.37364  0.61822  0.90357  1.0000
  F   F185      1.0  0.62550  0.12471  0.38912  1.0000
  F   F186      1.0  0.62074  0.10485  0.90119  1.0000
  F   F187      1.0  0.62509  0.60603  0.40432  1.0000
  F   F188      1.0  0.62672  0.65309  0.87068  1.0000
  F   F189      1.0  0.88086  0.15047  0.38206  1.0000
  F   F190      1.0  0.87825  0.13116  0.89585  1.0000
  F   F191      1.0  0.87512  0.62889  0.38946  1.0000
  F   F192      1.0  0.87578  0.62807  0.88525  1.0000
  F   F193      1.0  0.00687  0.36330  0.07799  1.0000
  F   F194      1.0  0.00543  0.35435  0.57548  1.0000
  F   F195      1.0  0.01020  0.85040  0.07776  1.0000
  F   F196      1.0  0.00766  0.87910  0.57383  1.0000
  F   F197      1.0  0.25499  0.33983  0.09146  1.0000
  F   F198      1.0  0.24993  0.36146  0.60159  1.0000
  F   F199      1.0  0.25582  0.86995  0.07521  1.0000
  F   F200      1.0  0.25973  0.86039  0.57251  1.0000
  F   F201      1.0  0.49983  0.37035  0.08404  1.0000
  F   F202      1.0  0.50671  0.35027  0.58017  1.0000
  F   F203      1.0  0.50676  0.85759  0.07998  1.0000
  F   F204      1.0  0.50724  0.85799  0.57694  1.0000
  F   F205      1.0  0.75974  0.37514  0.05884  1.0000
  F   F206      1.0  0.75373  0.36220  0.57395  1.0000
  F   F207      1.0  0.75892  0.86677  0.05155  1.0000
  F   F208      1.0  0.75596  0.87116  0.56521  1.0000
  F   F209      1.0  0.06530  0.49745  0.16118  1.0000
  F   F210      1.0  0.06759  0.48712  0.68192  1.0000
  F   F211      1.0  0.08468  0.97884  0.13852  1.0000
  F   F212      1.0  0.06843  0.97380  0.68963  1.0000
  F   F213      1.0  0.30757  0.48473  0.17782  1.0000
  F   F214      1.0  0.32269  0.49028  0.66658  1.0000
  F   F215      1.0  0.31102  0.97826  0.20186  1.0000
  F   F216      1.0  0.31674  0.98007  0.68339  1.0000
  F   F217      1.0  0.56666  0.47948  0.19399  1.0000
  F   F218      1.0  0.57513  0.48492  0.66954  1.0000
  F   F219      1.0  0.56189  0.99745  0.17641  1.0000
  F   F220      1.0  0.57076  0.97895  0.68237  1.0000
  F   F221      1.0  0.82273  0.47879  0.17307  1.0000
  F   F222      1.0  0.82295  0.50622  0.64961  1.0000
  F   F223      1.0  0.82535  0.98265  0.17632  1.0000
  F   F224      1.0  0.81894  0.99591  0.66240  1.0000
  F   F225      1.0  0.23672  0.15090  0.42978  1.0000
  F   F226      1.0  0.24184  0.14517  0.91611  1.0000
  F   F227      1.0  0.24848  0.62825  0.42465  1.0000
  F   F228      1.0  0.24526  0.64312  0.92023  1.0000
  F   F229      1.0  0.49058  0.14061  0.42078  1.0000
  F   F230      1.0  0.48975  0.13396  0.93561  1.0000
  F   F231      1.0  0.49052  0.61608  0.43761  1.0000
  F   F232      1.0  0.48906  0.62935  0.93646  1.0000
  F   F233      1.0  0.74166  0.13263  0.44021  1.0000
  F   F234      1.0  0.73895  0.14356  0.93251  1.0000
  F   F235      1.0  0.74296  0.64919  0.40661  1.0000
  F   F236      1.0  0.74802  0.64442  0.91205  1.0000
  F   F237      1.0  0.99478  0.12432  0.42842  1.0000
  F   F238      1.0  0.99168  0.13756  0.93137  1.0000
  F   F239      1.0  0.99477  0.64038  0.43506  1.0000
  F   F240      1.0  0.98968  0.63053  0.92519  1.0000
  F   F241      1.0  0.18952  0.00606  0.31548  1.0000
  F   F242      1.0  0.17613  0.00265  0.84145  1.0000
  F   F243      1.0  0.17838  0.51532  0.33146  1.0000
  F   F244      1.0  0.17920  0.51101  0.83383  1.0000
  F   F245      1.0  0.42733  0.00880  0.34525  1.0000
  F   F246      1.0  0.43238  0.01879  0.81118  1.0000
  F   F247      1.0  0.41930  0.51258  0.34644  1.0000
  F   F248      1.0  0.42800  0.51670  0.82416  1.0000
  F   F249      1.0  0.68305  0.01638  0.30630  1.0000
  F   F250      1.0  0.68338  0.01941  0.81812  1.0000
  F   F251      1.0  0.68717  0.51552  0.30760  1.0000
  F   F252      1.0  0.67464  0.52071  0.83217  1.0000
  F   F253      1.0  0.94084  0.02301  0.30308  1.0000
  F   F254      1.0  0.92460  0.01717  0.83976  1.0000
  F   F255      1.0  0.93020  0.51401  0.33226  1.0000
  F   F256      1.0  0.93118  0.51411  0.81910  1.0000
  F   F257      1.0  0.99631  0.26556  0.98883  1.0000
  F   F258      1.0  0.99815  0.25277  0.49229  1.0000
  F   F259      1.0  0.00190  0.75158  0.00281  1.0000
  F   F260      1.0  0.00338  0.77581  0.47887  1.0000
  F   F261      1.0  0.25582  0.24739  0.99715  1.0000
  F   F262      1.0  0.25300  0.25370  0.51205  1.0000
  F   F263      1.0  0.25309  0.76125  0.98793  1.0000
  F   F264      1.0  0.25239  0.74562  0.50509  1.0000
  F   F265      1.0  0.50141  0.25410  0.99306  1.0000
  F   F266      1.0  0.49941  0.24145  0.50636  1.0000
  F   F267      1.0  0.50207  0.75288  0.00190  1.0000
  F   F268      1.0  0.49597  0.74117  0.50960  1.0000
  F   F269      1.0  0.74669  0.25465  0.00375  1.0000
  F   F270      1.0  0.75101  0.24849  0.50168  1.0000
  F   F271      1.0  0.75564  0.75351  0.99459  1.0000
  F   F272      1.0  0.74613  0.74515  0.50248  1.0000
  F   F273      1.0  0.11849  0.99810  0.26311  1.0000
  F   F274      1.0  0.12062  0.98476  0.76127  1.0000
  F   F275      1.0  0.12845  0.49237  0.26057  1.0000
  F   F276      1.0  0.11857  0.48699  0.76384  1.0000
  F   F277      1.0  0.38106  0.00003  0.24324  1.0000
  F   F278      1.0  0.37660  0.00638  0.74010  1.0000
  F   F279      1.0  0.37171  0.49197  0.24685  1.0000
  F   F280      1.0  0.38378  0.50754  0.73162  1.0000
  F   F281      1.0  0.61704  0.99646  0.25277  1.0000
  F   F282      1.0  0.63020  0.00838  0.75188  1.0000
  F   F283      1.0  0.62700  0.50295  0.24558  1.0000
  F   F284      1.0  0.63234  0.50455  0.72869  1.0000
  F   F285      1.0  0.87767  0.00078  0.24797  1.0000
  F   F286      1.0  0.86603  0.00151  0.76576  1.0000
  F   F287      1.0  0.87667  0.50904  0.25919  1.0000
  F   F288      1.0  0.86591  0.49978  0.75847  1.0000
  F   F289      1.0  0.05101  0.01365  0.00225  1.0000
  F   F290      1.0  0.05300  0.03872  0.52538  1.0000
  F   F291      1.0  0.04238  0.53507  0.02271  1.0000
  F   F292      1.0  0.04662  0.52056  0.52073  1.0000
  F   F293      1.0  0.28994  0.03286  0.03527  1.0000
  F   F294      1.0  0.28601  0.02958  0.53604  1.0000
  F   F295      1.0  0.29768  0.53054  0.01016  1.0000
  F   F296      1.0  0.29625  0.52264  0.52864  1.0000
  F   F297      1.0  0.53904  0.01284  0.03731  1.0000
  F   F298      1.0  0.54054  0.02747  0.52826  1.0000
  F   F299      1.0  0.55587  0.52890  0.01848  1.0000
  F   F300      1.0  0.54238  0.51484  0.53693  1.0000
  F   F301      1.0  0.79953  0.02238  0.00883  1.0000
  F   F302      1.0  0.80104  0.04306  0.49176  1.0000
  F   F303      1.0  0.79221  0.54023  0.02789  1.0000
  F   F304      1.0  0.78542  0.54839  0.50723  1.0000
  F   F305      1.0  0.22929  0.41694  0.23074  1.0000
  F   F306      1.0  0.23082  0.41606  0.73970  1.0000
  F   F307      1.0  0.23731  0.90493  0.22215  1.0000
  F   F308      1.0  0.22849  0.91362  0.73110  1.0000
  F   F309      1.0  0.48586  0.42186  0.23095  1.0000
  F   F310      1.0  0.48656  0.40340  0.73814  1.0000
  F   F311      1.0  0.48062  0.91319  0.23506  1.0000
  F   F312      1.0  0.48428  0.90748  0.73792  1.0000
  F   F313      1.0  0.74393  0.40599  0.20984  1.0000
  F   F314      1.0  0.73746  0.42333  0.72026  1.0000
  F   F315      1.0  0.73736  0.92312  0.20404  1.0000
  F   F316      1.0  0.73656  0.93694  0.70356  1.0000
  F   F317      1.0  0.98033  0.42612  0.21883  1.0000
  F   F318      1.0  0.98254  0.41538  0.71873  1.0000
  F   F319      1.0  0.99705  0.91792  0.21474  1.0000
  F   F320      1.0  0.98187  0.92013  0.72476  1.0000
  F   F321      1.0  0.20599  0.47271  0.48188  1.0000
  F   F322      1.0  0.20813  0.46809  0.98030  1.0000
  F   F323      1.0  0.19908  0.96487  0.48574  1.0000
  F   F324      1.0  0.21172  0.97018  0.97987  1.0000
  F   F325      1.0  0.46565  0.45011  0.46860  1.0000
  F   F326      1.0  0.45477  0.47204  0.97759  1.0000
  F   F327      1.0  0.45364  0.97388  0.47837  1.0000
  F   F328      1.0  0.47152  0.96952  0.96332  1.0000
  F   F329      1.0  0.70841  0.47728  0.47592  1.0000
  F   F330      1.0  0.70830  0.46163  0.96601  1.0000
  F   F331      1.0  0.70688  0.96413  0.47414  1.0000
  F   F332      1.0  0.69882  0.97580  0.98360  1.0000
  F   F333      1.0  0.96025  0.46226  0.47737  1.0000
  F   F334      1.0  0.96301  0.45696  0.96467  1.0000
  F   F335      1.0  0.95604  0.97313  0.48209  1.0000
  F   F336      1.0  0.95627  0.97191  0.98480  1.0000
  F   F337      1.0  0.02171  0.06497  0.27990  1.0000
  F   F338      1.0  0.01711  0.07350  0.79138  1.0000
  F   F339      1.0  0.01629  0.57753  0.28980  1.0000
  F   F340      1.0  0.01661  0.57722  0.76257  1.0000
  F   F341      1.0  0.26359  0.08121  0.28580  1.0000
  F   F342      1.0  0.25936  0.07663  0.77704  1.0000
  F   F343      1.0  0.26588  0.59212  0.27310  1.0000
  F   F344      1.0  0.26480  0.58131  0.77974  1.0000
  F   F345      1.0  0.51549  0.08587  0.27845  1.0000
  F   F346      1.0  0.51531  0.07923  0.76024  1.0000
  F   F347      1.0  0.51246  0.59647  0.26516  1.0000
  F   F348      1.0  0.50841  0.59946  0.76831  1.0000
  F   F349      1.0  0.76946  0.07573  0.27439  1.0000
  F   F350      1.0  0.76420  0.09249  0.78037  1.0000
  F   F351      1.0  0.76906  0.58743  0.25550  1.0000
  F   F352      1.0  0.76877  0.58707  0.76776  1.0000
  F   F353      1.0  0.10139  0.39364  0.47647  1.0000
  F   F354      1.0  0.10032  0.39950  0.95966  1.0000
  F   F355      1.0  0.10764  0.91120  0.46692  1.0000
  F   F356      1.0  0.09820  0.88738  0.96463  1.0000
  F   F357      1.0  0.34558  0.40124  0.45407  1.0000
  F   F358      1.0  0.34714  0.39337  0.96901  1.0000
  F   F359      1.0  0.34897  0.92910  0.46664  1.0000
  F   F360      1.0  0.35514  0.93115  0.94547  1.0000
  F   F361      1.0  0.60367  0.39296  0.45286  1.0000
  F   F362      1.0  0.59657  0.40599  0.94295  1.0000
  F   F363      1.0  0.59644  0.91211  0.45297  1.0000
  F   F364      1.0  0.59973  0.89417  0.96097  1.0000
  F   F365      1.0  0.84384  0.42739  0.46484  1.0000
  F   F366      1.0  0.85024  0.42861  0.95505  1.0000
  F   F367      1.0  0.85379  0.90638  0.45054  1.0000
  F   F368      1.0  0.85437  0.89964  0.97183  1.0000
  F   F369      1.0  0.04566  0.31272  0.27996  1.0000
  F   F370      1.0  0.04858  0.30356  0.79340  1.0000
  F   F371      1.0  0.05295  0.80929  0.29243  1.0000
  F   F372      1.0  0.03639  0.78660  0.78760  1.0000
  F   F373      1.0  0.28416  0.29777  0.31049  1.0000
  F   F374      1.0  0.29672  0.30332  0.79177  1.0000
  F   F375      1.0  0.29731  0.80057  0.27562  1.0000
  F   F376      1.0  0.30021  0.79035  0.79118  1.0000
  F   F377      1.0  0.53905  0.29712  0.29602  1.0000
  F   F378      1.0  0.55878  0.29393  0.77722  1.0000
  F   F379      1.0  0.54263  0.80447  0.30674  1.0000
  F   F380      1.0  0.54036  0.78820  0.79712  1.0000
  F   F381      1.0  0.80044  0.29867  0.29026  1.0000
  F   F382      1.0  0.80148  0.30872  0.79924  1.0000
  F   F383      1.0  0.79756  0.81284  0.28845  1.0000
  F   F384      1.0  0.79805  0.80808  0.76818  1.0000
