data_image0
_chemical_formula_structural       Hf96F384
_chemical_formula_sum              "Hf96 F384"
_cell_length_a       31.0488
_cell_length_b       15.5268
_cell_length_c       15.5164
_cell_angle_alpha    63.342
_cell_angle_beta     63.342
_cell_angle_gamma    80.1625

_space_group_name_H-M_alt    "P 1"
_space_group_IT_number       1

loop_
  _space_group_symop_operation_xyz
  'x, y, z'

loop_
  _atom_site_type_symbol
  _atom_site_label
  _atom_site_symmetry_multiplicity
  _atom_site_fract_x
  _atom_site_fract_y
  _atom_site_fract_z
  _atom_site_occupancy
  Hf  Hf1       1.0  0.19969  0.11387  0.36739  1.0000
  Hf  Hf2       1.0  0.19615  0.11053  0.87220  1.0000
  Hf  Hf3       1.0  0.19486  0.61067  0.37509  1.0000
  Hf  Hf4       1.0  0.19589  0.60745  0.87748  1.0000
  Hf  Hf5       1.0  0.44452  0.11718  0.37166  1.0000
  Hf  Hf6       1.0  0.44945  0.10657  0.86987  1.0000
  Hf  Hf7       1.0  0.44846  0.61415  0.36590  1.0000
  Hf  Hf8       1.0  0.45008  0.61269  0.86441  1.0000
  Hf  Hf9       1.0  0.69410  0.11051  0.38357  1.0000
  Hf  Hf10      1.0  0.69444  0.10066  0.88133  1.0000
  Hf  Hf11      1.0  0.69969  0.60401  0.37465  1.0000
  Hf  Hf12      1.0  0.70133  0.60270  0.87038  1.0000
  Hf  Hf13      1.0  0.94571  0.09918  0.37775  1.0000
  Hf  Hf14      1.0  0.94365  0.10230  0.87642  1.0000
  Hf  Hf15      1.0  0.94968  0.60168  0.37104  1.0000
  Hf  Hf16      1.0  0.94410  0.60426  0.88069  1.0000
  Hf  Hf17      1.0  0.05493  0.39236  0.12663  1.0000
  Hf  Hf18      1.0  0.04942  0.39367  0.62620  1.0000
  Hf  Hf19      1.0  0.05330  0.88889  0.12834  1.0000
  Hf  Hf20      1.0  0.05308  0.89594  0.62125  1.0000
  Hf  Hf21      1.0  0.30619  0.39720  0.11609  1.0000
  Hf  Hf22      1.0  0.30506  0.39155  0.62375  1.0000
  Hf  Hf23      1.0  0.30206  0.89331  0.12296  1.0000
  Hf  Hf24      1.0  0.30322  0.89649  0.62455  1.0000
  Hf  Hf25      1.0  0.55342  0.38935  0.12496  1.0000
  Hf  Hf26      1.0  0.55288  0.39531  0.62785  1.0000
  Hf  Hf27      1.0  0.55395  0.88935  0.13402  1.0000
  Hf  Hf28      1.0  0.55170  0.89614  0.62817  1.0000
  Hf  Hf29      1.0  0.80539  0.38898  0.12405  1.0000
  Hf  Hf30      1.0  0.80377  0.39605  0.62548  1.0000
  Hf  Hf31      1.0  0.80309  0.89419  0.13275  1.0000
  Hf  Hf32      1.0  0.80596  0.88654  0.62547  1.0000
  Hf  Hf33      1.0  0.05438  0.18074  0.41988  1.0000
  Hf  Hf34      1.0  0.05285  0.18524  0.91914  1.0000
  Hf  Hf35      1.0  0.05248  0.68043  0.41719  1.0000
  Hf  Hf36      1.0  0.05634  0.67891  0.91562  1.0000
  Hf  Hf37      1.0  0.30759  0.18255  0.41201  1.0000
  Hf  Hf38      1.0  0.30720  0.18713  0.91366  1.0000
  Hf  Hf39      1.0  0.30802  0.68136  0.40980  1.0000
  Hf  Hf40      1.0  0.30578  0.68689  0.91434  1.0000
  Hf  Hf41      1.0  0.55734  0.18325  0.41072  1.0000
  Hf  Hf42      1.0  0.55576  0.18443  0.91128  1.0000
  Hf  Hf43      1.0  0.55442  0.68450  0.42213  1.0000
  Hf  Hf44      1.0  0.55497  0.68422  0.91919  1.0000
  Hf  Hf45      1.0  0.80436  0.17702  0.42643  1.0000
  Hf  Hf46      1.0  0.80680  0.17796  0.91758  1.0000
  Hf  Hf47      1.0  0.80876  0.68525  0.41372  1.0000
  Hf  Hf48      1.0  0.80252  0.68240  0.91584  1.0000
  Hf  Hf49      1.0  0.15654  0.38461  0.34067  1.0000
  Hf  Hf50      1.0  0.15713  0.38333  0.83977  1.0000
  Hf  Hf51      1.0  0.15818  0.89416  0.33364  1.0000
  Hf  Hf52      1.0  0.16060  0.89282  0.83145  1.0000
  Hf  Hf53      1.0  0.40716  0.39300  0.33148  1.0000
  Hf  Hf54      1.0  0.40734  0.39022  0.82679  1.0000
  Hf  Hf55      1.0  0.40564  0.89484  0.33486  1.0000
  Hf  Hf56      1.0  0.40579  0.89259  0.83042  1.0000
  Hf  Hf57      1.0  0.65766  0.38785  0.33222  1.0000
  Hf  Hf58      1.0  0.65491  0.38720  0.83747  1.0000
  Hf  Hf59      1.0  0.65617  0.87947  0.34015  1.0000
  Hf  Hf60      1.0  0.65362  0.88012  0.84302  1.0000
  Hf  Hf61      1.0  0.90722  0.37760  0.34476  1.0000
  Hf  Hf62      1.0  0.90406  0.38087  0.84237  1.0000
  Hf  Hf63      1.0  0.90667  0.88101  0.34314  1.0000
  Hf  Hf64      1.0  0.90603  0.88300  0.83517  1.0000
  Hf  Hf65      1.0  0.19584  0.31830  0.08138  1.0000
  Hf  Hf66      1.0  0.19155  0.31782  0.58576  1.0000
  Hf  Hf67      1.0  0.19632  0.82018  0.08395  1.0000
  Hf  Hf68      1.0  0.19424  0.81941  0.57653  1.0000
  Hf  Hf69      1.0  0.44417  0.32040  0.07539  1.0000
  Hf  Hf70      1.0  0.44576  0.31948  0.57437  1.0000
  Hf  Hf71      1.0  0.44403  0.82507  0.08489  1.0000
  Hf  Hf72      1.0  0.44315  0.82842  0.58092  1.0000
  Hf  Hf73      1.0  0.69589  0.31762  0.07808  1.0000
  Hf  Hf74      1.0  0.69446  0.32372  0.58222  1.0000
  Hf  Hf75      1.0  0.69823  0.81359  0.08813  1.0000
  Hf  Hf76      1.0  0.69539  0.82272  0.58074  1.0000
  Hf  Hf77      1.0  0.94385  0.31433  0.08907  1.0000
  Hf  Hf78      1.0  0.94321  0.30849  0.58811  1.0000
  Hf  Hf79      1.0  0.94854  0.81715  0.08538  1.0000
  Hf  Hf80      1.0  0.94697  0.80947  0.58916  1.0000
  Hf  Hf81      1.0  0.09337  0.11386  0.15822  1.0000
  Hf  Hf82      1.0  0.09564  0.11053  0.66262  1.0000
  Hf  Hf83      1.0  0.09837  0.61416  0.15974  1.0000
  Hf  Hf84      1.0  0.08986  0.61354  0.66538  1.0000
  Hf  Hf85      1.0  0.34027  0.10751  0.16435  1.0000
  Hf  Hf86      1.0  0.34324  0.11626  0.65931  1.0000
  Hf  Hf87      1.0  0.34202  0.61872  0.15598  1.0000
  Hf  Hf88      1.0  0.33903  0.61097  0.66556  1.0000
  Hf  Hf89      1.0  0.58949  0.10949  0.16773  1.0000
  Hf  Hf90      1.0  0.59003  0.11209  0.66550  1.0000
  Hf  Hf91      1.0  0.58989  0.60669  0.17634  1.0000
  Hf  Hf92      1.0  0.59560  0.61957  0.65737  1.0000
  Hf  Hf93      1.0  0.84334  0.11397  0.16543  1.0000
  Hf  Hf94      1.0  0.83681  0.09910  0.67322  1.0000
  Hf  Hf95      1.0  0.84260  0.61162  0.16661  1.0000
  Hf  Hf96      1.0  0.84549  0.60940  0.66135  1.0000
  F   F1        1.0  0.08226  0.13834  0.29938  1.0000
  F   F2        1.0  0.07457  0.13532  0.80170  1.0000
  F   F3        1.0  0.08368  0.64075  0.28865  1.0000
  F   F4        1.0  0.08279  0.62964  0.79648  1.0000
  F   F5        1.0  0.32583  0.10080  0.31257  1.0000
  F   F6        1.0  0.33264  0.13910  0.80170  1.0000
  F   F7        1.0  0.33569  0.63310  0.29680  1.0000
  F   F8        1.0  0.33087  0.62742  0.81478  1.0000
  F   F9        1.0  0.57856  0.12592  0.29925  1.0000
  F   F10       1.0  0.57832  0.12515  0.80310  1.0000
  F   F11       1.0  0.56959  0.61162  0.32612  1.0000
  F   F12       1.0  0.57870  0.64478  0.79741  1.0000
  F   F13       1.0  0.82043  0.09025  0.32092  1.0000
  F   F14       1.0  0.82394  0.11819  0.80854  1.0000
  F   F15       1.0  0.82974  0.61150  0.30997  1.0000
  F   F16       1.0  0.83206  0.63414  0.79768  1.0000
  F   F17       1.0  0.18031  0.33228  0.45253  1.0000
  F   F18       1.0  0.18705  0.34771  0.94352  1.0000
  F   F19       1.0  0.18421  0.85446  0.43974  1.0000
  F   F20       1.0  0.18782  0.83809  0.94756  1.0000
  F   F21       1.0  0.43837  0.36241  0.43777  1.0000
  F   F22       1.0  0.43233  0.34086  0.94295  1.0000
  F   F23       1.0  0.43346  0.84310  0.45061  1.0000
  F   F24       1.0  0.43444  0.85568  0.94922  1.0000
  F   F25       1.0  0.68737  0.34946  0.44285  1.0000
  F   F26       1.0  0.69558  0.34406  0.93215  1.0000
  F   F27       1.0  0.68666  0.83443  0.45170  1.0000
  F   F28       1.0  0.67824  0.82721  0.96206  1.0000
  F   F29       1.0  0.94239  0.33405  0.44517  1.0000
  F   F30       1.0  0.92946  0.32157  0.95685  1.0000
  F   F31       1.0  0.93155  0.82683  0.45941  1.0000
  F   F32       1.0  0.94195  0.83897  0.94068  1.0000
  F   F33       1.0  0.17342  0.36873  0.19893  1.0000
  F   F34       1.0  0.16981  0.36558  0.70060  1.0000
  F   F35       1.0  0.16964  0.87799  0.19066  1.0000
  F   F36       1.0  0.16596  0.86896  0.70202  1.0000
  F   F37       1.0  0.41132  0.35894  0.21371  1.0000
  F   F38       1.0  0.42246  0.37218  0.69803  1.0000
  F   F39       1.0  0.41402  0.86360  0.20518  1.0000
  F   F40       1.0  0.42107  0.88003  0.68992  1.0000
  F   F41       1.0  0.66639  0.36925  0.20456  1.0000
  F   F42       1.0  0.67002  0.37815  0.69058  1.0000
  F   F43       1.0  0.67776  0.88041  0.18898  1.0000
  F   F44       1.0  0.66660  0.86309  0.70951  1.0000
  F   F45       1.0  0.91778  0.37613  0.19345  1.0000
  F   F46       1.0  0.91506  0.36019  0.71270  1.0000
  F   F47       1.0  0.91713  0.87385  0.20290  1.0000
  F   F48       1.0  0.92065  0.86540  0.69959  1.0000
  F   F49       1.0  0.06781  0.16010  0.05233  1.0000
  F   F50       1.0  0.06068  0.15145  0.56730  1.0000
  F   F51       1.0  0.06883  0.66186  0.04559  1.0000
  F   F52       1.0  0.07071  0.66095  0.54136  1.0000
  F   F53       1.0  0.31109  0.17984  0.04770  1.0000
  F   F54       1.0  0.31368  0.16558  0.54924  1.0000
  F   F55       1.0  0.32615  0.68590  0.02701  1.0000
  F   F56       1.0  0.30532  0.66339  0.56726  1.0000
  F   F57       1.0  0.56775  0.16041  0.04504  1.0000
  F   F58       1.0  0.57262  0.17803  0.53802  1.0000
  F   F59       1.0  0.56157  0.64874  0.06382  1.0000
  F   F60       1.0  0.56867  0.65930  0.54612  1.0000
  F   F61       1.0  0.81193  0.15226  0.05463  1.0000
  F   F62       1.0  0.80891  0.15811  0.56322  1.0000
  F   F63       1.0  0.81525  0.65549  0.05744  1.0000
  F   F64       1.0  0.82345  0.66187  0.54354  1.0000
  F   F65       1.0  0.20266  0.19956  0.21541  1.0000
  F   F66       1.0  0.20397  0.19894  0.71906  1.0000
  F   F67       1.0  0.20432  0.69781  0.21415  1.0000
  F   F68       1.0  0.20771  0.69639  0.70088  1.0000
  F   F69       1.0  0.45677  0.21522  0.20177  1.0000
  F   F70       1.0  0.45250  0.21134  0.70461  1.0000
  F   F71       1.0  0.44914  0.70785  0.20525  1.0000
  F   F72       1.0  0.45952  0.70410  0.70880  1.0000
  F   F73       1.0  0.70359  0.20974  0.20585  1.0000
  F   F74       1.0  0.70035  0.19991  0.69541  1.0000
  F   F75       1.0  0.71213  0.69585  0.20356  1.0000
  F   F76       1.0  0.70785  0.69701  0.71235  1.0000
  F   F77       1.0  0.95284  0.20455  0.22253  1.0000
  F   F78       1.0  0.94773  0.18576  0.71004  1.0000
  F   F79       1.0  0.95817  0.70778  0.20072  1.0000
  F   F80       1.0  0.95738  0.70445  0.71138  1.0000
  F   F81       1.0  0.14900  0.07535  0.04113  1.0000
  F   F82       1.0  0.15216  0.08777  0.53350  1.0000
  F   F83       1.0  0.15547  0.58547  0.04854  1.0000
  F   F84       1.0  0.15277  0.58767  0.53601  1.0000
  F   F85       1.0  0.39558  0.08825  0.04898  1.0000
  F   F86       1.0  0.39754  0.08816  0.53552  1.0000
  F   F87       1.0  0.40401  0.58647  0.03304  1.0000
  F   F88       1.0  0.39904  0.62528  0.53967  1.0000
  F   F89       1.0  0.64678  0.08871  0.03145  1.0000
  F   F90       1.0  0.64917  0.07551  0.53263  1.0000
  F   F91       1.0  0.64746  0.59804  0.04849  1.0000
  F   F92       1.0  0.65491  0.60261  0.53785  1.0000
  F   F93       1.0  0.89864  0.09941  0.04493  1.0000
  F   F94       1.0  0.89804  0.07466  0.53713  1.0000
  F   F95       1.0  0.90096  0.57882  0.04365  1.0000
  F   F96       1.0  0.90932  0.58869  0.53377  1.0000
  F   F97       1.0  0.15336  0.19459  0.12147  1.0000
  F   F98       1.0  0.15108  0.19937  0.62073  1.0000
  F   F99       1.0  0.15387  0.70451  0.11435  1.0000
  F   F100      1.0  0.15046  0.69921  0.61705  1.0000
  F   F101      1.0  0.40198  0.19580  0.11932  1.0000
  F   F102      1.0  0.40523  0.19462  0.61057  1.0000
  F   F103      1.0  0.40168  0.70234  0.12420  1.0000
  F   F104      1.0  0.40479  0.70651  0.64109  1.0000
  F   F105      1.0  0.64930  0.20381  0.11598  1.0000
  F   F106      1.0  0.64957  0.19790  0.59848  1.0000
  F   F107      1.0  0.65181  0.69537  0.14776  1.0000
  F   F108      1.0  0.64888  0.69895  0.63807  1.0000
  F   F109      1.0  0.89762  0.20244  0.15163  1.0000
  F   F110      1.0  0.88935  0.19188  0.62637  1.0000
  F   F111      1.0  0.90548  0.69525  0.12237  1.0000
  F   F112      1.0  0.89768  0.69832  0.62763  1.0000
  F   F113      1.0  0.10009  0.29892  0.39696  1.0000
  F   F114      1.0  0.09182  0.30901  0.89011  1.0000
  F   F115      1.0  0.09465  0.81082  0.37428  1.0000
  F   F116      1.0  0.10396  0.79869  0.88367  1.0000
  F   F117      1.0  0.34503  0.30642  0.38252  1.0000
  F   F118      1.0  0.34768  0.32097  0.85228  1.0000
  F   F119      1.0  0.34822  0.80124  0.38045  1.0000
  F   F120      1.0  0.34650  0.82378  0.86179  1.0000
  F   F121      1.0  0.59630  0.31463  0.37476  1.0000
  F   F122      1.0  0.59500  0.30642  0.88835  1.0000
  F   F123      1.0  0.60088  0.79840  0.37797  1.0000
  F   F124      1.0  0.59529  0.79262  0.88852  1.0000
  F   F125      1.0  0.84724  0.30527  0.38618  1.0000
  F   F126      1.0  0.84697  0.29321  0.89359  1.0000
  F   F127      1.0  0.84318  0.79937  0.40047  1.0000
  F   F128      1.0  0.84812  0.79774  0.86074  1.0000
  F   F129      1.0  0.06466  0.25495  0.14489  1.0000
  F   F130      1.0  0.06457  0.25564  0.62805  1.0000
  F   F131      1.0  0.06588  0.75379  0.14314  1.0000
  F   F132      1.0  0.06183  0.74688  0.64156  1.0000
  F   F133      1.0  0.31553  0.25381  0.14100  1.0000
  F   F134      1.0  0.30957  0.25027  0.64823  1.0000
  F   F135      1.0  0.30672  0.75046  0.15254  1.0000
  F   F136      1.0  0.32538  0.75555  0.63228  1.0000
  F   F137      1.0  0.56501  0.25589  0.13126  1.0000
  F   F138      1.0  0.55742  0.25121  0.65805  1.0000
  F   F139      1.0  0.56254  0.74142  0.15531  1.0000
  F   F140      1.0  0.56274  0.76137  0.63781  1.0000
  F   F141      1.0  0.81246  0.24542  0.14088  1.0000
  F   F142      1.0  0.80678  0.25106  0.65206  1.0000
  F   F143      1.0  0.81321  0.75032  0.15182  1.0000
  F   F144      1.0  0.81425  0.74973  0.63860  1.0000
  F   F145      1.0  0.12265  0.35276  0.13317  1.0000
  F   F146      1.0  0.12159  0.35832  0.62868  1.0000
  F   F147      1.0  0.12319  0.86896  0.09887  1.0000
  F   F148      1.0  0.12323  0.87399  0.60270  1.0000
  F   F149      1.0  0.37182  0.36798  0.09923  1.0000
  F   F150      1.0  0.37226  0.35027  0.63235  1.0000
  F   F151      1.0  0.37469  0.87883  0.09610  1.0000
  F   F152      1.0  0.37434  0.88695  0.60151  1.0000
  F   F153      1.0  0.62957  0.36400  0.10534  1.0000
  F   F154      1.0  0.62425  0.36558  0.60450  1.0000
  F   F155      1.0  0.62468  0.87802  0.11359  1.0000
  F   F156      1.0  0.62590  0.86709  0.60382  1.0000
  F   F157      1.0  0.87471  0.35989  0.11172  1.0000
  F   F158      1.0  0.87579  0.36413  0.61057  1.0000
  F   F159      1.0  0.87492  0.87522  0.10970  1.0000
  F   F160      1.0  0.87139  0.85566  0.62180  1.0000
  F   F161      1.0  0.19766  0.25861  0.34618  1.0000
  F   F162      1.0  0.17265  0.24149  0.88825  1.0000
  F   F163      1.0  0.17893  0.75414  0.36351  1.0000
  F   F164      1.0  0.19054  0.74614  0.86222  1.0000
  F   F165      1.0  0.43308  0.25331  0.37728  1.0000
  F   F166      1.0  0.43659  0.23875  0.86156  1.0000
  F   F167      1.0  0.43105  0.74950  0.35583  1.0000
  F   F168      1.0  0.43055  0.75723  0.86836  1.0000
  F   F169      1.0  0.69527  0.25120  0.34204  1.0000
  F   F170      1.0  0.68889  0.25141  0.84582  1.0000
  F   F171      1.0  0.68679  0.75213  0.33996  1.0000
  F   F172      1.0  0.68021  0.74341  0.86546  1.0000
  F   F173      1.0  0.93082  0.23241  0.39256  1.0000
  F   F174      1.0  0.93429  0.24904  0.84697  1.0000
  F   F175      1.0  0.93925  0.74592  0.35118  1.0000
  F   F176      1.0  0.93410  0.74990  0.86589  1.0000
  F   F177      1.0  0.12685  0.14232  0.38620  1.0000
  F   F178      1.0  0.12616  0.13765  0.87072  1.0000
  F   F179      1.0  0.12370  0.63103  0.39222  1.0000
  F   F180      1.0  0.12718  0.62011  0.89878  1.0000
  F   F181      1.0  0.37962  0.16112  0.36167  1.0000
  F   F182      1.0  0.37294  0.12150  0.90759  1.0000
  F   F183      1.0  0.37330  0.61626  0.42078  1.0000
  F   F184      1.0  0.37990  0.64730  0.88593  1.0000
  F   F185      1.0  0.62556  0.15082  0.37802  1.0000
  F   F186      1.0  0.62956  0.13898  0.87833  1.0000
  F   F187      1.0  0.62709  0.62693  0.39293  1.0000
  F   F188      1.0  0.62693  0.60897  0.90317  1.0000
  F   F189      1.0  0.87422  0.13839  0.37921  1.0000
  F   F190      1.0  0.87654  0.11005  0.88800  1.0000
  F   F191      1.0  0.88239  0.64283  0.36766  1.0000
  F   F192      1.0  0.87739  0.63080  0.89026  1.0000
  F   F193      1.0  0.01031  0.34929  0.06402  1.0000
  F   F194      1.0  0.99912  0.35447  0.58665  1.0000
  F   F195      1.0  0.00784  0.88082  0.06309  1.0000
  F   F196      1.0  0.01205  0.85934  0.56446  1.0000
  F   F197      1.0  0.25941  0.35801  0.08273  1.0000
  F   F198      1.0  0.25940  0.35529  0.57005  1.0000
  F   F199      1.0  0.25737  0.87461  0.06197  1.0000
  F   F200      1.0  0.25162  0.86012  0.59090  1.0000
  F   F201      1.0  0.50537  0.37370  0.06134  1.0000
  F   F202      1.0  0.51326  0.37046  0.55499  1.0000
  F   F203      1.0  0.50416  0.86055  0.08479  1.0000
  F   F204      1.0  0.50547  0.88693  0.56981  1.0000
  F   F205      1.0  0.75669  0.36146  0.07733  1.0000
  F   F206      1.0  0.75761  0.36687  0.57033  1.0000
  F   F207      1.0  0.76425  0.86076  0.06649  1.0000
  F   F208      1.0  0.75530  0.86406  0.57387  1.0000
  F   F209      1.0  0.07278  0.49116  0.16397  1.0000
  F   F210      1.0  0.06817  0.48413  0.68230  1.0000
  F   F211      1.0  0.06738  0.98779  0.17006  1.0000
  F   F212      1.0  0.07197  0.97794  0.68331  1.0000
  F   F213      1.0  0.31966  0.49143  0.16180  1.0000
  F   F214      1.0  0.32125  0.48617  0.66632  1.0000
  F   F215      1.0  0.31515  0.97727  0.19313  1.0000
  F   F216      1.0  0.31783  0.97945  0.68648  1.0000
  F   F217      1.0  0.57128  0.47683  0.17208  1.0000
  F   F218      1.0  0.57071  0.49142  0.66107  1.0000
  F   F219      1.0  0.56396  0.99638  0.17170  1.0000
  F   F220      1.0  0.56627  0.98301  0.67807  1.0000
  F   F221      1.0  0.81999  0.48155  0.16179  1.0000
  F   F222      1.0  0.82062  0.48328  0.67005  1.0000
  F   F223      1.0  0.81937  0.98483  0.18048  1.0000
  F   F224      1.0  0.81468  0.97480  0.69119  1.0000
  F   F225      1.0  0.24557  0.12702  0.42023  1.0000
  F   F226      1.0  0.24199  0.13968  0.93742  1.0000
  F   F227      1.0  0.24570  0.64267  0.41512  1.0000
  F   F228      1.0  0.24494  0.63647  0.93675  1.0000
  F   F229      1.0  0.49432  0.14398  0.41604  1.0000
  F   F230      1.0  0.49251  0.14021  0.93184  1.0000
  F   F231      1.0  0.48878  0.65908  0.41661  1.0000
  F   F232      1.0  0.49382  0.64306  0.91197  1.0000
  F   F233      1.0  0.73619  0.12301  0.45691  1.0000
  F   F234      1.0  0.74059  0.13533  0.93488  1.0000
  F   F235      1.0  0.74613  0.63595  0.43081  1.0000
  F   F236      1.0  0.73888  0.64942  0.92356  1.0000
  F   F237      1.0  0.99605  0.12700  0.41700  1.0000
  F   F238      1.0  0.99024  0.14661  0.90949  1.0000
  F   F239      1.0  0.99497  0.63180  0.42692  1.0000
  F   F240      1.0  0.99714  0.64074  0.91747  1.0000
  F   F241      1.0  0.18132  0.02363  0.31525  1.0000
  F   F242      1.0  0.18273  0.00684  0.83722  1.0000
  F   F243      1.0  0.18185  0.52174  0.31619  1.0000
  F   F244      1.0  0.18157  0.51174  0.82587  1.0000
  F   F245      1.0  0.43115  0.01399  0.33550  1.0000
  F   F246      1.0  0.43280  0.01730  0.82520  1.0000
  F   F247      1.0  0.42795  0.52469  0.31539  1.0000
  F   F248      1.0  0.42943  0.51739  0.82750  1.0000
  F   F249      1.0  0.67709  0.00535  0.33938  1.0000
  F   F250      1.0  0.67396  0.00290  0.83813  1.0000
  F   F251      1.0  0.68279  0.51846  0.30953  1.0000
  F   F252      1.0  0.68165  0.51177  0.81506  1.0000
  F   F253      1.0  0.93109  0.00983  0.33339  1.0000
  F   F254      1.0  0.93144  0.00683  0.81332  1.0000
  F   F255      1.0  0.93456  0.51419  0.30559  1.0000
  F   F256      1.0  0.92834  0.51445  0.83523  1.0000
  F   F257      1.0  0.99662  0.23161  0.01613  1.0000
  F   F258      1.0  0.99681  0.22636  0.51914  1.0000
  F   F259      1.0  0.00023  0.73979  0.01225  1.0000
  F   F260      1.0  0.99979  0.72611  0.52266  1.0000
  F   F261      1.0  0.25225  0.26101  0.99606  1.0000
  F   F262      1.0  0.25216  0.24843  0.49982  1.0000
  F   F263      1.0  0.25195  0.74642  0.01006  1.0000
  F   F264      1.0  0.25118  0.76019  0.48732  1.0000
  F   F265      1.0  0.50769  0.26357  0.97429  1.0000
  F   F266      1.0  0.50012  0.25505  0.48529  1.0000
  F   F267      1.0  0.50196  0.75986  0.99616  1.0000
  F   F268      1.0  0.49868  0.75089  0.50891  1.0000
  F   F269      1.0  0.75348  0.23961  0.00013  1.0000
  F   F270      1.0  0.75108  0.25208  0.49462  1.0000
  F   F271      1.0  0.75512  0.76842  0.98206  1.0000
  F   F272      1.0  0.74814  0.73066  0.51817  1.0000
  F   F273      1.0  0.12753  0.01097  0.23968  1.0000
  F   F274      1.0  0.13418  0.01232  0.73722  1.0000
  F   F275      1.0  0.12484  0.49335  0.25414  1.0000
  F   F276      1.0  0.12828  0.50126  0.75127  1.0000
  F   F277      1.0  0.38842  0.00812  0.23663  1.0000
  F   F278      1.0  0.37223  0.99634  0.75004  1.0000
  F   F279      1.0  0.36841  0.50328  0.25104  1.0000
  F   F280      1.0  0.38150  0.51188  0.73389  1.0000
  F   F281      1.0  0.62988  0.00325  0.23790  1.0000
  F   F282      1.0  0.62106  0.99640  0.75662  1.0000
  F   F283      1.0  0.62402  0.50262  0.25925  1.0000
  F   F284      1.0  0.62547  0.50267  0.75115  1.0000
  F   F285      1.0  0.88422  0.00482  0.23814  1.0000
  F   F286      1.0  0.86649  0.98107  0.76177  1.0000
  F   F287      1.0  0.86035  0.48081  0.27309  1.0000
  F   F288      1.0  0.87284  0.49798  0.75337  1.0000
  F   F289      1.0  0.03902  0.04012  0.01447  1.0000
  F   F290      1.0  0.04239  0.02975  0.53198  1.0000
  F   F291      1.0  0.03953  0.51820  0.02197  1.0000
  F   F292      1.0  0.03650  0.53075  0.53822  1.0000
  F   F293      1.0  0.28349  0.03156  0.03725  1.0000
  F   F294      1.0  0.28777  0.03498  0.53111  1.0000
  F   F295      1.0  0.29853  0.53213  0.01207  1.0000
  F   F296      1.0  0.29146  0.53312  0.51772  1.0000
  F   F297      1.0  0.55414  0.02836  0.01643  1.0000
  F   F298      1.0  0.53940  0.04542  0.53897  1.0000
  F   F299      1.0  0.53669  0.52676  0.02590  1.0000
  F   F300      1.0  0.53837  0.53314  0.52781  1.0000
  F   F301      1.0  0.78884  0.02311  0.02794  1.0000
  F   F302      1.0  0.79208  0.02467  0.53575  1.0000
  F   F303      1.0  0.79266  0.53477  0.01721  1.0000
  F   F304      1.0  0.79753  0.52974  0.51735  1.0000
  F   F305      1.0  0.23906  0.40982  0.23260  1.0000
  F   F306      1.0  0.23452  0.42027  0.72033  1.0000
  F   F307      1.0  0.23381  0.90169  0.22592  1.0000
  F   F308      1.0  0.23777  0.92297  0.71686  1.0000
  F   F309      1.0  0.47964  0.41699  0.22795  1.0000
  F   F310      1.0  0.48540  0.41655  0.72793  1.0000
  F   F311      1.0  0.48133  0.91406  0.22934  1.0000
  F   F312      1.0  0.48166  0.91204  0.73236  1.0000
  F   F313      1.0  0.73333  0.41144  0.22971  1.0000
  F   F314      1.0  0.73816  0.40957  0.71897  1.0000
  F   F315      1.0  0.73719  0.91867  0.22965  1.0000
  F   F316      1.0  0.72951  0.90893  0.73982  1.0000
  F   F317      1.0  0.98654  0.38333  0.23856  1.0000
  F   F318      1.0  0.97873  0.41576  0.73024  1.0000
  F   F319      1.0  0.98361  0.91442  0.23264  1.0000
  F   F320      1.0  0.98482  0.89923  0.72139  1.0000
  F   F321      1.0  0.20750  0.46299  0.47346  1.0000
  F   F322      1.0  0.20229  0.46799  0.98485  1.0000
  F   F323      1.0  0.21108  0.96097  0.46991  1.0000
  F   F324      1.0  0.21482  0.96706  0.96282  1.0000
  F   F325      1.0  0.44861  0.48025  0.49609  1.0000
  F   F326      1.0  0.45891  0.47291  0.96859  1.0000
  F   F327      1.0  0.46047  0.98277  0.46751  1.0000
  F   F328      1.0  0.46132  0.97533  0.98367  1.0000
  F   F329      1.0  0.70804  0.47870  0.48259  1.0000
  F   F330      1.0  0.70874  0.47488  0.97973  1.0000
  F   F331      1.0  0.71564  0.96741  0.45942  1.0000
  F   F332      1.0  0.70722  0.96770  0.97601  1.0000
  F   F333      1.0  0.95860  0.46455  0.47813  1.0000
  F   F334      1.0  0.95898  0.47307  0.98029  1.0000
  F   F335      1.0  0.95683  0.96109  0.48082  1.0000
  F   F336      1.0  0.94480  0.97430  0.99417  1.0000
  F   F337      1.0  0.01554  0.08392  0.26048  1.0000
  F   F338      1.0  0.01274  0.07120  0.78019  1.0000
  F   F339      1.0  0.01574  0.57884  0.26975  1.0000
  F   F340      1.0  0.01778  0.59289  0.76659  1.0000
  F   F341      1.0  0.26714  0.09630  0.26369  1.0000
  F   F342      1.0  0.26471  0.08881  0.77211  1.0000
  F   F343      1.0  0.26531  0.58931  0.27084  1.0000
  F   F344      1.0  0.26594  0.58244  0.78660  1.0000
  F   F345      1.0  0.51101  0.10267  0.26395  1.0000
  F   F346      1.0  0.51350  0.09632  0.76649  1.0000
  F   F347      1.0  0.51421  0.56884  0.26932  1.0000
  F   F348      1.0  0.51941  0.57193  0.78000  1.0000
  F   F349      1.0  0.76055  0.10849  0.26831  1.0000
  F   F350      1.0  0.75976  0.09310  0.76720  1.0000
  F   F351      1.0  0.76490  0.57936  0.27655  1.0000
  F   F352      1.0  0.76979  0.57977  0.77576  1.0000
  F   F353      1.0  0.09936  0.41713  0.46721  1.0000
  F   F354      1.0  0.10160  0.41038  0.96482  1.0000
  F   F355      1.0  0.09944  0.91350  0.45797  1.0000
  F   F356      1.0  0.09932  0.91880  0.95630  1.0000
  F   F357      1.0  0.35044  0.41306  0.47458  1.0000
  F   F358      1.0  0.35267  0.41121  0.94811  1.0000
  F   F359      1.0  0.34984  0.92352  0.45481  1.0000
  F   F360      1.0  0.34596  0.92394  0.95907  1.0000
  F   F361      1.0  0.60284  0.42325  0.45500  1.0000
  F   F362      1.0  0.60271  0.41402  0.96495  1.0000
  F   F363      1.0  0.60357  0.91162  0.46539  1.0000
  F   F364      1.0  0.59267  0.89598  0.98748  1.0000
  F   F365      1.0  0.85874  0.41778  0.45540  1.0000
  F   F366      1.0  0.84584  0.41082  0.95800  1.0000
  F   F367      1.0  0.84844  0.91545  0.47137  1.0000
  F   F368      1.0  0.85462  0.89250  0.95923  1.0000
  F   F369      1.0  0.04474  0.29662  0.31675  1.0000
  F   F370      1.0  0.04182  0.30200  0.78552  1.0000
  F   F371      1.0  0.04552  0.79766  0.28614  1.0000
  F   F372      1.0  0.05526  0.79871  0.78873  1.0000
  F   F373      1.0  0.30500  0.30048  0.27699  1.0000
  F   F374      1.0  0.29134  0.29104  0.79529  1.0000
  F   F375      1.0  0.30175  0.79920  0.28371  1.0000
  F   F376      1.0  0.30111  0.80099  0.78067  1.0000
  F   F377      1.0  0.55039  0.30106  0.27864  1.0000
  F   F378      1.0  0.54877  0.30324  0.78736  1.0000
  F   F379      1.0  0.54702  0.79849  0.29208  1.0000
  F   F380      1.0  0.54698  0.81356  0.78334  1.0000
  F   F381      1.0  0.80150  0.28217  0.29007  1.0000
  F   F382      1.0  0.80101  0.29680  0.80012  1.0000
  F   F383      1.0  0.80649  0.79753  0.28301  1.0000
  F   F384      1.0  0.79348  0.79282  0.78146  1.0000
