data_image0
_chemical_formula_structural       Hf96F384
_chemical_formula_sum              "Hf96 F384"
_cell_length_a       31.0315
_cell_length_b       15.5187
_cell_length_c       15.5124
_cell_angle_alpha    63.342
_cell_angle_beta     63.342
_cell_angle_gamma    80.1625

_space_group_name_H-M_alt    "P 1"
_space_group_IT_number       1

loop_
  _space_group_symop_operation_xyz
  'x, y, z'

loop_
  _atom_site_type_symbol
  _atom_site_label
  _atom_site_symmetry_multiplicity
  _atom_site_fract_x
  _atom_site_fract_y
  _atom_site_fract_z
  _atom_site_occupancy
  Hf  Hf1       1.0  0.19740  0.10763  0.36385  1.0000
  Hf  Hf2       1.0  0.19698  0.11084  0.86026  1.0000
  Hf  Hf3       1.0  0.19667  0.61364  0.36360  1.0000
  Hf  Hf4       1.0  0.19439  0.60961  0.87646  1.0000
  Hf  Hf5       1.0  0.44637  0.09806  0.38226  1.0000
  Hf  Hf6       1.0  0.45050  0.11311  0.85783  1.0000
  Hf  Hf7       1.0  0.44803  0.60424  0.36915  1.0000
  Hf  Hf8       1.0  0.44217  0.60053  0.89190  1.0000
  Hf  Hf9       1.0  0.69488  0.11068  0.36979  1.0000
  Hf  Hf10      1.0  0.69446  0.10895  0.88814  1.0000
  Hf  Hf11      1.0  0.69612  0.60431  0.37898  1.0000
  Hf  Hf12      1.0  0.69364  0.61336  0.88011  1.0000
  Hf  Hf13      1.0  0.95201  0.10613  0.37522  1.0000
  Hf  Hf14      1.0  0.94799  0.10580  0.88083  1.0000
  Hf  Hf15      1.0  0.94795  0.60943  0.36614  1.0000
  Hf  Hf16      1.0  0.95000  0.60902  0.86790  1.0000
  Hf  Hf17      1.0  0.05513  0.38881  0.12437  1.0000
  Hf  Hf18      1.0  0.05324  0.38809  0.63073  1.0000
  Hf  Hf19      1.0  0.05186  0.88820  0.13031  1.0000
  Hf  Hf20      1.0  0.05449  0.88885  0.62597  1.0000
  Hf  Hf21      1.0  0.30474  0.39129  0.12779  1.0000
  Hf  Hf22      1.0  0.30617  0.38772  0.62431  1.0000
  Hf  Hf23      1.0  0.30318  0.88724  0.12575  1.0000
  Hf  Hf24      1.0  0.30166  0.88645  0.62713  1.0000
  Hf  Hf25      1.0  0.55204  0.39669  0.12475  1.0000
  Hf  Hf26      1.0  0.55527  0.39310  0.62780  1.0000
  Hf  Hf27      1.0  0.54950  0.89973  0.12637  1.0000
  Hf  Hf28      1.0  0.55607  0.89417  0.61998  1.0000
  Hf  Hf29      1.0  0.80550  0.39606  0.12398  1.0000
  Hf  Hf30      1.0  0.80082  0.39423  0.63470  1.0000
  Hf  Hf31      1.0  0.80195  0.88833  0.13496  1.0000
  Hf  Hf32      1.0  0.80160  0.90466  0.62036  1.0000
  Hf  Hf33      1.0  0.05888  0.18629  0.41413  1.0000
  Hf  Hf34      1.0  0.05547  0.17926  0.91726  1.0000
  Hf  Hf35      1.0  0.05332  0.67571  0.42908  1.0000
  Hf  Hf36      1.0  0.05378  0.68787  0.91262  1.0000
  Hf  Hf37      1.0  0.30554  0.17848  0.41689  1.0000
  Hf  Hf38      1.0  0.30812  0.17849  0.91383  1.0000
  Hf  Hf39      1.0  0.30544  0.67788  0.41939  1.0000
  Hf  Hf40      1.0  0.30146  0.67857  0.92400  1.0000
  Hf  Hf41      1.0  0.55504  0.18892  0.41676  1.0000
  Hf  Hf42      1.0  0.55429  0.18177  0.91362  1.0000
  Hf  Hf43      1.0  0.55882  0.67706  0.41271  1.0000
  Hf  Hf44      1.0  0.55449  0.68438  0.91607  1.0000
  Hf  Hf45      1.0  0.80913  0.18378  0.41035  1.0000
  Hf  Hf46      1.0  0.80583  0.18192  0.92118  1.0000
  Hf  Hf47      1.0  0.80677  0.68308  0.41488  1.0000
  Hf  Hf48      1.0  0.81110  0.69236  0.89996  1.0000
  Hf  Hf49      1.0  0.15756  0.38755  0.33484  1.0000
  Hf  Hf50      1.0  0.15966  0.38822  0.82980  1.0000
  Hf  Hf51      1.0  0.15890  0.88546  0.33156  1.0000
  Hf  Hf52      1.0  0.15755  0.88254  0.82886  1.0000
  Hf  Hf53      1.0  0.40782  0.38780  0.33058  1.0000
  Hf  Hf54      1.0  0.40878  0.38995  0.83432  1.0000
  Hf  Hf55      1.0  0.40224  0.87922  0.34676  1.0000
  Hf  Hf56      1.0  0.40664  0.89051  0.83233  1.0000
  Hf  Hf57      1.0  0.66223  0.39178  0.33603  1.0000
  Hf  Hf58      1.0  0.65463  0.38926  0.83893  1.0000
  Hf  Hf59      1.0  0.65687  0.88906  0.32965  1.0000
  Hf  Hf60      1.0  0.65813  0.89294  0.83385  1.0000
  Hf  Hf61      1.0  0.90962  0.38596  0.33397  1.0000
  Hf  Hf62      1.0  0.90997  0.38971  0.83192  1.0000
  Hf  Hf63      1.0  0.90381  0.88820  0.34620  1.0000
  Hf  Hf64      1.0  0.91208  0.89302  0.83140  1.0000
  Hf  Hf65      1.0  0.19654  0.32057  0.07692  1.0000
  Hf  Hf66      1.0  0.19575  0.32858  0.56935  1.0000
  Hf  Hf67      1.0  0.19315  0.82386  0.07659  1.0000
  Hf  Hf68      1.0  0.19197  0.81507  0.58630  1.0000
  Hf  Hf69      1.0  0.44594  0.31233  0.07976  1.0000
  Hf  Hf70      1.0  0.44458  0.32324  0.58040  1.0000
  Hf  Hf71      1.0  0.44298  0.82180  0.08163  1.0000
  Hf  Hf72      1.0  0.44378  0.80640  0.58922  1.0000
  Hf  Hf73      1.0  0.69320  0.32137  0.08305  1.0000
  Hf  Hf74      1.0  0.69745  0.31790  0.58300  1.0000
  Hf  Hf75      1.0  0.69371  0.81857  0.08415  1.0000
  Hf  Hf76      1.0  0.69242  0.82214  0.58057  1.0000
  Hf  Hf77      1.0  0.94589  0.31868  0.08218  1.0000
  Hf  Hf78      1.0  0.94380  0.32968  0.57806  1.0000
  Hf  Hf79      1.0  0.94330  0.81485  0.08967  1.0000
  Hf  Hf80      1.0  0.94260  0.81801  0.58927  1.0000
  Hf  Hf81      1.0  0.09567  0.11012  0.16251  1.0000
  Hf  Hf82      1.0  0.09570  0.10912  0.66235  1.0000
  Hf  Hf83      1.0  0.09105  0.61294  0.16517  1.0000
  Hf  Hf84      1.0  0.09204  0.60479  0.67213  1.0000
  Hf  Hf85      1.0  0.34226  0.11297  0.15913  1.0000
  Hf  Hf86      1.0  0.34493  0.10772  0.66718  1.0000
  Hf  Hf87      1.0  0.33679  0.60174  0.17895  1.0000
  Hf  Hf88      1.0  0.34218  0.61049  0.66186  1.0000
  Hf  Hf89      1.0  0.59150  0.11585  0.16690  1.0000
  Hf  Hf90      1.0  0.59656  0.11535  0.65543  1.0000
  Hf  Hf91      1.0  0.59187  0.61768  0.16819  1.0000
  Hf  Hf92      1.0  0.58737  0.61426  0.67328  1.0000
  Hf  Hf93      1.0  0.83952  0.11086  0.16685  1.0000
  Hf  Hf94      1.0  0.83862  0.11568  0.66639  1.0000
  Hf  Hf95      1.0  0.84313  0.60966  0.16807  1.0000
  Hf  Hf96      1.0  0.83548  0.61871  0.66764  1.0000
  F   F1        1.0  0.07722  0.12819  0.30594  1.0000
  F   F2        1.0  0.08360  0.12757  0.79765  1.0000
  F   F3        1.0  0.07777  0.61762  0.31389  1.0000
  F   F4        1.0  0.08047  0.61885  0.80778  1.0000
  F   F5        1.0  0.33245  0.12154  0.30259  1.0000
  F   F6        1.0  0.33099  0.13474  0.80017  1.0000
  F   F7        1.0  0.32383  0.60233  0.32014  1.0000
  F   F8        1.0  0.33026  0.63842  0.80304  1.0000
  F   F9        1.0  0.58025  0.13952  0.29897  1.0000
  F   F10       1.0  0.57921  0.13482  0.79688  1.0000
  F   F11       1.0  0.58543  0.64032  0.28909  1.0000
  F   F12       1.0  0.57611  0.63023  0.81128  1.0000
  F   F13       1.0  0.82509  0.12363  0.30095  1.0000
  F   F14       1.0  0.82651  0.13348  0.80990  1.0000
  F   F15       1.0  0.83394  0.63801  0.30395  1.0000
  F   F16       1.0  0.82174  0.63623  0.79840  1.0000
  F   F17       1.0  0.18494  0.35792  0.43551  1.0000
  F   F18       1.0  0.18078  0.33075  0.95787  1.0000
  F   F19       1.0  0.18497  0.83448  0.44056  1.0000
  F   F20       1.0  0.18678  0.85165  0.93802  1.0000
  F   F21       1.0  0.42933  0.33115  0.45316  1.0000
  F   F22       1.0  0.44261  0.34396  0.93852  1.0000
  F   F23       1.0  0.43429  0.82770  0.45299  1.0000
  F   F24       1.0  0.42798  0.82856  0.95314  1.0000
  F   F25       1.0  0.69255  0.34414  0.44409  1.0000
  F   F26       1.0  0.68404  0.34407  0.95065  1.0000
  F   F27       1.0  0.67936  0.83588  0.45058  1.0000
  F   F28       1.0  0.68174  0.85609  0.94939  1.0000
  F   F29       1.0  0.94607  0.34855  0.44126  1.0000
  F   F30       1.0  0.92959  0.32755  0.95511  1.0000
  F   F31       1.0  0.93521  0.83455  0.44478  1.0000
  F   F32       1.0  0.94116  0.83724  0.94422  1.0000
  F   F33       1.0  0.17470  0.37667  0.18935  1.0000
  F   F34       1.0  0.17523  0.36859  0.69113  1.0000
  F   F35       1.0  0.17224  0.86008  0.20111  1.0000
  F   F36       1.0  0.16960  0.86933  0.69350  1.0000
  F   F37       1.0  0.41788  0.35197  0.20220  1.0000
  F   F38       1.0  0.42147  0.37656  0.69526  1.0000
  F   F39       1.0  0.40837  0.84751  0.21800  1.0000
  F   F40       1.0  0.42718  0.88080  0.68611  1.0000
  F   F41       1.0  0.67024  0.37344  0.20832  1.0000
  F   F42       1.0  0.67808  0.37140  0.69840  1.0000
  F   F43       1.0  0.67744  0.87627  0.18834  1.0000
  F   F44       1.0  0.66895  0.87071  0.70158  1.0000
  F   F45       1.0  0.92089  0.38597  0.18650  1.0000
  F   F46       1.0  0.91733  0.40192  0.69356  1.0000
  F   F47       1.0  0.92220  0.87155  0.20346  1.0000
  F   F48       1.0  0.91663  0.87741  0.69514  1.0000
  F   F49       1.0  0.06521  0.15295  0.05446  1.0000
  F   F50       1.0  0.07333  0.16262  0.54917  1.0000
  F   F51       1.0  0.06690  0.66611  0.04178  1.0000
  F   F52       1.0  0.06461  0.65027  0.55430  1.0000
  F   F53       1.0  0.31302  0.15051  0.05562  1.0000
  F   F54       1.0  0.31212  0.14340  0.56214  1.0000
  F   F55       1.0  0.31744  0.65707  0.04737  1.0000
  F   F56       1.0  0.30101  0.64596  0.57444  1.0000
  F   F57       1.0  0.57122  0.15841  0.05236  1.0000
  F   F58       1.0  0.56170  0.16298  0.56066  1.0000
  F   F59       1.0  0.55954  0.65974  0.05806  1.0000
  F   F60       1.0  0.57481  0.65874  0.54286  1.0000
  F   F61       1.0  0.81467  0.15348  0.05885  1.0000
  F   F62       1.0  0.82338  0.18173  0.53769  1.0000
  F   F63       1.0  0.81913  0.65329  0.05422  1.0000
  F   F64       1.0  0.81343  0.66740  0.54771  1.0000
  F   F65       1.0  0.21129  0.20934  0.19098  1.0000
  F   F66       1.0  0.19812  0.20732  0.70377  1.0000
  F   F67       1.0  0.21137  0.70218  0.20111  1.0000
  F   F68       1.0  0.20722  0.69940  0.71751  1.0000
  F   F69       1.0  0.45576  0.18771  0.21449  1.0000
  F   F70       1.0  0.46057  0.19992  0.69378  1.0000
  F   F71       1.0  0.45954  0.70305  0.22612  1.0000
  F   F72       1.0  0.44275  0.70248  0.72610  1.0000
  F   F73       1.0  0.69694  0.19834  0.21302  1.0000
  F   F74       1.0  0.70184  0.20201  0.72024  1.0000
  F   F75       1.0  0.70145  0.70339  0.21662  1.0000
  F   F76       1.0  0.69674  0.69893  0.72005  1.0000
  F   F77       1.0  0.94726  0.20278  0.21422  1.0000
  F   F78       1.0  0.94142  0.21428  0.70085  1.0000
  F   F79       1.0  0.95401  0.69565  0.20923  1.0000
  F   F80       1.0  0.96540  0.69832  0.70894  1.0000
  F   F81       1.0  0.14897  0.08509  0.04741  1.0000
  F   F82       1.0  0.15447  0.08459  0.52654  1.0000
  F   F83       1.0  0.14892  0.59830  0.03731  1.0000
  F   F84       1.0  0.14969  0.60022  0.54204  1.0000
  F   F85       1.0  0.39985  0.08913  0.04533  1.0000
  F   F86       1.0  0.40346  0.08788  0.54894  1.0000
  F   F87       1.0  0.39869  0.58402  0.05596  1.0000
  F   F88       1.0  0.39163  0.57254  0.54086  1.0000
  F   F89       1.0  0.64910  0.07774  0.05272  1.0000
  F   F90       1.0  0.65406  0.10078  0.53215  1.0000
  F   F91       1.0  0.65018  0.61399  0.02923  1.0000
  F   F92       1.0  0.65079  0.60146  0.54073  1.0000
  F   F93       1.0  0.89697  0.07671  0.04613  1.0000
  F   F94       1.0  0.90164  0.08154  0.54370  1.0000
  F   F95       1.0  0.89768  0.58395  0.03755  1.0000
  F   F96       1.0  0.89825  0.62232  0.54894  1.0000
  F   F97       1.0  0.15011  0.18587  0.13375  1.0000
  F   F98       1.0  0.14876  0.19794  0.60883  1.0000
  F   F99       1.0  0.14610  0.70654  0.13425  1.0000
  F   F100      1.0  0.15260  0.70046  0.63000  1.0000
  F   F101      1.0  0.40037  0.20258  0.12799  1.0000
  F   F102      1.0  0.40363  0.19911  0.62281  1.0000
  F   F103      1.0  0.39769  0.70320  0.14306  1.0000
  F   F104      1.0  0.40923  0.67845  0.61566  1.0000
  F   F105      1.0  0.65249  0.18174  0.13229  1.0000
  F   F106      1.0  0.65819  0.19749  0.62398  1.0000
  F   F107      1.0  0.65427  0.70710  0.11295  1.0000
  F   F108      1.0  0.64833  0.70678  0.62906  1.0000
  F   F109      1.0  0.90368  0.19559  0.10846  1.0000
  F   F110      1.0  0.89326  0.20039  0.60834  1.0000
  F   F111      1.0  0.90421  0.69623  0.12432  1.0000
  F   F112      1.0  0.89772  0.71566  0.64866  1.0000
  F   F113      1.0  0.10075  0.29431  0.37325  1.0000
  F   F114      1.0  0.09976  0.30248  0.86305  1.0000
  F   F115      1.0  0.10372  0.79178  0.36976  1.0000
  F   F116      1.0  0.09794  0.80798  0.86468  1.0000
  F   F117      1.0  0.34230  0.30370  0.38424  1.0000
  F   F118      1.0  0.34681  0.29274  0.88390  1.0000
  F   F119      1.0  0.34012  0.79770  0.39373  1.0000
  F   F120      1.0  0.34996  0.79712  0.87250  1.0000
  F   F121      1.0  0.59860  0.31115  0.37339  1.0000
  F   F122      1.0  0.59912  0.29898  0.86961  1.0000
  F   F123      1.0  0.60366  0.79182  0.36655  1.0000
  F   F124      1.0  0.59669  0.82006  0.87880  1.0000
  F   F125      1.0  0.85488  0.31321  0.35637  1.0000
  F   F126      1.0  0.85343  0.30193  0.87527  1.0000
  F   F127      1.0  0.85140  0.80712  0.37263  1.0000
  F   F128      1.0  0.85246  0.79628  0.87714  1.0000
  F   F129      1.0  0.06811  0.24423  0.14249  1.0000
  F   F130      1.0  0.06111  0.25000  0.65111  1.0000
  F   F131      1.0  0.05636  0.73863  0.15577  1.0000
  F   F132      1.0  0.07203  0.74080  0.63401  1.0000
  F   F133      1.0  0.31550  0.24696  0.14010  1.0000
  F   F134      1.0  0.31261  0.26014  0.62579  1.0000
  F   F135      1.0  0.31619  0.74991  0.13288  1.0000
  F   F136      1.0  0.31346  0.75519  0.62799  1.0000
  F   F137      1.0  0.55802  0.24168  0.15913  1.0000
  F   F138      1.0  0.57359  0.25221  0.63005  1.0000
  F   F139      1.0  0.56183  0.76263  0.13806  1.0000
  F   F140      1.0  0.56621  0.74873  0.64206  1.0000
  F   F141      1.0  0.81417  0.25343  0.14520  1.0000
  F   F142      1.0  0.80729  0.25203  0.67553  1.0000
  F   F143      1.0  0.81281  0.75172  0.14402  1.0000
  F   F144      1.0  0.82274  0.77045  0.61393  1.0000
  F   F145      1.0  0.12667  0.35530  0.11254  1.0000
  F   F146      1.0  0.12711  0.36068  0.61370  1.0000
  F   F147      1.0  0.12323  0.87606  0.10342  1.0000
  F   F148      1.0  0.12438  0.87136  0.60621  1.0000
  F   F149      1.0  0.38010  0.38805  0.08705  1.0000
  F   F150      1.0  0.37487  0.37113  0.62119  1.0000
  F   F151      1.0  0.37133  0.87967  0.10650  1.0000
  F   F152      1.0  0.37264  0.84175  0.62396  1.0000
  F   F153      1.0  0.62048  0.36198  0.12253  1.0000
  F   F154      1.0  0.62543  0.36899  0.61328  1.0000
  F   F155      1.0  0.62257  0.86866  0.11565  1.0000
  F   F156      1.0  0.62499  0.87714  0.60051  1.0000
  F   F157      1.0  0.87770  0.37331  0.09582  1.0000
  F   F158      1.0  0.87298  0.38088  0.60883  1.0000
  F   F159      1.0  0.87560  0.85543  0.13098  1.0000
  F   F160      1.0  0.87823  0.89439  0.57676  1.0000
  F   F161      1.0  0.17900  0.24934  0.36441  1.0000
  F   F162      1.0  0.18502  0.24853  0.85832  1.0000
  F   F163      1.0  0.18800  0.74445  0.36029  1.0000
  F   F164      1.0  0.18291  0.74937  0.85355  1.0000
  F   F165      1.0  0.43987  0.24612  0.36014  1.0000
  F   F166      1.0  0.43165  0.24806  0.86862  1.0000
  F   F167      1.0  0.41803  0.72134  0.40044  1.0000
  F   F168      1.0  0.43349  0.74503  0.86397  1.0000
  F   F169      1.0  0.68880  0.25578  0.35651  1.0000
  F   F170      1.0  0.68272  0.25588  0.87077  1.0000
  F   F171      1.0  0.68766  0.75035  0.34717  1.0000
  F   F172      1.0  0.69540  0.76062  0.84172  1.0000
  F   F173      1.0  0.93353  0.24898  0.36522  1.0000
  F   F174      1.0  0.94626  0.25493  0.84012  1.0000
  F   F175      1.0  0.94121  0.75089  0.34807  1.0000
  F   F176      1.0  0.93460  0.74609  0.86268  1.0000
  F   F177      1.0  0.12594  0.12677  0.38990  1.0000
  F   F178      1.0  0.12619  0.12246  0.90508  1.0000
  F   F179      1.0  0.12895  0.62604  0.38301  1.0000
  F   F180      1.0  0.12193  0.64442  0.88063  1.0000
  F   F181      1.0  0.37743  0.12416  0.39034  1.0000
  F   F182      1.0  0.38272  0.13190  0.87624  1.0000
  F   F183      1.0  0.37119  0.61945  0.39766  1.0000
  F   F184      1.0  0.37491  0.60730  0.90780  1.0000
  F   F185      1.0  0.62383  0.12790  0.40245  1.0000
  F   F186      1.0  0.62314  0.12317  0.90556  1.0000
  F   F187      1.0  0.62865  0.60521  0.39859  1.0000
  F   F188      1.0  0.62467  0.64809  0.89351  1.0000
  F   F189      1.0  0.87428  0.12876  0.39080  1.0000
  F   F190      1.0  0.87836  0.13748  0.88867  1.0000
  F   F191      1.0  0.87724  0.62062  0.41788  1.0000
  F   F192      1.0  0.88391  0.64450  0.85516  1.0000
  F   F193      1.0  0.00948  0.34442  0.09425  1.0000
  F   F194      1.0  0.00721  0.36781  0.57161  1.0000
  F   F195      1.0  0.00477  0.86207  0.07115  1.0000
  F   F196      1.0  0.00923  0.85922  0.58114  1.0000
  F   F197      1.0  0.26066  0.38132  0.05269  1.0000
  F   F198      1.0  0.25883  0.36592  0.55430  1.0000
  F   F199      1.0  0.25640  0.87658  0.06510  1.0000
  F   F200      1.0  0.25476  0.86213  0.57610  1.0000
  F   F201      1.0  0.50791  0.34727  0.08072  1.0000
  F   F202      1.0  0.51315  0.36907  0.57143  1.0000
  F   F203      1.0  0.49499  0.88246  0.07837  1.0000
  F   F204      1.0  0.50937  0.85930  0.56462  1.0000
  F   F205      1.0  0.75564  0.37547  0.06689  1.0000
  F   F206      1.0  0.75933  0.36562  0.57715  1.0000
  F   F207      1.0  0.76393  0.86441  0.06676  1.0000
  F   F208      1.0  0.75506  0.87094  0.57713  1.0000
  F   F209      1.0  0.07468  0.48391  0.16349  1.0000
  F   F210      1.0  0.07973  0.47798  0.67118  1.0000
  F   F211      1.0  0.06502  0.98136  0.18187  1.0000
  F   F212      1.0  0.06919  0.98817  0.66906  1.0000
  F   F213      1.0  0.31750  0.47345  0.18464  1.0000
  F   F214      1.0  0.31605  0.47944  0.69159  1.0000
  F   F215      1.0  0.31532  0.98277  0.17909  1.0000
  F   F216      1.0  0.32657  0.97680  0.66483  1.0000
  F   F217      1.0  0.57246  0.49081  0.16302  1.0000
  F   F218      1.0  0.57002  0.49166  0.67532  1.0000
  F   F219      1.0  0.56378  0.98585  0.17378  1.0000
  F   F220      1.0  0.57393  0.98119  0.67403  1.0000
  F   F221      1.0  0.81347  0.47677  0.19625  1.0000
  F   F222      1.0  0.81684  0.49938  0.67031  1.0000
  F   F223      1.0  0.82070  0.97635  0.18739  1.0000
  F   F224      1.0  0.81720  0.99140  0.66829  1.0000
  F   F225      1.0  0.23925  0.14046  0.42186  1.0000
  F   F226      1.0  0.23727  0.13684  0.92569  1.0000
  F   F227      1.0  0.24718  0.62793  0.42178  1.0000
  F   F228      1.0  0.24187  0.64474  0.92084  1.0000
  F   F229      1.0  0.49343  0.12682  0.43571  1.0000
  F   F230      1.0  0.49245  0.14420  0.91554  1.0000
  F   F231      1.0  0.49560  0.62794  0.42340  1.0000
  F   F232      1.0  0.48868  0.63932  0.94045  1.0000
  F   F233      1.0  0.74065  0.13138  0.43130  1.0000
  F   F234      1.0  0.74248  0.14200  0.92629  1.0000
  F   F235      1.0  0.74264  0.64150  0.43412  1.0000
  F   F236      1.0  0.74046  0.63835  0.93416  1.0000
  F   F237      1.0  0.99492  0.13322  0.43376  1.0000
  F   F238      1.0  0.99346  0.12533  0.94506  1.0000
  F   F239      1.0  0.99357  0.63224  0.43169  1.0000
  F   F240      1.0  0.98988  0.61956  0.93690  1.0000
  F   F241      1.0  0.17927  0.02096  0.30700  1.0000
  F   F242      1.0  0.18428  0.02053  0.80971  1.0000
  F   F243      1.0  0.17983  0.50732  0.32347  1.0000
  F   F244      1.0  0.17772  0.50749  0.84660  1.0000
  F   F245      1.0  0.42679  0.00241  0.33994  1.0000
  F   F246      1.0  0.43630  0.01379  0.80712  1.0000
  F   F247      1.0  0.42976  0.52823  0.31280  1.0000
  F   F248      1.0  0.43493  0.51980  0.81153  1.0000
  F   F249      1.0  0.67776  0.01525  0.32170  1.0000
  F   F250      1.0  0.67753  0.02303  0.83945  1.0000
  F   F251      1.0  0.69030  0.51804  0.30762  1.0000
  F   F252      1.0  0.66910  0.52258  0.83450  1.0000
  F   F253      1.0  0.92540  0.02292  0.33441  1.0000
  F   F254      1.0  0.92904  0.02602  0.81295  1.0000
  F   F255      1.0  0.92192  0.51602  0.33008  1.0000
  F   F256      1.0  0.93307  0.51090  0.82744  1.0000
  F   F257      1.0  0.00095  0.24664  0.99940  1.0000
  F   F258      1.0  0.00581  0.23564  0.50466  1.0000
  F   F259      1.0  0.99805  0.74295  0.00373  1.0000
  F   F260      1.0  0.99920  0.75974  0.50468  1.0000
  F   F261      1.0  0.24850  0.24733  0.99003  1.0000
  F   F262      1.0  0.24534  0.23112  0.50540  1.0000
  F   F263      1.0  0.25048  0.75697  0.99903  1.0000
  F   F264      1.0  0.24464  0.73711  0.51387  1.0000
  F   F265      1.0  0.49841  0.23902  0.00414  1.0000
  F   F266      1.0  0.50137  0.26891  0.47885  1.0000
  F   F267      1.0  0.49783  0.74686  0.01603  1.0000
  F   F268      1.0  0.50725  0.75157  0.50086  1.0000
  F   F269      1.0  0.75203  0.24815  0.00820  1.0000
  F   F270      1.0  0.75000  0.23285  0.52276  1.0000
  F   F271      1.0  0.75255  0.74655  0.00970  1.0000
  F   F272      1.0  0.75271  0.77135  0.48624  1.0000
  F   F273      1.0  0.12467  0.99177  0.24819  1.0000
  F   F274      1.0  0.12408  0.98838  0.74513  1.0000
  F   F275      1.0  0.12564  0.49789  0.25022  1.0000
  F   F276      1.0  0.13171  0.50347  0.74398  1.0000
  F   F277      1.0  0.38285  0.00260  0.23821  1.0000
  F   F278      1.0  0.37233  0.99870  0.75760  1.0000
  F   F279      1.0  0.37057  0.48612  0.25624  1.0000
  F   F280      1.0  0.37391  0.50610  0.75160  1.0000
  F   F281      1.0  0.61671  0.99107  0.26272  1.0000
  F   F282      1.0  0.62910  0.00890  0.75773  1.0000
  F   F283      1.0  0.62307  0.50679  0.25200  1.0000
  F   F284      1.0  0.62033  0.49475  0.75448  1.0000
  F   F285      1.0  0.87848  0.01006  0.24187  1.0000
  F   F286      1.0  0.86905  0.99998  0.76399  1.0000
  F   F287      1.0  0.87223  0.49823  0.25296  1.0000
  F   F288      1.0  0.86611  0.50570  0.76222  1.0000
  F   F289      1.0  0.04676  0.01914  0.02003  1.0000
  F   F290      1.0  0.04345  0.02132  0.52918  1.0000
  F   F291      1.0  0.04652  0.52590  0.01023  1.0000
  F   F292      1.0  0.04544  0.52483  0.53164  1.0000
  F   F293      1.0  0.30333  0.03269  0.00944  1.0000
  F   F294      1.0  0.29043  0.02337  0.51811  1.0000
  F   F295      1.0  0.28879  0.53370  0.04150  1.0000
  F   F296      1.0  0.29457  0.52369  0.52949  1.0000
  F   F297      1.0  0.53068  0.04056  0.03114  1.0000
  F   F298      1.0  0.54651  0.03654  0.51887  1.0000
  F   F299      1.0  0.54962  0.53395  0.01208  1.0000
  F   F300      1.0  0.53789  0.52414  0.52771  1.0000
  F   F301      1.0  0.78889  0.03384  0.02762  1.0000
  F   F302      1.0  0.78642  0.03885  0.52521  1.0000
  F   F303      1.0  0.80197  0.53058  0.02431  1.0000
  F   F304      1.0  0.80123  0.53173  0.50641  1.0000
  F   F305      1.0  0.23570  0.39847  0.22763  1.0000
  F   F306      1.0  0.23259  0.40842  0.73180  1.0000
  F   F307      1.0  0.23576  0.91360  0.22457  1.0000
  F   F308      1.0  0.23177  0.91697  0.71859  1.0000
  F   F309      1.0  0.48154  0.42588  0.20821  1.0000
  F   F310      1.0  0.48199  0.41047  0.73838  1.0000
  F   F311      1.0  0.47661  0.89967  0.23897  1.0000
  F   F312      1.0  0.49145  0.89741  0.73463  1.0000
  F   F313      1.0  0.73972  0.40937  0.22231  1.0000
  F   F314      1.0  0.73586  0.43352  0.73003  1.0000
  F   F315      1.0  0.73467  0.91028  0.23467  1.0000
  F   F316      1.0  0.73216  0.93250  0.73071  1.0000
  F   F317      1.0  0.98742  0.39985  0.23435  1.0000
  F   F318      1.0  0.98581  0.41670  0.71852  1.0000
  F   F319      1.0  0.98703  0.90815  0.23449  1.0000
  F   F320      1.0  0.98315  0.91733  0.73163  1.0000
  F   F321      1.0  0.20034  0.47471  0.48360  1.0000
  F   F322      1.0  0.20113  0.47244  0.98724  1.0000
  F   F323      1.0  0.20646  0.95549  0.45979  1.0000
  F   F324      1.0  0.20568  0.97328  0.96884  1.0000
  F   F325      1.0  0.45785  0.45756  0.47797  1.0000
  F   F326      1.0  0.46313  0.46717  0.97645  1.0000
  F   F327      1.0  0.45609  0.96232  0.48339  1.0000
  F   F328      1.0  0.44493  0.97653  0.97410  1.0000
  F   F329      1.0  0.70591  0.47075  0.47606  1.0000
  F   F330      1.0  0.70287  0.47981  0.98221  1.0000
  F   F331      1.0  0.70554  0.97049  0.46356  1.0000
  F   F332      1.0  0.71253  0.97021  0.98106  1.0000
  F   F333      1.0  0.95238  0.48406  0.47569  1.0000
  F   F334      1.0  0.96944  0.45576  0.96612  1.0000
  F   F335      1.0  0.96790  0.96933  0.45742  1.0000
  F   F336      1.0  0.95496  0.96627  0.97237  1.0000
  F   F337      1.0  0.01402  0.09463  0.26132  1.0000
  F   F338      1.0  0.01577  0.10338  0.76515  1.0000
  F   F339      1.0  0.02056  0.57510  0.26223  1.0000
  F   F340      1.0  0.02010  0.56978  0.77237  1.0000
  F   F341      1.0  0.26498  0.08981  0.27098  1.0000
  F   F342      1.0  0.27233  0.07926  0.76914  1.0000
  F   F343      1.0  0.26214  0.57881  0.26550  1.0000
  F   F344      1.0  0.26581  0.58178  0.78402  1.0000
  F   F345      1.0  0.51159  0.07259  0.28793  1.0000
  F   F346      1.0  0.51770  0.08021  0.77405  1.0000
  F   F347      1.0  0.51808  0.58065  0.26640  1.0000
  F   F348      1.0  0.51172  0.58958  0.77827  1.0000
  F   F349      1.0  0.75855  0.08728  0.25960  1.0000
  F   F350      1.0  0.76396  0.07963  0.77097  1.0000
  F   F351      1.0  0.76976  0.59080  0.28897  1.0000
  F   F352      1.0  0.76082  0.58103  0.78173  1.0000
  F   F353      1.0  0.10088  0.39675  0.46747  1.0000
  F   F354      1.0  0.10044  0.40076  0.96343  1.0000
  F   F355      1.0  0.09776  0.91064  0.45552  1.0000
  F   F356      1.0  0.09577  0.89854  0.96372  1.0000
  F   F357      1.0  0.35574  0.41201  0.45246  1.0000
  F   F358      1.0  0.35146  0.38669  0.96801  1.0000
  F   F359      1.0  0.34729  0.90665  0.47036  1.0000
  F   F360      1.0  0.34918  0.89829  0.96140  1.0000
  F   F361      1.0  0.60455  0.40955  0.46533  1.0000
  F   F362      1.0  0.59512  0.39880  0.96862  1.0000
  F   F363      1.0  0.59764  0.89230  0.46459  1.0000
  F   F364      1.0  0.59465  0.91594  0.97334  1.0000
  F   F365      1.0  0.85678  0.39012  0.47081  1.0000
  F   F366      1.0  0.85578  0.41508  0.95367  1.0000
  F   F367      1.0  0.84351  0.91933  0.45187  1.0000
  F   F368      1.0  0.86019  0.90663  0.97114  1.0000
  F   F369      1.0  0.05275  0.30412  0.28340  1.0000
  F   F370      1.0  0.04263  0.29812  0.79619  1.0000
  F   F371      1.0  0.05755  0.78948  0.28264  1.0000
  F   F372      1.0  0.04290  0.79859  0.78498  1.0000
  F   F373      1.0  0.30222  0.30168  0.27781  1.0000
  F   F374      1.0  0.29676  0.29487  0.78074  1.0000
  F   F375      1.0  0.29116  0.78290  0.28833  1.0000
  F   F376      1.0  0.29363  0.79558  0.79581  1.0000
  F   F377      1.0  0.54174  0.30396  0.29180  1.0000
  F   F378      1.0  0.54444  0.29796  0.79173  1.0000
  F   F379      1.0  0.53776  0.79549  0.29866  1.0000
  F   F380      1.0  0.55074  0.79642  0.78516  1.0000
  F   F381      1.0  0.79843  0.30008  0.29732  1.0000
  F   F382      1.0  0.79520  0.30703  0.80105  1.0000
  F   F383      1.0  0.79155  0.79704  0.30025  1.0000
  F   F384      1.0  0.79528  0.80918  0.78298  1.0000
