data_image0
_chemical_formula_structural       Hf96F384
_chemical_formula_sum              "Hf96 F384"
_cell_length_a       31.0174
_cell_length_b       15.5104
_cell_length_c       15.5019
_cell_angle_alpha    63.342
_cell_angle_beta     63.342
_cell_angle_gamma    80.1625

_space_group_name_H-M_alt    "P 1"
_space_group_IT_number       1

loop_
  _space_group_symop_operation_xyz
  'x, y, z'

loop_
  _atom_site_type_symbol
  _atom_site_label
  _atom_site_symmetry_multiplicity
  _atom_site_fract_x
  _atom_site_fract_y
  _atom_site_fract_z
  _atom_site_occupancy
  Hf  Hf1       1.0  0.19720  0.09799  0.37671  1.0000
  Hf  Hf2       1.0  0.19497  0.10885  0.87352  1.0000
  Hf  Hf3       1.0  0.19723  0.60224  0.37361  1.0000
  Hf  Hf4       1.0  0.19783  0.60288  0.87189  1.0000
  Hf  Hf5       1.0  0.44464  0.11376  0.37270  1.0000
  Hf  Hf6       1.0  0.44655  0.11031  0.86728  1.0000
  Hf  Hf7       1.0  0.44532  0.61892  0.37145  1.0000
  Hf  Hf8       1.0  0.44445  0.61239  0.87115  1.0000
  Hf  Hf9       1.0  0.69561  0.10455  0.38309  1.0000
  Hf  Hf10      1.0  0.69576  0.10643  0.87651  1.0000
  Hf  Hf11      1.0  0.69713  0.60319  0.38023  1.0000
  Hf  Hf12      1.0  0.69565  0.60873  0.87399  1.0000
  Hf  Hf13      1.0  0.94480  0.10355  0.37907  1.0000
  Hf  Hf14      1.0  0.94227  0.10956  0.87309  1.0000
  Hf  Hf15      1.0  0.94672  0.60801  0.37860  1.0000
  Hf  Hf16      1.0  0.94637  0.60173  0.87849  1.0000
  Hf  Hf17      1.0  0.05552  0.39139  0.13022  1.0000
  Hf  Hf18      1.0  0.05155  0.39287  0.62742  1.0000
  Hf  Hf19      1.0  0.05476  0.88832  0.12842  1.0000
  Hf  Hf20      1.0  0.05338  0.89127  0.62807  1.0000
  Hf  Hf21      1.0  0.30626  0.39527  0.12576  1.0000
  Hf  Hf22      1.0  0.30549  0.39573  0.61771  1.0000
  Hf  Hf23      1.0  0.30290  0.89121  0.12841  1.0000
  Hf  Hf24      1.0  0.30347  0.89246  0.62250  1.0000
  Hf  Hf25      1.0  0.55638  0.39689  0.11891  1.0000
  Hf  Hf26      1.0  0.55437  0.38504  0.63276  1.0000
  Hf  Hf27      1.0  0.55391  0.89818  0.11718  1.0000
  Hf  Hf28      1.0  0.55443  0.89625  0.62267  1.0000
  Hf  Hf29      1.0  0.80488  0.39045  0.12665  1.0000
  Hf  Hf30      1.0  0.80133  0.38895  0.63630  1.0000
  Hf  Hf31      1.0  0.80486  0.88992  0.12596  1.0000
  Hf  Hf32      1.0  0.80339  0.88726  0.63082  1.0000
  Hf  Hf33      1.0  0.05571  0.17831  0.42460  1.0000
  Hf  Hf34      1.0  0.05455  0.18234  0.91358  1.0000
  Hf  Hf35      1.0  0.05446  0.68398  0.42019  1.0000
  Hf  Hf36      1.0  0.05584  0.67725  0.92246  1.0000
  Hf  Hf37      1.0  0.30554  0.18230  0.41573  1.0000
  Hf  Hf38      1.0  0.30656  0.18155  0.91423  1.0000
  Hf  Hf39      1.0  0.30790  0.69155  0.41269  1.0000
  Hf  Hf40      1.0  0.30287  0.67688  0.91864  1.0000
  Hf  Hf41      1.0  0.55476  0.18653  0.40702  1.0000
  Hf  Hf42      1.0  0.55490  0.18200  0.91644  1.0000
  Hf  Hf43      1.0  0.56025  0.67833  0.41527  1.0000
  Hf  Hf44      1.0  0.55623  0.68873  0.91079  1.0000
  Hf  Hf45      1.0  0.80943  0.18080  0.41870  1.0000
  Hf  Hf46      1.0  0.80672  0.17879  0.92254  1.0000
  Hf  Hf47      1.0  0.80445  0.68231  0.41859  1.0000
  Hf  Hf48      1.0  0.80705  0.68165  0.91222  1.0000
  Hf  Hf49      1.0  0.15837  0.38193  0.33796  1.0000
  Hf  Hf50      1.0  0.15495  0.38352  0.83729  1.0000
  Hf  Hf51      1.0  0.15711  0.88333  0.33578  1.0000
  Hf  Hf52      1.0  0.15631  0.88141  0.83898  1.0000
  Hf  Hf53      1.0  0.41056  0.39331  0.32814  1.0000
  Hf  Hf54      1.0  0.41130  0.39322  0.82740  1.0000
  Hf  Hf55      1.0  0.41007  0.89927  0.32648  1.0000
  Hf  Hf56      1.0  0.41087  0.89162  0.82900  1.0000
  Hf  Hf57      1.0  0.65887  0.38739  0.33675  1.0000
  Hf  Hf58      1.0  0.65734  0.38620  0.83561  1.0000
  Hf  Hf59      1.0  0.65712  0.88723  0.33349  1.0000
  Hf  Hf60      1.0  0.65900  0.89392  0.82985  1.0000
  Hf  Hf61      1.0  0.90864  0.39276  0.33609  1.0000
  Hf  Hf62      1.0  0.91251  0.38875  0.82703  1.0000
  Hf  Hf63      1.0  0.90597  0.88608  0.34023  1.0000
  Hf  Hf64      1.0  0.90873  0.88821  0.83109  1.0000
  Hf  Hf65      1.0  0.19345  0.31276  0.08742  1.0000
  Hf  Hf66      1.0  0.19482  0.31993  0.57675  1.0000
  Hf  Hf67      1.0  0.19352  0.81562  0.08548  1.0000
  Hf  Hf68      1.0  0.19531  0.81037  0.58336  1.0000
  Hf  Hf69      1.0  0.44532  0.31847  0.07922  1.0000
  Hf  Hf70      1.0  0.44768  0.32547  0.57587  1.0000
  Hf  Hf71      1.0  0.44382  0.82233  0.07873  1.0000
  Hf  Hf72      1.0  0.44638  0.82650  0.57462  1.0000
  Hf  Hf73      1.0  0.69409  0.31644  0.08844  1.0000
  Hf  Hf74      1.0  0.69609  0.31306  0.58508  1.0000
  Hf  Hf75      1.0  0.69367  0.82381  0.07885  1.0000
  Hf  Hf76      1.0  0.69161  0.81566  0.58594  1.0000
  Hf  Hf77      1.0  0.94583  0.31966  0.08736  1.0000
  Hf  Hf78      1.0  0.94693  0.32270  0.57661  1.0000
  Hf  Hf79      1.0  0.94188  0.82154  0.08216  1.0000
  Hf  Hf80      1.0  0.94243  0.81447  0.58824  1.0000
  Hf  Hf81      1.0  0.08791  0.10936  0.17206  1.0000
  Hf  Hf82      1.0  0.09339  0.10826  0.66376  1.0000
  Hf  Hf83      1.0  0.09553  0.61231  0.16469  1.0000
  Hf  Hf84      1.0  0.08934  0.60642  0.67316  1.0000
  Hf  Hf85      1.0  0.34152  0.11644  0.16416  1.0000
  Hf  Hf86      1.0  0.33851  0.11600  0.66515  1.0000
  Hf  Hf87      1.0  0.34161  0.61630  0.16334  1.0000
  Hf  Hf88      1.0  0.34268  0.61660  0.66083  1.0000
  Hf  Hf89      1.0  0.59169  0.11703  0.16377  1.0000
  Hf  Hf90      1.0  0.59072  0.11073  0.66426  1.0000
  Hf  Hf91      1.0  0.58988  0.61412  0.16563  1.0000
  Hf  Hf92      1.0  0.58998  0.60714  0.67029  1.0000
  Hf  Hf93      1.0  0.84085  0.10664  0.16888  1.0000
  Hf  Hf94      1.0  0.84198  0.10964  0.66719  1.0000
  Hf  Hf95      1.0  0.83977  0.61059  0.16614  1.0000
  Hf  Hf96      1.0  0.83970  0.61033  0.66698  1.0000
  F   F1        1.0  0.07892  0.12326  0.30934  1.0000
  F   F2        1.0  0.07755  0.12746  0.80189  1.0000
  F   F3        1.0  0.08109  0.62098  0.30350  1.0000
  F   F4        1.0  0.07514  0.63144  0.80742  1.0000
  F   F5        1.0  0.32653  0.11968  0.30530  1.0000
  F   F6        1.0  0.32606  0.12835  0.80310  1.0000
  F   F7        1.0  0.32305  0.62402  0.31171  1.0000
  F   F8        1.0  0.32571  0.62813  0.80755  1.0000
  F   F9        1.0  0.58807  0.15508  0.28262  1.0000
  F   F10       1.0  0.58223  0.13976  0.79387  1.0000
  F   F11       1.0  0.57863  0.63857  0.29361  1.0000
  F   F12       1.0  0.57315  0.60699  0.82049  1.0000
  F   F13       1.0  0.83095  0.12265  0.31593  1.0000
  F   F14       1.0  0.83169  0.14270  0.79810  1.0000
  F   F15       1.0  0.82787  0.62676  0.30863  1.0000
  F   F16       1.0  0.83326  0.62249  0.81218  1.0000
  F   F17       1.0  0.18612  0.33463  0.44067  1.0000
  F   F18       1.0  0.17676  0.33173  0.95189  1.0000
  F   F19       1.0  0.18707  0.83428  0.44513  1.0000
  F   F20       1.0  0.18580  0.84005  0.94689  1.0000
  F   F21       1.0  0.44367  0.35284  0.43601  1.0000
  F   F22       1.0  0.44013  0.33258  0.94401  1.0000
  F   F23       1.0  0.42719  0.84937  0.45378  1.0000
  F   F24       1.0  0.44676  0.84731  0.93307  1.0000
  F   F25       1.0  0.69145  0.35205  0.44167  1.0000
  F   F26       1.0  0.68724  0.33843  0.93825  1.0000
  F   F27       1.0  0.67505  0.83319  0.45919  1.0000
  F   F28       1.0  0.68664  0.85714  0.93976  1.0000
  F   F29       1.0  0.93770  0.35617  0.43805  1.0000
  F   F30       1.0  0.93293  0.33455  0.95526  1.0000
  F   F31       1.0  0.93006  0.83466  0.46178  1.0000
  F   F32       1.0  0.93398  0.83923  0.94873  1.0000
  F   F33       1.0  0.16579  0.35751  0.21178  1.0000
  F   F34       1.0  0.17148  0.39186  0.68775  1.0000
  F   F35       1.0  0.17045  0.87255  0.19761  1.0000
  F   F36       1.0  0.17174  0.88697  0.68322  1.0000
  F   F37       1.0  0.41641  0.36241  0.20368  1.0000
  F   F38       1.0  0.41959  0.38598  0.69103  1.0000
  F   F39       1.0  0.42224  0.87168  0.19419  1.0000
  F   F40       1.0  0.42018  0.87260  0.69663  1.0000
  F   F41       1.0  0.66722  0.37274  0.20495  1.0000
  F   F42       1.0  0.66874  0.35450  0.70964  1.0000
  F   F43       1.0  0.67061  0.88538  0.18896  1.0000
  F   F44       1.0  0.67441  0.87473  0.68642  1.0000
  F   F45       1.0  0.92252  0.37900  0.19489  1.0000
  F   F46       1.0  0.92437  0.37535  0.69557  1.0000
  F   F47       1.0  0.91777  0.85933  0.20635  1.0000
  F   F48       1.0  0.92576  0.90456  0.68215  1.0000
  F   F49       1.0  0.06352  0.15435  0.05050  1.0000
  F   F50       1.0  0.06178  0.14496  0.56402  1.0000
  F   F51       1.0  0.06885  0.65420  0.05583  1.0000
  F   F52       1.0  0.06240  0.65847  0.55952  1.0000
  F   F53       1.0  0.31223  0.16580  0.04816  1.0000
  F   F54       1.0  0.31599  0.15204  0.55518  1.0000
  F   F55       1.0  0.30932  0.65116  0.05941  1.0000
  F   F56       1.0  0.31910  0.65417  0.54783  1.0000
  F   F57       1.0  0.55781  0.14829  0.06658  1.0000
  F   F58       1.0  0.56898  0.16897  0.54394  1.0000
  F   F59       1.0  0.56268  0.66956  0.05234  1.0000
  F   F60       1.0  0.55692  0.64520  0.56232  1.0000
  F   F61       1.0  0.81516  0.15743  0.05691  1.0000
  F   F62       1.0  0.81321  0.16097  0.55967  1.0000
  F   F63       1.0  0.81107  0.66088  0.05663  1.0000
  F   F64       1.0  0.81189  0.66035  0.56300  1.0000
  F   F65       1.0  0.19379  0.19551  0.21017  1.0000
  F   F66       1.0  0.20026  0.20931  0.69873  1.0000
  F   F67       1.0  0.20627  0.70469  0.20252  1.0000
  F   F68       1.0  0.20633  0.69766  0.70755  1.0000
  F   F69       1.0  0.45683  0.19830  0.21089  1.0000
  F   F70       1.0  0.44810  0.20314  0.70329  1.0000
  F   F71       1.0  0.45277  0.70502  0.22157  1.0000
  F   F72       1.0  0.45752  0.71026  0.71205  1.0000
  F   F73       1.0  0.70881  0.20125  0.21200  1.0000
  F   F74       1.0  0.71014  0.19629  0.69833  1.0000
  F   F75       1.0  0.70416  0.70832  0.19746  1.0000
  F   F76       1.0  0.71521  0.71317  0.70356  1.0000
  F   F77       1.0  0.95736  0.19777  0.22050  1.0000
  F   F78       1.0  0.94501  0.20226  0.71536  1.0000
  F   F79       1.0  0.95059  0.70729  0.22797  1.0000
  F   F80       1.0  0.95451  0.70342  0.70621  1.0000
  F   F81       1.0  0.14645  0.10864  0.03516  1.0000
  F   F82       1.0  0.14850  0.08500  0.52979  1.0000
  F   F83       1.0  0.15646  0.59387  0.02546  1.0000
  F   F84       1.0  0.14874  0.57991  0.53694  1.0000
  F   F85       1.0  0.39779  0.11659  0.03226  1.0000
  F   F86       1.0  0.40100  0.09013  0.52339  1.0000
  F   F87       1.0  0.39657  0.60158  0.04214  1.0000
  F   F88       1.0  0.40187  0.59663  0.53455  1.0000
  F   F89       1.0  0.64711  0.09674  0.02928  1.0000
  F   F90       1.0  0.65270  0.09167  0.53425  1.0000
  F   F91       1.0  0.64187  0.58953  0.04354  1.0000
  F   F92       1.0  0.64370  0.60032  0.53442  1.0000
  F   F93       1.0  0.89797  0.09650  0.04364  1.0000
  F   F94       1.0  0.90352  0.09004  0.53908  1.0000
  F   F95       1.0  0.89470  0.58214  0.04338  1.0000
  F   F96       1.0  0.89860  0.57489  0.54609  1.0000
  F   F97       1.0  0.14853  0.19469  0.13106  1.0000
  F   F98       1.0  0.15793  0.18490  0.61249  1.0000
  F   F99       1.0  0.15479  0.69552  0.11725  1.0000
  F   F100      1.0  0.15171  0.69056  0.62875  1.0000
  F   F101      1.0  0.40450  0.19587  0.13867  1.0000
  F   F102      1.0  0.39806  0.20001  0.60756  1.0000
  F   F103      1.0  0.40117  0.69628  0.12923  1.0000
  F   F104      1.0  0.40113  0.70136  0.62114  1.0000
  F   F105      1.0  0.65612  0.19540  0.12004  1.0000
  F   F106      1.0  0.64691  0.19817  0.62777  1.0000
  F   F107      1.0  0.64911  0.70166  0.11948  1.0000
  F   F108      1.0  0.64829  0.70070  0.63774  1.0000
  F   F109      1.0  0.90206  0.18948  0.14290  1.0000
  F   F110      1.0  0.90374  0.19842  0.60638  1.0000
  F   F111      1.0  0.90189  0.69997  0.12163  1.0000
  F   F112      1.0  0.90278  0.67833  0.63020  1.0000
  F   F113      1.0  0.09973  0.28619  0.39338  1.0000
  F   F114      1.0  0.09988  0.30197  0.88075  1.0000
  F   F115      1.0  0.10025  0.80379  0.37363  1.0000
  F   F116      1.0  0.09242  0.79908  0.87963  1.0000
  F   F117      1.0  0.34933  0.29020  0.37900  1.0000
  F   F118      1.0  0.35312  0.29925  0.88100  1.0000
  F   F119      1.0  0.34680  0.81504  0.37920  1.0000
  F   F120      1.0  0.34485  0.79240  0.88928  1.0000
  F   F121      1.0  0.59765  0.30377  0.35369  1.0000
  F   F122      1.0  0.59700  0.29719  0.89142  1.0000
  F   F123      1.0  0.60291  0.80262  0.38648  1.0000
  F   F124      1.0  0.59673  0.81408  0.87668  1.0000
  F   F125      1.0  0.84664  0.30307  0.37229  1.0000
  F   F126      1.0  0.85887  0.29665  0.87141  1.0000
  F   F127      1.0  0.84533  0.80125  0.38789  1.0000
  F   F128      1.0  0.85437  0.80213  0.87085  1.0000
  F   F129      1.0  0.05946  0.25282  0.15153  1.0000
  F   F130      1.0  0.07724  0.24895  0.62545  1.0000
  F   F131      1.0  0.06511  0.75187  0.13772  1.0000
  F   F132      1.0  0.05791  0.74652  0.66050  1.0000
  F   F133      1.0  0.32367  0.26100  0.13937  1.0000
  F   F134      1.0  0.30657  0.25333  0.64789  1.0000
  F   F135      1.0  0.30729  0.75513  0.13883  1.0000
  F   F136      1.0  0.31758  0.75299  0.63629  1.0000
  F   F137      1.0  0.56892  0.24722  0.12908  1.0000
  F   F138      1.0  0.55385  0.24561  0.65986  1.0000
  F   F139      1.0  0.55738  0.75413  0.15834  1.0000
  F   F140      1.0  0.56775  0.75193  0.63194  1.0000
  F   F141      1.0  0.82047  0.25310  0.13332  1.0000
  F   F142      1.0  0.80568  0.24474  0.65855  1.0000
  F   F143      1.0  0.81856  0.75295  0.13720  1.0000
  F   F144      1.0  0.81410  0.74677  0.66124  1.0000
  F   F145      1.0  0.12783  0.37320  0.10884  1.0000
  F   F146      1.0  0.12728  0.36899  0.60439  1.0000
  F   F147      1.0  0.12650  0.87108  0.10634  1.0000
  F   F148      1.0  0.12348  0.85327  0.61302  1.0000
  F   F149      1.0  0.37475  0.38511  0.10924  1.0000
  F   F150      1.0  0.37454  0.36130  0.61454  1.0000
  F   F151      1.0  0.37819  0.87702  0.08922  1.0000
  F   F152      1.0  0.37407  0.87236  0.61485  1.0000
  F   F153      1.0  0.62502  0.35531  0.12299  1.0000
  F   F154      1.0  0.62483  0.37114  0.61809  1.0000
  F   F155      1.0  0.62528  0.87914  0.09919  1.0000
  F   F156      1.0  0.62472  0.87665  0.61427  1.0000
  F   F157      1.0  0.87148  0.36196  0.11966  1.0000
  F   F158      1.0  0.87729  0.36018  0.61392  1.0000
  F   F159      1.0  0.87341  0.87603  0.11517  1.0000
  F   F160      1.0  0.87091  0.83163  0.65113  1.0000
  F   F161      1.0  0.19573  0.23626  0.35463  1.0000
  F   F162      1.0  0.18802  0.25300  0.83655  1.0000
  F   F163      1.0  0.19195  0.75216  0.34024  1.0000
  F   F164      1.0  0.17946  0.74886  0.85357  1.0000
  F   F165      1.0  0.42745  0.24541  0.37470  1.0000
  F   F166      1.0  0.43888  0.25053  0.85441  1.0000
  F   F167      1.0  0.43418  0.75522  0.36276  1.0000
  F   F168      1.0  0.42526  0.74571  0.87678  1.0000
  F   F169      1.0  0.68588  0.24769  0.36473  1.0000
  F   F170      1.0  0.68726  0.24640  0.85798  1.0000
  F   F171      1.0  0.69534  0.75230  0.33717  1.0000
  F   F172      1.0  0.68705  0.75184  0.86075  1.0000
  F   F173      1.0  0.92535  0.25259  0.37589  1.0000
  F   F174      1.0  0.94207  0.24683  0.85536  1.0000
  F   F175      1.0  0.93303  0.74231  0.37494  1.0000
  F   F176      1.0  0.93485  0.74575  0.86309  1.0000
  F   F177      1.0  0.12505  0.13840  0.39056  1.0000
  F   F178      1.0  0.12683  0.12778  0.88692  1.0000
  F   F179      1.0  0.12712  0.63505  0.38700  1.0000
  F   F180      1.0  0.12188  0.62485  0.89405  1.0000
  F   F181      1.0  0.37522  0.13387  0.37776  1.0000
  F   F182      1.0  0.37453  0.13622  0.89349  1.0000
  F   F183      1.0  0.37625  0.64165  0.37784  1.0000
  F   F184      1.0  0.36989  0.60812  0.90618  1.0000
  F   F185      1.0  0.62386  0.12662  0.38995  1.0000
  F   F186      1.0  0.62298  0.14209  0.88556  1.0000
  F   F187      1.0  0.63168  0.64631  0.37158  1.0000
  F   F188      1.0  0.62596  0.64093  0.88305  1.0000
  F   F189      1.0  0.87379  0.12730  0.39763  1.0000
  F   F190      1.0  0.87387  0.12696  0.89304  1.0000
  F   F191      1.0  0.87094  0.63028  0.40111  1.0000
  F   F192      1.0  0.87726  0.63686  0.89306  1.0000
  F   F193      1.0  0.00412  0.35121  0.09173  1.0000
  F   F194      1.0  0.01017  0.35150  0.58093  1.0000
  F   F195      1.0  0.00777  0.86827  0.07037  1.0000
  F   F196      1.0  0.00671  0.86362  0.57193  1.0000
  F   F197      1.0  0.25565  0.34747  0.08784  1.0000
  F   F198      1.0  0.25493  0.38356  0.55757  1.0000
  F   F199      1.0  0.25376  0.87398  0.06569  1.0000
  F   F200      1.0  0.25890  0.84664  0.58066  1.0000
  F   F201      1.0  0.50760  0.36401  0.08215  1.0000
  F   F202      1.0  0.50760  0.36100  0.57465  1.0000
  F   F203      1.0  0.50435  0.87111  0.05764  1.0000
  F   F204      1.0  0.50949  0.87144  0.55998  1.0000
  F   F205      1.0  0.75685  0.36519  0.07511  1.0000
  F   F206      1.0  0.75723  0.35380  0.57218  1.0000
  F   F207      1.0  0.76152  0.85417  0.07954  1.0000
  F   F208      1.0  0.76799  0.85922  0.56303  1.0000
  F   F209      1.0  0.07269  0.48052  0.17978  1.0000
  F   F210      1.0  0.06232  0.48662  0.67616  1.0000
  F   F211      1.0  0.07056  0.97817  0.17691  1.0000
  F   F212      1.0  0.07273  0.98712  0.67236  1.0000
  F   F213      1.0  0.31526  0.48456  0.18886  1.0000
  F   F214      1.0  0.32426  0.48305  0.66685  1.0000
  F   F215      1.0  0.31938  0.98097  0.17931  1.0000
  F   F216      1.0  0.31574  0.98500  0.68089  1.0000
  F   F217      1.0  0.56720  0.47773  0.18432  1.0000
  F   F218      1.0  0.56921  0.47754  0.68727  1.0000
  F   F219      1.0  0.56795  0.98692  0.16719  1.0000
  F   F220      1.0  0.57005  0.98832  0.66965  1.0000
  F   F221      1.0  0.81536  0.49130  0.17391  1.0000
  F   F222      1.0  0.81944  0.47987  0.67541  1.0000
  F   F223      1.0  0.82248  0.98468  0.17356  1.0000
  F   F224      1.0  0.82772  0.98632  0.65520  1.0000
  F   F225      1.0  0.24295  0.13068  0.43344  1.0000
  F   F226      1.0  0.23808  0.13465  0.93067  1.0000
  F   F227      1.0  0.24091  0.64505  0.42862  1.0000
  F   F228      1.0  0.24167  0.65064  0.91318  1.0000
  F   F229      1.0  0.49538  0.14512  0.41081  1.0000
  F   F230      1.0  0.49292  0.14195  0.92350  1.0000
  F   F231      1.0  0.49247  0.63707  0.42142  1.0000
  F   F232      1.0  0.49006  0.64446  0.92002  1.0000
  F   F233      1.0  0.73982  0.12564  0.43056  1.0000
  F   F234      1.0  0.74289  0.13560  0.93048  1.0000
  F   F235      1.0  0.74339  0.63470  0.42959  1.0000
  F   F236      1.0  0.73942  0.63386  0.93281  1.0000
  F   F237      1.0  0.99367  0.14487  0.40636  1.0000
  F   F238      1.0  0.99429  0.13260  0.93285  1.0000
  F   F239      1.0  0.99289  0.64102  0.42561  1.0000
  F   F240      1.0  0.99029  0.63316  0.92681  1.0000
  F   F241      1.0  0.17956  0.00399  0.33112  1.0000
  F   F242      1.0  0.18058  0.01251  0.82329  1.0000
  F   F243      1.0  0.18227  0.50970  0.32384  1.0000
  F   F244      1.0  0.18155  0.51578  0.81692  1.0000
  F   F245      1.0  0.43611  0.02206  0.31248  1.0000
  F   F246      1.0  0.42462  0.02649  0.82510  1.0000
  F   F247      1.0  0.42456  0.52037  0.32533  1.0000
  F   F248      1.0  0.42808  0.50955  0.83285  1.0000
  F   F249      1.0  0.67942  0.01093  0.33721  1.0000
  F   F250      1.0  0.68194  0.02589  0.82093  1.0000
  F   F251      1.0  0.67793  0.52095  0.32809  1.0000
  F   F252      1.0  0.67558  0.51606  0.83269  1.0000
  F   F253      1.0  0.93329  0.00375  0.32345  1.0000
  F   F254      1.0  0.93051  0.02048  0.80884  1.0000
  F   F255      1.0  0.93291  0.52036  0.32447  1.0000
  F   F256      1.0  0.93137  0.51753  0.82059  1.0000
  F   F257      1.0  0.99520  0.25156  0.99878  1.0000
  F   F258      1.0  0.00024  0.24624  0.51111  1.0000
  F   F259      1.0  0.99198  0.73733  0.01723  1.0000
  F   F260      1.0  0.99973  0.74035  0.50531  1.0000
  F   F261      1.0  0.24930  0.25736  0.99211  1.0000
  F   F262      1.0  0.25339  0.25991  0.48601  1.0000
  F   F263      1.0  0.24671  0.74254  0.00180  1.0000
  F   F264      1.0  0.25303  0.76284  0.49173  1.0000
  F   F265      1.0  0.50898  0.26560  0.99629  1.0000
  F   F266      1.0  0.50259  0.25409  0.49469  1.0000
  F   F267      1.0  0.49824  0.74225  0.00910  1.0000
  F   F268      1.0  0.49708  0.75434  0.49467  1.0000
  F   F269      1.0  0.75459  0.25734  0.99230  1.0000
  F   F270      1.0  0.75112  0.23668  0.50666  1.0000
  F   F271      1.0  0.75163  0.75316  0.99028  1.0000
  F   F272      1.0  0.74371  0.73719  0.51301  1.0000
  F   F273      1.0  0.12391  0.99656  0.26221  1.0000
  F   F274      1.0  0.13029  0.00214  0.74525  1.0000
  F   F275      1.0  0.12953  0.49397  0.24660  1.0000
  F   F276      1.0  0.11829  0.48948  0.75976  1.0000
  F   F277      1.0  0.38379  0.01102  0.23104  1.0000
  F   F278      1.0  0.37158  0.99996  0.74580  1.0000
  F   F279      1.0  0.37143  0.49471  0.25917  1.0000
  F   F280      1.0  0.37335  0.50718  0.74455  1.0000
  F   F281      1.0  0.62127  0.99995  0.26514  1.0000
  F   F282      1.0  0.62201  0.99857  0.75606  1.0000
  F   F283      1.0  0.62572  0.50860  0.24849  1.0000
  F   F284      1.0  0.63325  0.50195  0.73983  1.0000
  F   F285      1.0  0.87836  0.99813  0.24874  1.0000
  F   F286      1.0  0.86573  0.99204  0.76076  1.0000
  F   F287      1.0  0.87623  0.50275  0.25118  1.0000
  F   F288      1.0  0.86978  0.48955  0.76231  1.0000
  F   F289      1.0  0.04372  0.02603  0.02310  1.0000
  F   F290      1.0  0.04210  0.02771  0.51524  1.0000
  F   F291      1.0  0.03817  0.53192  0.03468  1.0000
  F   F292      1.0  0.04282  0.52899  0.52487  1.0000
  F   F293      1.0  0.29094  0.03007  0.03134  1.0000
  F   F294      1.0  0.28899  0.03181  0.52596  1.0000
  F   F295      1.0  0.28712  0.52708  0.03246  1.0000
  F   F296      1.0  0.30058  0.52753  0.50926  1.0000
  F   F297      1.0  0.54378  0.03238  0.00443  1.0000
  F   F298      1.0  0.54623  0.04510  0.50898  1.0000
  F   F299      1.0  0.54940  0.54026  0.01756  1.0000
  F   F300      1.0  0.54822  0.53027  0.50808  1.0000
  F   F301      1.0  0.79623  0.03501  0.01931  1.0000
  F   F302      1.0  0.79056  0.03257  0.52037  1.0000
  F   F303      1.0  0.79233  0.52950  0.02262  1.0000
  F   F304      1.0  0.79470  0.52951  0.52418  1.0000
  F   F305      1.0  0.23481  0.40921  0.22999  1.0000
  F   F306      1.0  0.24021  0.40768  0.73415  1.0000
  F   F307      1.0  0.23479  0.91000  0.22630  1.0000
  F   F308      1.0  0.23349  0.90793  0.72675  1.0000
  F   F309      1.0  0.48297  0.42677  0.21860  1.0000
  F   F310      1.0  0.48977  0.42561  0.71960  1.0000
  F   F311      1.0  0.48742  0.92803  0.20726  1.0000
  F   F312      1.0  0.48611  0.92941  0.71289  1.0000
  F   F313      1.0  0.73123  0.41557  0.23281  1.0000
  F   F314      1.0  0.73204  0.41820  0.73047  1.0000
  F   F315      1.0  0.73343  0.91888  0.22488  1.0000
  F   F316      1.0  0.73380  0.92505  0.72092  1.0000
  F   F317      1.0  0.98534  0.41729  0.23534  1.0000
  F   F318      1.0  0.98687  0.40632  0.72702  1.0000
  F   F319      1.0  0.98914  0.90072  0.23143  1.0000
  F   F320      1.0  0.98594  0.90839  0.73002  1.0000
  F   F321      1.0  0.20666  0.47232  0.46607  1.0000
  F   F322      1.0  0.22168  0.46573  0.96442  1.0000
  F   F323      1.0  0.21333  0.96334  0.46791  1.0000
  F   F324      1.0  0.20029  0.96710  0.98053  1.0000
  F   F325      1.0  0.45942  0.47575  0.47481  1.0000
  F   F326      1.0  0.45680  0.47360  0.97503  1.0000
  F   F327      1.0  0.46010  0.97304  0.46892  1.0000
  F   F328      1.0  0.45056  0.98083  0.98292  1.0000
  F   F329      1.0  0.70269  0.47686  0.48576  1.0000
  F   F330      1.0  0.69884  0.46160  0.98794  1.0000
  F   F331      1.0  0.70707  0.95964  0.48108  1.0000
  F   F332      1.0  0.71351  0.96537  0.98102  1.0000
  F   F333      1.0  0.96315  0.46735  0.47067  1.0000
  F   F334      1.0  0.95707  0.46483  0.97230  1.0000
  F   F335      1.0  0.95280  0.96315  0.47235  1.0000
  F   F336      1.0  0.95466  0.96699  0.97042  1.0000
  F   F337      1.0  0.01691  0.06453  0.28107  1.0000
  F   F338      1.0  0.01180  0.10616  0.77047  1.0000
  F   F339      1.0  0.01626  0.58246  0.28071  1.0000
  F   F340      1.0  0.01720  0.58944  0.76654  1.0000
  F   F341      1.0  0.26677  0.09635  0.24943  1.0000
  F   F342      1.0  0.26295  0.09349  0.76932  1.0000
  F   F343      1.0  0.26520  0.58224  0.27175  1.0000
  F   F344      1.0  0.26714  0.59712  0.76212  1.0000
  F   F345      1.0  0.52139  0.07782  0.27012  1.0000
  F   F346      1.0  0.51381  0.07426  0.77622  1.0000
  F   F347      1.0  0.51099  0.59116  0.27846  1.0000
  F   F348      1.0  0.51587  0.59677  0.75908  1.0000
  F   F349      1.0  0.76601  0.08658  0.26545  1.0000
  F   F350      1.0  0.76773  0.07228  0.79229  1.0000
  F   F351      1.0  0.76476  0.57194  0.28281  1.0000
  F   F352      1.0  0.76574  0.57704  0.78388  1.0000
  F   F353      1.0  0.09763  0.40187  0.46372  1.0000
  F   F354      1.0  0.09472  0.41078  0.97112  1.0000
  F   F355      1.0  0.10005  0.89326  0.47375  1.0000
  F   F356      1.0  0.09973  0.90499  0.95895  1.0000
  F   F357      1.0  0.35433  0.39060  0.46896  1.0000
  F   F358      1.0  0.35200  0.40649  0.96062  1.0000
  F   F359      1.0  0.34872  0.92661  0.45005  1.0000
  F   F360      1.0  0.35310  0.90231  0.95547  1.0000
  F   F361      1.0  0.60437  0.38565  0.46864  1.0000
  F   F362      1.0  0.60053  0.40738  0.96830  1.0000
  F   F363      1.0  0.59929  0.91729  0.47346  1.0000
  F   F364      1.0  0.59843  0.90778  0.96495  1.0000
  F   F365      1.0  0.84789  0.41019  0.46933  1.0000
  F   F366      1.0  0.85257  0.39605  0.96791  1.0000
  F   F367      1.0  0.85430  0.90895  0.47791  1.0000
  F   F368      1.0  0.85406  0.90926  0.96009  1.0000
  F   F369      1.0  0.05088  0.29935  0.30322  1.0000
  F   F370      1.0  0.04679  0.30449  0.78553  1.0000
  F   F371      1.0  0.05134  0.80214  0.28976  1.0000
  F   F372      1.0  0.04537  0.79314  0.79502  1.0000
  F   F373      1.0  0.29651  0.29365  0.28901  1.0000
  F   F374      1.0  0.29842  0.29866  0.78616  1.0000
  F   F375      1.0  0.30159  0.80040  0.28006  1.0000
  F   F376      1.0  0.29511  0.79135  0.79391  1.0000
  F   F377      1.0  0.53726  0.30338  0.27989  1.0000
  F   F378      1.0  0.54075  0.30101  0.79336  1.0000
  F   F379      1.0  0.55216  0.80121  0.28968  1.0000
  F   F380      1.0  0.54321  0.80154  0.78950  1.0000
  F   F381      1.0  0.79532  0.29323  0.27881  1.0000
  F   F382      1.0  0.79316  0.30689  0.79103  1.0000
  F   F383      1.0  0.79603  0.79756  0.28770  1.0000
  F   F384      1.0  0.79208  0.80389  0.80005  1.0000
