data_image0
_chemical_formula_structural       Hf96F384
_chemical_formula_sum              "Hf96 F384"
_cell_length_a       31.0101
_cell_length_b       15.508
_cell_length_c       15.4984
_cell_angle_alpha    63.342
_cell_angle_beta     63.342
_cell_angle_gamma    80.1625

_space_group_name_H-M_alt    "P 1"
_space_group_IT_number       1

loop_
  _space_group_symop_operation_xyz
  'x, y, z'

loop_
  _atom_site_type_symbol
  _atom_site_label
  _atom_site_symmetry_multiplicity
  _atom_site_fract_x
  _atom_site_fract_y
  _atom_site_fract_z
  _atom_site_occupancy
  Hf  Hf1       1.0  0.19654  0.10521  0.37471  1.0000
  Hf  Hf2       1.0  0.19742  0.11262  0.87049  1.0000
  Hf  Hf3       1.0  0.19942  0.61085  0.36036  1.0000
  Hf  Hf4       1.0  0.19499  0.61537  0.87239  1.0000
  Hf  Hf5       1.0  0.44237  0.10732  0.38383  1.0000
  Hf  Hf6       1.0  0.44830  0.10509  0.87624  1.0000
  Hf  Hf7       1.0  0.44489  0.60845  0.37720  1.0000
  Hf  Hf8       1.0  0.44601  0.61204  0.86567  1.0000
  Hf  Hf9       1.0  0.69904  0.09729  0.37919  1.0000
  Hf  Hf10      1.0  0.69294  0.10327  0.87910  1.0000
  Hf  Hf11      1.0  0.69946  0.60037  0.37516  1.0000
  Hf  Hf12      1.0  0.69768  0.60679  0.87180  1.0000
  Hf  Hf13      1.0  0.94546  0.10655  0.37834  1.0000
  Hf  Hf14      1.0  0.94740  0.11423  0.86794  1.0000
  Hf  Hf15      1.0  0.94816  0.60696  0.37838  1.0000
  Hf  Hf16      1.0  0.94509  0.61088  0.87154  1.0000
  Hf  Hf17      1.0  0.05245  0.39908  0.12172  1.0000
  Hf  Hf18      1.0  0.05471  0.39615  0.62535  1.0000
  Hf  Hf19      1.0  0.05238  0.89637  0.12839  1.0000
  Hf  Hf20      1.0  0.05488  0.90047  0.61956  1.0000
  Hf  Hf21      1.0  0.30649  0.38575  0.12689  1.0000
  Hf  Hf22      1.0  0.29940  0.39151  0.63154  1.0000
  Hf  Hf23      1.0  0.30504  0.89631  0.11636  1.0000
  Hf  Hf24      1.0  0.30285  0.88621  0.62479  1.0000
  Hf  Hf25      1.0  0.55255  0.39295  0.13009  1.0000
  Hf  Hf26      1.0  0.55425  0.39365  0.62464  1.0000
  Hf  Hf27      1.0  0.55292  0.88825  0.12927  1.0000
  Hf  Hf28      1.0  0.55536  0.88704  0.62336  1.0000
  Hf  Hf29      1.0  0.80429  0.39363  0.12305  1.0000
  Hf  Hf30      1.0  0.80257  0.39339  0.62619  1.0000
  Hf  Hf31      1.0  0.80126  0.89114  0.12660  1.0000
  Hf  Hf32      1.0  0.80150  0.89144  0.62940  1.0000
  Hf  Hf33      1.0  0.05890  0.18937  0.40840  1.0000
  Hf  Hf34      1.0  0.05672  0.18092  0.92009  1.0000
  Hf  Hf35      1.0  0.05202  0.68438  0.42249  1.0000
  Hf  Hf36      1.0  0.05375  0.68227  0.92040  1.0000
  Hf  Hf37      1.0  0.30771  0.17857  0.41383  1.0000
  Hf  Hf38      1.0  0.30512  0.18194  0.92171  1.0000
  Hf  Hf39      1.0  0.30458  0.67884  0.42538  1.0000
  Hf  Hf40      1.0  0.30612  0.68206  0.91686  1.0000
  Hf  Hf41      1.0  0.55671  0.17454  0.42125  1.0000
  Hf  Hf42      1.0  0.55481  0.18517  0.92201  1.0000
  Hf  Hf43      1.0  0.55707  0.68310  0.42132  1.0000
  Hf  Hf44      1.0  0.55518  0.68151  0.91417  1.0000
  Hf  Hf45      1.0  0.80384  0.18153  0.41965  1.0000
  Hf  Hf46      1.0  0.80499  0.18210  0.91146  1.0000
  Hf  Hf47      1.0  0.80756  0.67531  0.41862  1.0000
  Hf  Hf48      1.0  0.80814  0.68347  0.90992  1.0000
  Hf  Hf49      1.0  0.16105  0.38928  0.32488  1.0000
  Hf  Hf50      1.0  0.15565  0.38920  0.83279  1.0000
  Hf  Hf51      1.0  0.15814  0.88887  0.33449  1.0000
  Hf  Hf52      1.0  0.15927  0.89339  0.83187  1.0000
  Hf  Hf53      1.0  0.40995  0.38993  0.33424  1.0000
  Hf  Hf54      1.0  0.40616  0.38560  0.84008  1.0000
  Hf  Hf55      1.0  0.40702  0.88613  0.33508  1.0000
  Hf  Hf56      1.0  0.40835  0.88527  0.83130  1.0000
  Hf  Hf57      1.0  0.65764  0.37614  0.34036  1.0000
  Hf  Hf58      1.0  0.66041  0.38818  0.83739  1.0000
  Hf  Hf59      1.0  0.65876  0.88462  0.33781  1.0000
  Hf  Hf60      1.0  0.66058  0.87960  0.83527  1.0000
  Hf  Hf61      1.0  0.91032  0.39277  0.32997  1.0000
  Hf  Hf62      1.0  0.90888  0.38973  0.83516  1.0000
  Hf  Hf63      1.0  0.90603  0.89197  0.32837  1.0000
  Hf  Hf64      1.0  0.90710  0.90007  0.82775  1.0000
  Hf  Hf65      1.0  0.19467  0.32545  0.07420  1.0000
  Hf  Hf66      1.0  0.19347  0.33241  0.57661  1.0000
  Hf  Hf67      1.0  0.19529  0.82291  0.07965  1.0000
  Hf  Hf68      1.0  0.19230  0.81919  0.58705  1.0000
  Hf  Hf69      1.0  0.44642  0.32276  0.07796  1.0000
  Hf  Hf70      1.0  0.44460  0.32576  0.58207  1.0000
  Hf  Hf71      1.0  0.44527  0.81698  0.08355  1.0000
  Hf  Hf72      1.0  0.44415  0.81723  0.57732  1.0000
  Hf  Hf73      1.0  0.69224  0.31024  0.09215  1.0000
  Hf  Hf74      1.0  0.69389  0.30757  0.59115  1.0000
  Hf  Hf75      1.0  0.69510  0.81152  0.08133  1.0000
  Hf  Hf76      1.0  0.69531  0.81401  0.58344  1.0000
  Hf  Hf77      1.0  0.94569  0.31423  0.08426  1.0000
  Hf  Hf78      1.0  0.94481  0.31653  0.58033  1.0000
  Hf  Hf79      1.0  0.94115  0.81496  0.08644  1.0000
  Hf  Hf80      1.0  0.94087  0.81846  0.58450  1.0000
  Hf  Hf81      1.0  0.09273  0.11024  0.16678  1.0000
  Hf  Hf82      1.0  0.09451  0.12315  0.65956  1.0000
  Hf  Hf83      1.0  0.09255  0.61393  0.16524  1.0000
  Hf  Hf84      1.0  0.09066  0.61665  0.66706  1.0000
  Hf  Hf85      1.0  0.34314  0.11265  0.16416  1.0000
  Hf  Hf86      1.0  0.33850  0.11761  0.66306  1.0000
  Hf  Hf87      1.0  0.34564  0.61325  0.16568  1.0000
  Hf  Hf88      1.0  0.33953  0.60196  0.67513  1.0000
  Hf  Hf89      1.0  0.58925  0.10299  0.17424  1.0000
  Hf  Hf90      1.0  0.59424  0.10641  0.66637  1.0000
  Hf  Hf91      1.0  0.59566  0.60612  0.17403  1.0000
  Hf  Hf92      1.0  0.59033  0.61134  0.66727  1.0000
  Hf  Hf93      1.0  0.84261  0.11303  0.16037  1.0000
  Hf  Hf94      1.0  0.83734  0.11136  0.66641  1.0000
  Hf  Hf95      1.0  0.83981  0.61082  0.16516  1.0000
  Hf  Hf96      1.0  0.84200  0.61255  0.66970  1.0000
  F   F1        1.0  0.08308  0.13851  0.29249  1.0000
  F   F2        1.0  0.07509  0.11565  0.81041  1.0000
  F   F3        1.0  0.08065  0.63433  0.30598  1.0000
  F   F4        1.0  0.08389  0.63228  0.79542  1.0000
  F   F5        1.0  0.33336  0.11303  0.31059  1.0000
  F   F6        1.0  0.33191  0.13127  0.79536  1.0000
  F   F7        1.0  0.33313  0.62115  0.30668  1.0000
  F   F8        1.0  0.32713  0.62543  0.80939  1.0000
  F   F9        1.0  0.58244  0.10646  0.31980  1.0000
  F   F10       1.0  0.57894  0.12918  0.79887  1.0000
  F   F11       1.0  0.57408  0.61805  0.31511  1.0000
  F   F12       1.0  0.57558  0.62322  0.80520  1.0000
  F   F13       1.0  0.82770  0.11344  0.31952  1.0000
  F   F14       1.0  0.83241  0.12727  0.79324  1.0000
  F   F15       1.0  0.82823  0.62216  0.30957  1.0000
  F   F16       1.0  0.83225  0.63224  0.79684  1.0000
  F   F17       1.0  0.19763  0.35476  0.43066  1.0000
  F   F18       1.0  0.18102  0.34059  0.94707  1.0000
  F   F19       1.0  0.19239  0.84441  0.43066  1.0000
  F   F20       1.0  0.18451  0.84660  0.95133  1.0000
  F   F21       1.0  0.43885  0.34212  0.44921  1.0000
  F   F22       1.0  0.42944  0.33075  0.95368  1.0000
  F   F23       1.0  0.43702  0.83417  0.44372  1.0000
  F   F24       1.0  0.43577  0.84746  0.94829  1.0000
  F   F25       1.0  0.67873  0.34151  0.45383  1.0000
  F   F26       1.0  0.68633  0.33298  0.94811  1.0000
  F   F27       1.0  0.68892  0.82726  0.44664  1.0000
  F   F28       1.0  0.68840  0.83973  0.94322  1.0000
  F   F29       1.0  0.93723  0.35278  0.44417  1.0000
  F   F30       1.0  0.93587  0.33933  0.94944  1.0000
  F   F31       1.0  0.92555  0.83437  0.45528  1.0000
  F   F32       1.0  0.93462  0.83826  0.95227  1.0000
  F   F33       1.0  0.17339  0.38598  0.18344  1.0000
  F   F34       1.0  0.16943  0.38130  0.69057  1.0000
  F   F35       1.0  0.17199  0.87281  0.19471  1.0000
  F   F36       1.0  0.16428  0.86284  0.70891  1.0000
  F   F37       1.0  0.42952  0.38461  0.17858  1.0000
  F   F38       1.0  0.42084  0.37609  0.70097  1.0000
  F   F39       1.0  0.42105  0.86741  0.20038  1.0000
  F   F40       1.0  0.42500  0.87978  0.68754  1.0000
  F   F41       1.0  0.66569  0.36384  0.20480  1.0000
  F   F42       1.0  0.68009  0.37423  0.68353  1.0000
  F   F43       1.0  0.66740  0.86160  0.20277  1.0000
  F   F44       1.0  0.67090  0.87395  0.69842  1.0000
  F   F45       1.0  0.92765  0.38556  0.18738  1.0000
  F   F46       1.0  0.92136  0.37930  0.69353  1.0000
  F   F47       1.0  0.91359  0.87725  0.20218  1.0000
  F   F48       1.0  0.92325  0.89053  0.68213  1.0000
  F   F49       1.0  0.06167  0.16286  0.05431  1.0000
  F   F50       1.0  0.06776  0.16900  0.54147  1.0000
  F   F51       1.0  0.06570  0.65771  0.04726  1.0000
  F   F52       1.0  0.06609  0.65845  0.54738  1.0000
  F   F53       1.0  0.30593  0.16448  0.05757  1.0000
  F   F54       1.0  0.32038  0.16600  0.54317  1.0000
  F   F55       1.0  0.31873  0.66200  0.05277  1.0000
  F   F56       1.0  0.31206  0.65382  0.56672  1.0000
  F   F57       1.0  0.56388  0.15664  0.05321  1.0000
  F   F58       1.0  0.56940  0.15780  0.54716  1.0000
  F   F59       1.0  0.57125  0.63298  0.06642  1.0000
  F   F60       1.0  0.56022  0.65872  0.56036  1.0000
  F   F61       1.0  0.81821  0.16283  0.04340  1.0000
  F   F62       1.0  0.81106  0.16110  0.55304  1.0000
  F   F63       1.0  0.80934  0.66009  0.05681  1.0000
  F   F64       1.0  0.81562  0.65600  0.55687  1.0000
  F   F65       1.0  0.19717  0.21165  0.21539  1.0000
  F   F66       1.0  0.19647  0.21113  0.70755  1.0000
  F   F67       1.0  0.20500  0.70890  0.20842  1.0000
  F   F68       1.0  0.20296  0.70513  0.71600  1.0000
  F   F69       1.0  0.44851  0.19756  0.22309  1.0000
  F   F70       1.0  0.44465  0.21027  0.70801  1.0000
  F   F71       1.0  0.43889  0.69106  0.22116  1.0000
  F   F72       1.0  0.45157  0.70049  0.70258  1.0000
  F   F73       1.0  0.70570  0.19665  0.21070  1.0000
  F   F74       1.0  0.70865  0.19350  0.71297  1.0000
  F   F75       1.0  0.70547  0.70379  0.20743  1.0000
  F   F76       1.0  0.70633  0.69841  0.70909  1.0000
  F   F77       1.0  0.95065  0.20938  0.21379  1.0000
  F   F78       1.0  0.95003  0.20694  0.70909  1.0000
  F   F79       1.0  0.94762  0.70028  0.21987  1.0000
  F   F80       1.0  0.94976  0.71090  0.71074  1.0000
  F   F81       1.0  0.15053  0.09650  0.02950  1.0000
  F   F82       1.0  0.14973  0.09725  0.53929  1.0000
  F   F83       1.0  0.14859  0.59602  0.03710  1.0000
  F   F84       1.0  0.14672  0.60604  0.54704  1.0000
  F   F85       1.0  0.39258  0.08508  0.04098  1.0000
  F   F86       1.0  0.39755  0.07792  0.54386  1.0000
  F   F87       1.0  0.40136  0.59381  0.03052  1.0000
  F   F88       1.0  0.39713  0.59464  0.54355  1.0000
  F   F89       1.0  0.64492  0.09001  0.04824  1.0000
  F   F90       1.0  0.65566  0.08507  0.53953  1.0000
  F   F91       1.0  0.65929  0.58003  0.03088  1.0000
  F   F92       1.0  0.65255  0.58709  0.54461  1.0000
  F   F93       1.0  0.90377  0.08806  0.03817  1.0000
  F   F94       1.0  0.90207  0.07392  0.53460  1.0000
  F   F95       1.0  0.89644  0.58919  0.03743  1.0000
  F   F96       1.0  0.89772  0.59617  0.53396  1.0000
  F   F97       1.0  0.15411  0.19546  0.11019  1.0000
  F   F98       1.0  0.15036  0.20846  0.61445  1.0000
  F   F99       1.0  0.14854  0.70933  0.12982  1.0000
  F   F100      1.0  0.15402  0.70825  0.62136  1.0000
  F   F101      1.0  0.40743  0.18078  0.12496  1.0000
  F   F102      1.0  0.39622  0.20996  0.60490  1.0000
  F   F103      1.0  0.40098  0.70412  0.10636  1.0000
  F   F104      1.0  0.39564  0.70150  0.62362  1.0000
  F   F105      1.0  0.65266  0.19691  0.12240  1.0000
  F   F106      1.0  0.64945  0.19386  0.63141  1.0000
  F   F107      1.0  0.65414  0.68755  0.11824  1.0000
  F   F108      1.0  0.64807  0.69284  0.63318  1.0000
  F   F109      1.0  0.90333  0.19045  0.11553  1.0000
  F   F110      1.0  0.89558  0.19231  0.62254  1.0000
  F   F111      1.0  0.89796  0.68846  0.12592  1.0000
  F   F112      1.0  0.90516  0.69030  0.62386  1.0000
  F   F113      1.0  0.10403  0.30301  0.35799  1.0000
  F   F114      1.0  0.09476  0.30243  0.88662  1.0000
  F   F115      1.0  0.09204  0.81001  0.36939  1.0000
  F   F116      1.0  0.09393  0.80813  0.87409  1.0000
  F   F117      1.0  0.35248  0.29569  0.35594  1.0000
  F   F118      1.0  0.34991  0.28693  0.89876  1.0000
  F   F119      1.0  0.35238  0.79279  0.39387  1.0000
  F   F120      1.0  0.34845  0.80633  0.86315  1.0000
  F   F121      1.0  0.59993  0.29786  0.36915  1.0000
  F   F122      1.0  0.59726  0.31291  0.86175  1.0000
  F   F123      1.0  0.60451  0.79167  0.38798  1.0000
  F   F124      1.0  0.59592  0.79593  0.87888  1.0000
  F   F125      1.0  0.85194  0.30680  0.37855  1.0000
  F   F126      1.0  0.84744  0.30342  0.87283  1.0000
  F   F127      1.0  0.84664  0.80217  0.38163  1.0000
  F   F128      1.0  0.85178  0.79810  0.86965  1.0000
  F   F129      1.0  0.06010  0.26054  0.14261  1.0000
  F   F130      1.0  0.06705  0.25103  0.64984  1.0000
  F   F131      1.0  0.06574  0.75201  0.13696  1.0000
  F   F132      1.0  0.07569  0.76071  0.61564  1.0000
  F   F133      1.0  0.32653  0.25570  0.12571  1.0000
  F   F134      1.0  0.30151  0.24971  0.65305  1.0000
  F   F135      1.0  0.31413  0.74652  0.15126  1.0000
  F   F136      1.0  0.31213  0.74407  0.64730  1.0000
  F   F137      1.0  0.56807  0.24455  0.13803  1.0000
  F   F138      1.0  0.56497  0.25623  0.63283  1.0000
  F   F139      1.0  0.57039  0.75075  0.13146  1.0000
  F   F140      1.0  0.56436  0.75314  0.63756  1.0000
  F   F141      1.0  0.81646  0.24748  0.14364  1.0000
  F   F142      1.0  0.80899  0.25294  0.64375  1.0000
  F   F143      1.0  0.81269  0.74881  0.14333  1.0000
  F   F144      1.0  0.81612  0.74596  0.65152  1.0000
  F   F145      1.0  0.12436  0.36914  0.11098  1.0000
  F   F146      1.0  0.12806  0.39834  0.58211  1.0000
  F   F147      1.0  0.12438  0.88748  0.10630  1.0000
  F   F148      1.0  0.12756  0.89587  0.59544  1.0000
  F   F149      1.0  0.37926  0.36574  0.11155  1.0000
  F   F150      1.0  0.36859  0.36810  0.61461  1.0000
  F   F151      1.0  0.37483  0.88963  0.10175  1.0000
  F   F152      1.0  0.37245  0.86961  0.61642  1.0000
  F   F153      1.0  0.62214  0.35670  0.12030  1.0000
  F   F154      1.0  0.62823  0.38097  0.60598  1.0000
  F   F155      1.0  0.62400  0.87313  0.10514  1.0000
  F   F156      1.0  0.62369  0.86500  0.62441  1.0000
  F   F157      1.0  0.87771  0.35936  0.11861  1.0000
  F   F158      1.0  0.87288  0.36361  0.62370  1.0000
  F   F159      1.0  0.87252  0.85229  0.12481  1.0000
  F   F160      1.0  0.87055  0.85408  0.62397  1.0000
  F   F161      1.0  0.18557  0.25536  0.35397  1.0000
  F   F162      1.0  0.17760  0.25252  0.85196  1.0000
  F   F163      1.0  0.18540  0.75404  0.35061  1.0000
  F   F164      1.0  0.18111  0.75797  0.87001  1.0000
  F   F165      1.0  0.43515  0.24996  0.36414  1.0000
  F   F166      1.0  0.44140  0.24530  0.84837  1.0000
  F   F167      1.0  0.44063  0.74570  0.35109  1.0000
  F   F168      1.0  0.42823  0.75285  0.85366  1.0000
  F   F169      1.0  0.68931  0.23433  0.35901  1.0000
  F   F170      1.0  0.68144  0.24555  0.86070  1.0000
  F   F171      1.0  0.69232  0.74340  0.34739  1.0000
  F   F172      1.0  0.68571  0.73940  0.86648  1.0000
  F   F173      1.0  0.94141  0.25360  0.35814  1.0000
  F   F174      1.0  0.93349  0.25199  0.86468  1.0000
  F   F175      1.0  0.94243  0.75331  0.34582  1.0000
  F   F176      1.0  0.93323  0.74311  0.87465  1.0000
  F   F177      1.0  0.12599  0.12371  0.39863  1.0000
  F   F178      1.0  0.12535  0.13790  0.89255  1.0000
  F   F179      1.0  0.12607  0.62670  0.39433  1.0000
  F   F180      1.0  0.12716  0.63230  0.88694  1.0000
  F   F181      1.0  0.37602  0.12220  0.39637  1.0000
  F   F182      1.0  0.37702  0.12704  0.89461  1.0000
  F   F183      1.0  0.36926  0.61392  0.42158  1.0000
  F   F184      1.0  0.37513  0.64217  0.87964  1.0000
  F   F185      1.0  0.62886  0.11096  0.40383  1.0000
  F   F186      1.0  0.62184  0.11794  0.90473  1.0000
  F   F187      1.0  0.62746  0.62754  0.39421  1.0000
  F   F188      1.0  0.62342  0.63058  0.88905  1.0000
  F   F189      1.0  0.87912  0.14942  0.37972  1.0000
  F   F190      1.0  0.87750  0.12401  0.89158  1.0000
  F   F191      1.0  0.87780  0.62564  0.39134  1.0000
  F   F192      1.0  0.87843  0.61926  0.89362  1.0000
  F   F193      1.0  0.00991  0.35866  0.06881  1.0000
  F   F194      1.0  0.00784  0.35217  0.58019  1.0000
  F   F195      1.0  0.00191  0.85609  0.09281  1.0000
  F   F196      1.0  0.00762  0.86042  0.58026  1.0000
  F   F197      1.0  0.25558  0.35757  0.07362  1.0000
  F   F198      1.0  0.25651  0.36940  0.57114  1.0000
  F   F199      1.0  0.25864  0.86579  0.06539  1.0000
  F   F200      1.0  0.25301  0.86642  0.58533  1.0000
  F   F201      1.0  0.51020  0.35682  0.08426  1.0000
  F   F202      1.0  0.50750  0.37788  0.56746  1.0000
  F   F203      1.0  0.50938  0.85685  0.08056  1.0000
  F   F204      1.0  0.51116  0.86685  0.56361  1.0000
  F   F205      1.0  0.75533  0.35433  0.08164  1.0000
  F   F206      1.0  0.75946  0.36234  0.56778  1.0000
  F   F207      1.0  0.76045  0.86251  0.07248  1.0000
  F   F208      1.0  0.75607  0.85689  0.58079  1.0000
  F   F209      1.0  0.06986  0.49087  0.16992  1.0000
  F   F210      1.0  0.06343  0.49355  0.66950  1.0000
  F   F211      1.0  0.06267  0.99622  0.17745  1.0000
  F   F212      1.0  0.06776  0.99830  0.66785  1.0000
  F   F213      1.0  0.32293  0.48313  0.16648  1.0000
  F   F214      1.0  0.31051  0.48506  0.68568  1.0000
  F   F215      1.0  0.30953  0.99181  0.17817  1.0000
  F   F216      1.0  0.31526  0.98467  0.68091  1.0000
  F   F217      1.0  0.57742  0.46998  0.19175  1.0000
  F   F218      1.0  0.57050  0.48938  0.67668  1.0000
  F   F219      1.0  0.56640  0.97719  0.18616  1.0000
  F   F220      1.0  0.57359  0.98376  0.67984  1.0000
  F   F221      1.0  0.81896  0.48608  0.17234  1.0000
  F   F222      1.0  0.81688  0.48737  0.67294  1.0000
  F   F223      1.0  0.82783  0.98650  0.15636  1.0000
  F   F224      1.0  0.81630  0.97685  0.68562  1.0000
  F   F225      1.0  0.24073  0.13647  0.42390  1.0000
  F   F226      1.0  0.24189  0.15404  0.90854  1.0000
  F   F227      1.0  0.23981  0.65235  0.43055  1.0000
  F   F228      1.0  0.24062  0.64574  0.92062  1.0000
  F   F229      1.0  0.48580  0.13738  0.43971  1.0000
  F   F230      1.0  0.49118  0.12554  0.94494  1.0000
  F   F231      1.0  0.49409  0.64189  0.42346  1.0000
  F   F232      1.0  0.48818  0.64739  0.92603  1.0000
  F   F233      1.0  0.73754  0.12471  0.45137  1.0000
  F   F234      1.0  0.74502  0.13508  0.91162  1.0000
  F   F235      1.0  0.74457  0.64322  0.42306  1.0000
  F   F236      1.0  0.74819  0.63105  0.92221  1.0000
  F   F237      1.0  0.00352  0.13729  0.41509  1.0000
  F   F238      1.0  0.99271  0.13973  0.92837  1.0000
  F   F239      1.0  0.98847  0.63637  0.44562  1.0000
  F   F240      1.0  0.99309  0.64975  0.91189  1.0000
  F   F241      1.0  0.18270  0.01498  0.31286  1.0000
  F   F242      1.0  0.18612  0.01991  0.81651  1.0000
  F   F243      1.0  0.18006  0.51449  0.32278  1.0000
  F   F244      1.0  0.18320  0.51089  0.81798  1.0000
  F   F245      1.0  0.43444  0.01907  0.31718  1.0000
  F   F246      1.0  0.42627  0.00927  0.83334  1.0000
  F   F247      1.0  0.42290  0.51895  0.33379  1.0000
  F   F248      1.0  0.42931  0.52000  0.82009  1.0000
  F   F249      1.0  0.68528  0.00645  0.32301  1.0000
  F   F250      1.0  0.68417  0.01037  0.82617  1.0000
  F   F251      1.0  0.68173  0.52083  0.31579  1.0000
  F   F252      1.0  0.68542  0.52194  0.81445  1.0000
  F   F253      1.0  0.92350  0.02189  0.33364  1.0000
  F   F254      1.0  0.93364  0.01778  0.81551  1.0000
  F   F255      1.0  0.93099  0.51966  0.32618  1.0000
  F   F256      1.0  0.93181  0.51789  0.80868  1.0000
  F   F257      1.0  0.00074  0.24692  0.99865  1.0000
  F   F258      1.0  0.99712  0.24916  0.49878  1.0000
  F   F259      1.0  0.99380  0.73589  0.02315  1.0000
  F   F260      1.0  0.99715  0.76343  0.48669  1.0000
  F   F261      1.0  0.24983  0.26418  0.97959  1.0000
  F   F262      1.0  0.24592  0.24230  0.50496  1.0000
  F   F263      1.0  0.25151  0.75402  0.99805  1.0000
  F   F264      1.0  0.25131  0.75307  0.51988  1.0000
  F   F265      1.0  0.50809  0.26881  0.98753  1.0000
  F   F266      1.0  0.50108  0.24469  0.50629  1.0000
  F   F267      1.0  0.50180  0.73533  0.01542  1.0000
  F   F268      1.0  0.50138  0.76254  0.48688  1.0000
  F   F269      1.0  0.74375  0.23402  0.00795  1.0000
  F   F270      1.0  0.75178  0.27334  0.47022  1.0000
  F   F271      1.0  0.75208  0.75061  0.98808  1.0000
  F   F272      1.0  0.75326  0.74606  0.50734  1.0000
  F   F273      1.0  0.12209  0.99890  0.24826  1.0000
  F   F274      1.0  0.13229  0.01092  0.73206  1.0000
  F   F275      1.0  0.11934  0.49919  0.25761  1.0000
  F   F276      1.0  0.11441  0.49331  0.76695  1.0000
  F   F277      1.0  0.37340  0.99662  0.25233  1.0000
  F   F278      1.0  0.37644  0.00329  0.74611  1.0000
  F   F279      1.0  0.37128  0.48990  0.25839  1.0000
  F   F280      1.0  0.36902  0.48892  0.76109  1.0000
  F   F281      1.0  0.62928  0.99824  0.24568  1.0000
  F   F282      1.0  0.63007  0.99681  0.74647  1.0000
  F   F283      1.0  0.63436  0.49897  0.25139  1.0000
  F   F284      1.0  0.62660  0.49981  0.75206  1.0000
  F   F285      1.0  0.87500  0.00466  0.25104  1.0000
  F   F286      1.0  0.87302  0.99880  0.75360  1.0000
  F   F287      1.0  0.87030  0.48860  0.25794  1.0000
  F   F288      1.0  0.86733  0.49232  0.76507  1.0000
  F   F289      1.0  0.04168  0.02525  0.02182  1.0000
  F   F290      1.0  0.03961  0.03399  0.52839  1.0000
  F   F291      1.0  0.03684  0.53801  0.01491  1.0000
  F   F292      1.0  0.04433  0.52577  0.51512  1.0000
  F   F293      1.0  0.29037  0.03563  0.01397  1.0000
  F   F294      1.0  0.28967  0.03660  0.53330  1.0000
  F   F295      1.0  0.29142  0.53793  0.02373  1.0000
  F   F296      1.0  0.28414  0.53077  0.52547  1.0000
  F   F297      1.0  0.54706  0.02218  0.03715  1.0000
  F   F298      1.0  0.54661  0.02842  0.52035  1.0000
  F   F299      1.0  0.54068  0.52623  0.01973  1.0000
  F   F300      1.0  0.54608  0.53304  0.52749  1.0000
  F   F301      1.0  0.79383  0.03494  0.01622  1.0000
  F   F302      1.0  0.78764  0.03337  0.54240  1.0000
  F   F303      1.0  0.78600  0.53538  0.03101  1.0000
  F   F304      1.0  0.78403  0.53052  0.53324  1.0000
  F   F305      1.0  0.24203  0.41822  0.21036  1.0000
  F   F306      1.0  0.23263  0.41926  0.71492  1.0000
  F   F307      1.0  0.24146  0.90224  0.22430  1.0000
  F   F308      1.0  0.23052  0.91121  0.73511  1.0000
  F   F309      1.0  0.48760  0.41726  0.24116  1.0000
  F   F310      1.0  0.48318  0.41290  0.73165  1.0000
  F   F311      1.0  0.48920  0.91537  0.23508  1.0000
  F   F312      1.0  0.48245  0.90446  0.73325  1.0000
  F   F313      1.0  0.73262  0.39938  0.23786  1.0000
  F   F314      1.0  0.73351  0.40774  0.73193  1.0000
  F   F315      1.0  0.73359  0.91663  0.22171  1.0000
  F   F316      1.0  0.73397  0.91690  0.73039  1.0000
  F   F317      1.0  0.98945  0.41931  0.22150  1.0000
  F   F318      1.0  0.98746  0.40887  0.72736  1.0000
  F   F319      1.0  0.98215  0.92664  0.23161  1.0000
  F   F320      1.0  0.98753  0.92001  0.72422  1.0000
  F   F321      1.0  0.20355  0.48894  0.47151  1.0000
  F   F322      1.0  0.19848  0.47573  0.97265  1.0000
  F   F323      1.0  0.20570  0.97551  0.46969  1.0000
  F   F324      1.0  0.21304  0.96978  0.96361  1.0000
  F   F325      1.0  0.45565  0.47114  0.48235  1.0000
  F   F326      1.0  0.46215  0.46171  0.95958  1.0000
  F   F327      1.0  0.46182  0.96369  0.47107  1.0000
  F   F328      1.0  0.46384  0.96769  0.97301  1.0000
  F   F329      1.0  0.71094  0.46572  0.46834  1.0000
  F   F330      1.0  0.70664  0.45733  0.98352  1.0000
  F   F331      1.0  0.70927  0.95829  0.47779  1.0000
  F   F332      1.0  0.70507  0.96266  0.99477  1.0000
  F   F333      1.0  0.96652  0.47692  0.46954  1.0000
  F   F334      1.0  0.95714  0.47603  0.96219  1.0000
  F   F335      1.0  0.96288  0.94811  0.45876  1.0000
  F   F336      1.0  0.95320  0.96673  0.98421  1.0000
  F   F337      1.0  0.01263  0.09414  0.27378  1.0000
  F   F338      1.0  0.01195  0.08290  0.77614  1.0000
  F   F339      1.0  0.01971  0.59683  0.26783  1.0000
  F   F340      1.0  0.01770  0.59087  0.77236  1.0000
  F   F341      1.0  0.26618  0.11020  0.25770  1.0000
  F   F342      1.0  0.26348  0.09186  0.76961  1.0000
  F   F343      1.0  0.26876  0.59435  0.26259  1.0000
  F   F344      1.0  0.26105  0.59136  0.77345  1.0000
  F   F345      1.0  0.51357  0.09776  0.27386  1.0000
  F   F346      1.0  0.51782  0.09038  0.76282  1.0000
  F   F347      1.0  0.50863  0.60076  0.26921  1.0000
  F   F348      1.0  0.51201  0.60536  0.75679  1.0000
  F   F349      1.0  0.76768  0.08051  0.27113  1.0000
  F   F350      1.0  0.76342  0.07484  0.78503  1.0000
  F   F351      1.0  0.76678  0.59112  0.26652  1.0000
  F   F352      1.0  0.76535  0.58111  0.78037  1.0000
  F   F353      1.0  0.10807  0.39334  0.45314  1.0000
  F   F354      1.0  0.10472  0.41139  0.95820  1.0000
  F   F355      1.0  0.10022  0.91103  0.45721  1.0000
  F   F356      1.0  0.09882  0.91334  0.96039  1.0000
  F   F357      1.0  0.35098  0.39136  0.45610  1.0000
  F   F358      1.0  0.34932  0.42252  0.96287  1.0000
  F   F359      1.0  0.35354  0.90742  0.46018  1.0000
  F   F360      1.0  0.34722  0.89065  0.97261  1.0000
  F   F361      1.0  0.59882  0.39903  0.46687  1.0000
  F   F362      1.0  0.60161  0.41056  0.96498  1.0000
  F   F363      1.0  0.60205  0.91434  0.45502  1.0000
  F   F364      1.0  0.60332  0.91366  0.95378  1.0000
  F   F365      1.0  0.85071  0.42452  0.46670  1.0000
  F   F366      1.0  0.84526  0.40536  0.97291  1.0000
  F   F367      1.0  0.84705  0.91568  0.46781  1.0000
  F   F368      1.0  0.85127  0.91417  0.95673  1.0000
  F   F369      1.0  0.04402  0.30674  0.28613  1.0000
  F   F370      1.0  0.05058  0.29066  0.78910  1.0000
  F   F371      1.0  0.04321  0.79866  0.28739  1.0000
  F   F372      1.0  0.04877  0.79678  0.78062  1.0000
  F   F373      1.0  0.29776  0.29140  0.28583  1.0000
  F   F374      1.0  0.29558  0.30831  0.78711  1.0000
  F   F375      1.0  0.30714  0.79320  0.29306  1.0000
  F   F376      1.0  0.29279  0.80161  0.78406  1.0000
  F   F377      1.0  0.54433  0.27836  0.29153  1.0000
  F   F378      1.0  0.54784  0.29257  0.78086  1.0000
  F   F379      1.0  0.55367  0.79769  0.28963  1.0000
  F   F380      1.0  0.54978  0.79683  0.77722  1.0000
  F   F381      1.0  0.79631  0.29105  0.28945  1.0000
  F   F382      1.0  0.79437  0.29827  0.79547  1.0000
  F   F383      1.0  0.79608  0.79785  0.29275  1.0000
  F   F384      1.0  0.79221  0.79527  0.79579  1.0000
