data_image0
_chemical_formula_structural       Hf96F384
_chemical_formula_sum              "Hf96 F384"
_cell_length_a       31.0404
_cell_length_b       15.5177
_cell_length_c       15.51
_cell_angle_alpha    63.342
_cell_angle_beta     63.342
_cell_angle_gamma    80.1625

_space_group_name_H-M_alt    "P 1"
_space_group_IT_number       1

loop_
  _space_group_symop_operation_xyz
  'x, y, z'

loop_
  _atom_site_type_symbol
  _atom_site_label
  _atom_site_symmetry_multiplicity
  _atom_site_fract_x
  _atom_site_fract_y
  _atom_site_fract_z
  _atom_site_occupancy
  Hf  Hf1       1.0  0.20041  0.11058  0.36759  1.0000
  Hf  Hf2       1.0  0.19717  0.10523  0.86341  1.0000
  Hf  Hf3       1.0  0.19482  0.61364  0.36554  1.0000
  Hf  Hf4       1.0  0.19784  0.61482  0.87292  1.0000
  Hf  Hf5       1.0  0.44787  0.11452  0.36850  1.0000
  Hf  Hf6       1.0  0.44731  0.10540  0.87367  1.0000
  Hf  Hf7       1.0  0.44246  0.60419  0.37167  1.0000
  Hf  Hf8       1.0  0.44500  0.60405  0.87784  1.0000
  Hf  Hf9       1.0  0.69669  0.10642  0.36948  1.0000
  Hf  Hf10      1.0  0.69016  0.10750  0.88042  1.0000
  Hf  Hf11      1.0  0.69420  0.61045  0.38043  1.0000
  Hf  Hf12      1.0  0.69764  0.60176  0.87486  1.0000
  Hf  Hf13      1.0  0.94864  0.10919  0.37056  1.0000
  Hf  Hf14      1.0  0.94811  0.11236  0.87082  1.0000
  Hf  Hf15      1.0  0.94547  0.60758  0.37757  1.0000
  Hf  Hf16      1.0  0.93977  0.59724  0.89337  1.0000
  Hf  Hf17      1.0  0.05333  0.38455  0.13750  1.0000
  Hf  Hf18      1.0  0.05393  0.39035  0.62500  1.0000
  Hf  Hf19      1.0  0.05541  0.90130  0.11501  1.0000
  Hf  Hf20      1.0  0.05459  0.89224  0.62832  1.0000
  Hf  Hf21      1.0  0.30992  0.39468  0.10788  1.0000
  Hf  Hf22      1.0  0.30465  0.39720  0.62484  1.0000
  Hf  Hf23      1.0  0.30126  0.89496  0.12038  1.0000
  Hf  Hf24      1.0  0.30530  0.89734  0.62048  1.0000
  Hf  Hf25      1.0  0.55213  0.39042  0.12845  1.0000
  Hf  Hf26      1.0  0.55169  0.38837  0.63015  1.0000
  Hf  Hf27      1.0  0.55387  0.88522  0.12817  1.0000
  Hf  Hf28      1.0  0.55296  0.89153  0.62735  1.0000
  Hf  Hf29      1.0  0.80169  0.39236  0.12578  1.0000
  Hf  Hf30      1.0  0.79705  0.38790  0.63116  1.0000
  Hf  Hf31      1.0  0.80434  0.89347  0.12272  1.0000
  Hf  Hf32      1.0  0.79921  0.88769  0.63609  1.0000
  Hf  Hf33      1.0  0.05704  0.18248  0.42180  1.0000
  Hf  Hf34      1.0  0.05578  0.18244  0.91810  1.0000
  Hf  Hf35      1.0  0.05279  0.68261  0.41725  1.0000
  Hf  Hf36      1.0  0.05604  0.68217  0.92342  1.0000
  Hf  Hf37      1.0  0.30736  0.18676  0.41012  1.0000
  Hf  Hf38      1.0  0.30664  0.18195  0.91564  1.0000
  Hf  Hf39      1.0  0.30795  0.69415  0.41023  1.0000
  Hf  Hf40      1.0  0.30952  0.68970  0.91351  1.0000
  Hf  Hf41      1.0  0.55662  0.17270  0.42043  1.0000
  Hf  Hf42      1.0  0.55618  0.18007  0.91462  1.0000
  Hf  Hf43      1.0  0.55353  0.67888  0.42008  1.0000
  Hf  Hf44      1.0  0.55688  0.68125  0.91901  1.0000
  Hf  Hf45      1.0  0.80714  0.17921  0.41680  1.0000
  Hf  Hf46      1.0  0.80609  0.17995  0.91544  1.0000
  Hf  Hf47      1.0  0.81018  0.68309  0.41744  1.0000
  Hf  Hf48      1.0  0.80145  0.68430  0.92861  1.0000
  Hf  Hf49      1.0  0.16307  0.38424  0.33103  1.0000
  Hf  Hf50      1.0  0.16009  0.39364  0.82660  1.0000
  Hf  Hf51      1.0  0.15251  0.88751  0.34041  1.0000
  Hf  Hf52      1.0  0.15465  0.88686  0.83504  1.0000
  Hf  Hf53      1.0  0.40682  0.38851  0.33354  1.0000
  Hf  Hf54      1.0  0.41054  0.38699  0.82784  1.0000
  Hf  Hf55      1.0  0.40813  0.88427  0.33553  1.0000
  Hf  Hf56      1.0  0.40891  0.89124  0.82590  1.0000
  Hf  Hf57      1.0  0.65806  0.38476  0.33775  1.0000
  Hf  Hf58      1.0  0.65514  0.38525  0.84220  1.0000
  Hf  Hf59      1.0  0.65718  0.88565  0.33562  1.0000
  Hf  Hf60      1.0  0.65916  0.87787  0.84495  1.0000
  Hf  Hf61      1.0  0.90639  0.38529  0.34124  1.0000
  Hf  Hf62      1.0  0.90640  0.38807  0.83853  1.0000
  Hf  Hf63      1.0  0.91296  0.88756  0.33615  1.0000
  Hf  Hf64      1.0  0.90652  0.88458  0.83851  1.0000
  Hf  Hf65      1.0  0.19476  0.31795  0.07598  1.0000
  Hf  Hf66      1.0  0.19524  0.32701  0.57812  1.0000
  Hf  Hf67      1.0  0.19360  0.81805  0.08042  1.0000
  Hf  Hf68      1.0  0.19704  0.82079  0.57935  1.0000
  Hf  Hf69      1.0  0.44634  0.30638  0.08293  1.0000
  Hf  Hf70      1.0  0.44506  0.32045  0.58009  1.0000
  Hf  Hf71      1.0  0.44393  0.81543  0.07684  1.0000
  Hf  Hf72      1.0  0.44450  0.81744  0.58462  1.0000
  Hf  Hf73      1.0  0.69077  0.31298  0.08916  1.0000
  Hf  Hf74      1.0  0.69226  0.30881  0.58747  1.0000
  Hf  Hf75      1.0  0.69751  0.82714  0.08056  1.0000
  Hf  Hf76      1.0  0.69353  0.82139  0.58305  1.0000
  Hf  Hf77      1.0  0.94910  0.32254  0.08352  1.0000
  Hf  Hf78      1.0  0.94376  0.31847  0.58422  1.0000
  Hf  Hf79      1.0  0.94344  0.81665  0.08492  1.0000
  Hf  Hf80      1.0  0.94248  0.81857  0.58978  1.0000
  Hf  Hf81      1.0  0.09311  0.11175  0.16376  1.0000
  Hf  Hf82      1.0  0.09263  0.12127  0.65764  1.0000
  Hf  Hf83      1.0  0.09577  0.61377  0.16415  1.0000
  Hf  Hf84      1.0  0.08997  0.61314  0.66960  1.0000
  Hf  Hf85      1.0  0.34605  0.11213  0.15859  1.0000
  Hf  Hf86      1.0  0.34182  0.11808  0.66325  1.0000
  Hf  Hf87      1.0  0.34044  0.61431  0.16354  1.0000
  Hf  Hf88      1.0  0.34383  0.61886  0.66615  1.0000
  Hf  Hf89      1.0  0.58952  0.11853  0.16328  1.0000
  Hf  Hf90      1.0  0.59266  0.10365  0.67313  1.0000
  Hf  Hf91      1.0  0.59310  0.60781  0.16356  1.0000
  Hf  Hf92      1.0  0.59159  0.61560  0.66915  1.0000
  Hf  Hf93      1.0  0.84375  0.10620  0.16233  1.0000
  Hf  Hf94      1.0  0.83693  0.11180  0.67028  1.0000
  Hf  Hf95      1.0  0.83879  0.60994  0.17445  1.0000
  Hf  Hf96      1.0  0.84053  0.60598  0.67643  1.0000
  F   F1        1.0  0.08616  0.13600  0.29945  1.0000
  F   F2        1.0  0.08399  0.13366  0.80245  1.0000
  F   F3        1.0  0.08051  0.62400  0.29816  1.0000
  F   F4        1.0  0.07738  0.62992  0.81160  1.0000
  F   F5        1.0  0.33148  0.12838  0.30444  1.0000
  F   F6        1.0  0.32377  0.13121  0.80674  1.0000
  F   F7        1.0  0.33521  0.64345  0.29363  1.0000
  F   F8        1.0  0.32703  0.63752  0.80436  1.0000
  F   F9        1.0  0.58412  0.14397  0.29882  1.0000
  F   F10       1.0  0.57776  0.11313  0.80988  1.0000
  F   F11       1.0  0.57969  0.62339  0.30345  1.0000
  F   F12       1.0  0.58422  0.63288  0.79979  1.0000
  F   F13       1.0  0.83181  0.11977  0.29483  1.0000
  F   F14       1.0  0.83058  0.13916  0.79026  1.0000
  F   F15       1.0  0.83411  0.64006  0.30103  1.0000
  F   F16       1.0  0.82720  0.63097  0.81992  1.0000
  F   F17       1.0  0.19665  0.35883  0.43373  1.0000
  F   F18       1.0  0.18742  0.34676  0.93549  1.0000
  F   F19       1.0  0.17495  0.82929  0.46397  1.0000
  F   F20       1.0  0.17775  0.83802  0.94859  1.0000
  F   F21       1.0  0.43143  0.33650  0.44640  1.0000
  F   F22       1.0  0.42762  0.33644  0.95765  1.0000
  F   F23       1.0  0.43715  0.84321  0.43978  1.0000
  F   F24       1.0  0.43383  0.83491  0.94004  1.0000
  F   F25       1.0  0.68470  0.32599  0.45698  1.0000
  F   F26       1.0  0.68996  0.35044  0.94202  1.0000
  F   F27       1.0  0.68094  0.84861  0.44660  1.0000
  F   F28       1.0  0.68987  0.84010  0.94597  1.0000
  F   F29       1.0  0.94094  0.34237  0.44395  1.0000
  F   F30       1.0  0.93240  0.34947  0.94501  1.0000
  F   F31       1.0  0.93601  0.82962  0.44741  1.0000
  F   F32       1.0  0.94006  0.85676  0.93412  1.0000
  F   F33       1.0  0.17032  0.34526  0.20572  1.0000
  F   F34       1.0  0.17253  0.38461  0.68488  1.0000
  F   F35       1.0  0.16337  0.86515  0.19867  1.0000
  F   F36       1.0  0.17020  0.87721  0.69387  1.0000
  F   F37       1.0  0.41871  0.36743  0.19191  1.0000
  F   F38       1.0  0.42294  0.37041  0.70015  1.0000
  F   F39       1.0  0.42610  0.87953  0.18385  1.0000
  F   F40       1.0  0.41667  0.86772  0.70187  1.0000
  F   F41       1.0  0.67271  0.37157  0.19578  1.0000
  F   F42       1.0  0.66598  0.35816  0.71211  1.0000
  F   F43       1.0  0.67643  0.87944  0.19728  1.0000
  F   F44       1.0  0.67457  0.86599  0.70170  1.0000
  F   F45       1.0  0.92387  0.38453  0.19446  1.0000
  F   F46       1.0  0.92365  0.37834  0.69061  1.0000
  F   F47       1.0  0.92169  0.88259  0.18597  1.0000
  F   F48       1.0  0.91747  0.86440  0.70877  1.0000
  F   F49       1.0  0.05910  0.15380  0.06785  1.0000
  F   F50       1.0  0.06828  0.16563  0.54687  1.0000
  F   F51       1.0  0.06870  0.65413  0.05294  1.0000
  F   F52       1.0  0.06126  0.65928  0.55293  1.0000
  F   F53       1.0  0.31440  0.15627  0.06091  1.0000
  F   F54       1.0  0.32119  0.16297  0.53912  1.0000
  F   F55       1.0  0.30855  0.65850  0.05116  1.0000
  F   F56       1.0  0.30911  0.66065  0.55439  1.0000
  F   F57       1.0  0.57090  0.14874  0.04956  1.0000
  F   F58       1.0  0.56874  0.16368  0.54264  1.0000
  F   F59       1.0  0.56339  0.64034  0.06192  1.0000
  F   F60       1.0  0.56422  0.66180  0.56056  1.0000
  F   F61       1.0  0.80811  0.15060  0.06504  1.0000
  F   F62       1.0  0.82036  0.16737  0.54162  1.0000
  F   F63       1.0  0.81563  0.66472  0.05754  1.0000
  F   F64       1.0  0.81540  0.64811  0.56508  1.0000
  F   F65       1.0  0.20896  0.18349  0.20630  1.0000
  F   F66       1.0  0.19719  0.20382  0.71128  1.0000
  F   F67       1.0  0.20831  0.70162  0.20661  1.0000
  F   F68       1.0  0.20537  0.70653  0.70883  1.0000
  F   F69       1.0  0.46490  0.20140  0.19351  1.0000
  F   F70       1.0  0.45648  0.20402  0.70263  1.0000
  F   F71       1.0  0.45033  0.71586  0.20184  1.0000
  F   F72       1.0  0.46148  0.69433  0.70689  1.0000
  F   F73       1.0  0.70636  0.20139  0.20687  1.0000
  F   F74       1.0  0.70520  0.19962  0.70390  1.0000
  F   F75       1.0  0.70173  0.69789  0.21069  1.0000
  F   F76       1.0  0.70605  0.70252  0.71012  1.0000
  F   F77       1.0  0.95945  0.19386  0.21418  1.0000
  F   F78       1.0  0.94635  0.20315  0.71194  1.0000
  F   F79       1.0  0.95522  0.70009  0.20662  1.0000
  F   F80       1.0  0.94239  0.70157  0.72737  1.0000
  F   F81       1.0  0.15423  0.09189  0.03811  1.0000
  F   F82       1.0  0.15398  0.09706  0.53815  1.0000
  F   F83       1.0  0.15201  0.59671  0.02460  1.0000
  F   F84       1.0  0.14214  0.59967  0.54058  1.0000
  F   F85       1.0  0.40400  0.10644  0.02992  1.0000
  F   F86       1.0  0.40057  0.12359  0.53473  1.0000
  F   F87       1.0  0.39786  0.58174  0.03469  1.0000
  F   F88       1.0  0.39687  0.59767  0.53509  1.0000
  F   F89       1.0  0.65053  0.08417  0.03684  1.0000
  F   F90       1.0  0.65094  0.08506  0.53604  1.0000
  F   F91       1.0  0.64855  0.58191  0.04092  1.0000
  F   F92       1.0  0.64767  0.59724  0.54842  1.0000
  F   F93       1.0  0.89524  0.08655  0.03238  1.0000
  F   F94       1.0  0.89842  0.09074  0.51836  1.0000
  F   F95       1.0  0.89635  0.57299  0.04930  1.0000
  F   F96       1.0  0.89934  0.59622  0.54023  1.0000
  F   F97       1.0  0.15314  0.20496  0.10750  1.0000
  F   F98       1.0  0.15656  0.20851  0.60103  1.0000
  F   F99       1.0  0.15815  0.68846  0.11872  1.0000
  F   F100      1.0  0.15273  0.68513  0.64035  1.0000
  F   F101      1.0  0.40402  0.18016  0.13864  1.0000
  F   F102      1.0  0.40027  0.20526  0.63794  1.0000
  F   F103      1.0  0.40118  0.69210  0.11279  1.0000
  F   F104      1.0  0.41212  0.68519  0.61195  1.0000
  F   F105      1.0  0.65184  0.20032  0.12667  1.0000
  F   F106      1.0  0.64743  0.18416  0.63917  1.0000
  F   F107      1.0  0.64607  0.70804  0.12996  1.0000
  F   F108      1.0  0.65085  0.70852  0.61203  1.0000
  F   F109      1.0  0.90916  0.19926  0.10324  1.0000
  F   F110      1.0  0.90161  0.19852  0.61087  1.0000
  F   F111      1.0  0.90272  0.69824  0.09671  1.0000
  F   F112      1.0  0.89484  0.68339  0.64060  1.0000
  F   F113      1.0  0.09853  0.30019  0.38481  1.0000
  F   F114      1.0  0.09763  0.29710  0.87050  1.0000
  F   F115      1.0  0.09344  0.81251  0.37710  1.0000
  F   F116      1.0  0.09855  0.80041  0.88212  1.0000
  F   F117      1.0  0.34599  0.31372  0.37356  1.0000
  F   F118      1.0  0.34490  0.28870  0.89332  1.0000
  F   F119      1.0  0.35455  0.80779  0.35455  1.0000
  F   F120      1.0  0.34789  0.80428  0.88574  1.0000
  F   F121      1.0  0.59317  0.30062  0.37194  1.0000
  F   F122      1.0  0.59387  0.30523  0.89025  1.0000
  F   F123      1.0  0.59322  0.79515  0.38626  1.0000
  F   F124      1.0  0.59852  0.79446  0.89548  1.0000
  F   F125      1.0  0.84792  0.30191  0.37303  1.0000
  F   F126      1.0  0.84894  0.29891  0.88089  1.0000
  F   F127      1.0  0.85522  0.79549  0.38705  1.0000
  F   F128      1.0  0.84388  0.79926  0.87182  1.0000
  F   F129      1.0  0.05745  0.24864  0.15522  1.0000
  F   F130      1.0  0.06078  0.25185  0.64389  1.0000
  F   F131      1.0  0.07565  0.75314  0.11944  1.0000
  F   F132      1.0  0.07775  0.76221  0.61721  1.0000
  F   F133      1.0  0.32001  0.24941  0.13585  1.0000
  F   F134      1.0  0.31407  0.25349  0.63629  1.0000
  F   F135      1.0  0.30875  0.74599  0.14742  1.0000
  F   F136      1.0  0.31970  0.74978  0.64743  1.0000
  F   F137      1.0  0.56522  0.26008  0.12321  1.0000
  F   F138      1.0  0.56473  0.25578  0.62761  1.0000
  F   F139      1.0  0.55917  0.74447  0.14271  1.0000
  F   F140      1.0  0.55205  0.75440  0.66844  1.0000
  F   F141      1.0  0.82270  0.25307  0.12868  1.0000
  F   F142      1.0  0.80412  0.24948  0.65454  1.0000
  F   F143      1.0  0.80271  0.74595  0.16829  1.0000
  F   F144      1.0  0.80342  0.74343  0.67073  1.0000
  F   F145      1.0  0.12657  0.38248  0.10254  1.0000
  F   F146      1.0  0.12617  0.36905  0.59701  1.0000
  F   F147      1.0  0.12330  0.86820  0.10413  1.0000
  F   F148      1.0  0.12066  0.89174  0.59950  1.0000
  F   F149      1.0  0.37313  0.35614  0.11873  1.0000
  F   F150      1.0  0.37567  0.37025  0.60738  1.0000
  F   F151      1.0  0.37276  0.86032  0.10941  1.0000
  F   F152      1.0  0.37446  0.88210  0.59636  1.0000
  F   F153      1.0  0.62002  0.36323  0.11897  1.0000
  F   F154      1.0  0.62079  0.35916  0.61285  1.0000
  F   F155      1.0  0.62673  0.88213  0.10404  1.0000
  F   F156      1.0  0.62259  0.85710  0.62051  1.0000
  F   F157      1.0  0.87478  0.37189  0.12305  1.0000
  F   F158      1.0  0.87680  0.35917  0.61198  1.0000
  F   F159      1.0  0.87318  0.86367  0.10901  1.0000
  F   F160      1.0  0.87511  0.87184  0.61147  1.0000
  F   F161      1.0  0.19057  0.24548  0.35958  1.0000
  F   F162      1.0  0.18796  0.25940  0.84004  1.0000
  F   F163      1.0  0.18083  0.74648  0.36346  1.0000
  F   F164      1.0  0.19268  0.75278  0.84169  1.0000
  F   F165      1.0  0.44543  0.25689  0.33187  1.0000
  F   F166      1.0  0.44715  0.24992  0.85142  1.0000
  F   F167      1.0  0.43836  0.74774  0.34996  1.0000
  F   F168      1.0  0.43825  0.74331  0.85053  1.0000
  F   F169      1.0  0.67118  0.24093  0.37799  1.0000
  F   F170      1.0  0.67757  0.24408  0.87844  1.0000
  F   F171      1.0  0.68399  0.74636  0.36222  1.0000
  F   F172      1.0  0.69259  0.74413  0.85302  1.0000
  F   F173      1.0  0.92858  0.24665  0.36789  1.0000
  F   F174      1.0  0.93633  0.25663  0.85458  1.0000
  F   F175      1.0  0.94222  0.74704  0.34736  1.0000
  F   F176      1.0  0.92338  0.74285  0.87743  1.0000
  F   F177      1.0  0.12436  0.11771  0.40657  1.0000
  F   F178      1.0  0.12516  0.11698  0.90607  1.0000
  F   F179      1.0  0.12353  0.62591  0.38683  1.0000
  F   F180      1.0  0.12939  0.64338  0.88593  1.0000
  F   F181      1.0  0.38314  0.15360  0.36403  1.0000
  F   F182      1.0  0.37814  0.13053  0.88476  1.0000
  F   F183      1.0  0.37156  0.62789  0.39838  1.0000
  F   F184      1.0  0.37755  0.63917  0.88229  1.0000
  F   F185      1.0  0.62544  0.10970  0.40356  1.0000
  F   F186      1.0  0.62520  0.13916  0.88013  1.0000
  F   F187      1.0  0.62260  0.62509  0.41492  1.0000
  F   F188      1.0  0.62616  0.64047  0.88666  1.0000
  F   F189      1.0  0.87565  0.12846  0.37567  1.0000
  F   F190      1.0  0.87757  0.14206  0.88593  1.0000
  F   F191      1.0  0.87323  0.61607  0.40436  1.0000
  F   F192      1.0  0.87034  0.62352  0.90822  1.0000
  F   F193      1.0  0.01255  0.36945  0.06998  1.0000
  F   F194      1.0  0.01287  0.36471  0.56352  1.0000
  F   F195      1.0  0.01042  0.86126  0.07491  1.0000
  F   F196      1.0  0.00772  0.85530  0.57284  1.0000
  F   F197      1.0  0.26614  0.34549  0.07332  1.0000
  F   F198      1.0  0.25753  0.36196  0.57944  1.0000
  F   F199      1.0  0.25677  0.86896  0.05937  1.0000
  F   F200      1.0  0.25864  0.85374  0.58232  1.0000
  F   F201      1.0  0.51067  0.36792  0.06673  1.0000
  F   F202      1.0  0.50542  0.36777  0.57553  1.0000
  F   F203      1.0  0.50895  0.87174  0.06059  1.0000
  F   F204      1.0  0.50333  0.86110  0.57793  1.0000
  F   F205      1.0  0.75652  0.35552  0.07680  1.0000
  F   F206      1.0  0.75365  0.36570  0.56688  1.0000
  F   F207      1.0  0.76026  0.85563  0.07135  1.0000
  F   F208      1.0  0.75785  0.87603  0.56659  1.0000
  F   F209      1.0  0.07307  0.48713  0.19099  1.0000
  F   F210      1.0  0.06516  0.48198  0.68661  1.0000
  F   F211      1.0  0.07695  0.98783  0.16082  1.0000
  F   F212      1.0  0.06107  0.99587  0.68312  1.0000
  F   F213      1.0  0.32015  0.49548  0.16380  1.0000
  F   F214      1.0  0.32213  0.48653  0.67468  1.0000
  F   F215      1.0  0.32788  0.99682  0.13681  1.0000
  F   F216      1.0  0.31721  0.99428  0.68017  1.0000
  F   F217      1.0  0.56080  0.47493  0.19858  1.0000
  F   F218      1.0  0.57343  0.48844  0.67569  1.0000
  F   F219      1.0  0.56830  0.98116  0.18076  1.0000
  F   F220      1.0  0.57374  0.98276  0.65982  1.0000
  F   F221      1.0  0.81253  0.49076  0.18513  1.0000
  F   F222      1.0  0.81977  0.47755  0.68099  1.0000
  F   F223      1.0  0.81921  0.98286  0.16618  1.0000
  F   F224      1.0  0.81770  0.98766  0.67557  1.0000
  F   F225      1.0  0.24690  0.14280  0.41700  1.0000
  F   F226      1.0  0.24378  0.13829  0.90934  1.0000
  F   F227      1.0  0.24812  0.64683  0.41890  1.0000
  F   F228      1.0  0.24300  0.63872  0.93375  1.0000
  F   F229      1.0  0.49247  0.13971  0.43071  1.0000
  F   F230      1.0  0.49483  0.12610  0.94119  1.0000
  F   F231      1.0  0.48697  0.63519  0.43335  1.0000
  F   F232      1.0  0.49338  0.63693  0.91929  1.0000
  F   F233      1.0  0.74320  0.14697  0.40524  1.0000
  F   F234      1.0  0.74321  0.14236  0.90545  1.0000
  F   F235      1.0  0.74518  0.64227  0.42286  1.0000
  F   F236      1.0  0.74107  0.62865  0.94180  1.0000
  F   F237      1.0  0.99191  0.15867  0.41143  1.0000
  F   F238      1.0  0.99234  0.14511  0.91393  1.0000
  F   F239      1.0  0.99534  0.63005  0.42753  1.0000
  F   F240      1.0  0.98534  0.63286  0.94353  1.0000
  F   F241      1.0  0.18574  0.01076  0.32891  1.0000
  F   F242      1.0  0.18128  0.01840  0.80678  1.0000
  F   F243      1.0  0.18572  0.51160  0.32730  1.0000
  F   F244      1.0  0.17755  0.52045  0.82498  1.0000
  F   F245      1.0  0.42702  0.01301  0.32727  1.0000
  F   F246      1.0  0.43542  0.01479  0.82452  1.0000
  F   F247      1.0  0.42683  0.52823  0.30459  1.0000
  F   F248      1.0  0.43315  0.50638  0.82726  1.0000
  F   F249      1.0  0.68166  0.02110  0.31241  1.0000
  F   F250      1.0  0.67792  0.01999  0.81480  1.0000
  F   F251      1.0  0.67604  0.52444  0.32972  1.0000
  F   F252      1.0  0.68109  0.52255  0.81859  1.0000
  F   F253      1.0  0.93582  0.01506  0.31731  1.0000
  F   F254      1.0  0.92723  0.01305  0.83487  1.0000
  F   F255      1.0  0.92751  0.51307  0.33240  1.0000
  F   F256      1.0  0.93517  0.51324  0.82372  1.0000
  F   F257      1.0  0.00095  0.25259  0.99222  1.0000
  F   F258      1.0  0.00447  0.24930  0.50541  1.0000
  F   F259      1.0  0.00112  0.74351  0.01763  1.0000
  F   F260      1.0  0.99705  0.74228  0.50485  1.0000
  F   F261      1.0  0.25510  0.25796  0.98960  1.0000
  F   F262      1.0  0.25006  0.24029  0.50806  1.0000
  F   F263      1.0  0.24879  0.76575  0.98950  1.0000
  F   F264      1.0  0.25525  0.78081  0.48316  1.0000
  F   F265      1.0  0.50437  0.26158  0.98503  1.0000
  F   F266      1.0  0.49308  0.24901  0.50393  1.0000
  F   F267      1.0  0.50074  0.73884  0.00606  1.0000
  F   F268      1.0  0.49904  0.76050  0.49538  1.0000
  F   F269      1.0  0.74936  0.24667  0.99621  1.0000
  F   F270      1.0  0.74656  0.22710  0.50540  1.0000
  F   F271      1.0  0.74640  0.75171  0.99997  1.0000
  F   F272      1.0  0.75064  0.75102  0.50437  1.0000
  F   F273      1.0  0.12307  0.01104  0.25447  1.0000
  F   F274      1.0  0.12024  0.99990  0.74147  1.0000
  F   F275      1.0  0.13840  0.49777  0.23668  1.0000
  F   F276      1.0  0.12434  0.49909  0.75428  1.0000
  F   F277      1.0  0.37314  0.99072  0.25545  1.0000
  F   F278      1.0  0.38169  0.01516  0.73759  1.0000
  F   F279      1.0  0.37279  0.49944  0.24695  1.0000
  F   F280      1.0  0.37195  0.50217  0.76379  1.0000
  F   F281      1.0  0.61659  0.99573  0.25687  1.0000
  F   F282      1.0  0.61215  0.97864  0.77152  1.0000
  F   F283      1.0  0.63282  0.50050  0.23691  1.0000
  F   F284      1.0  0.62116  0.49815  0.76400  1.0000
  F   F285      1.0  0.87737  0.99260  0.25416  1.0000
  F   F286      1.0  0.87402  0.99121  0.75671  1.0000
  F   F287      1.0  0.86860  0.49751  0.26246  1.0000
  F   F288      1.0  0.87763  0.50239  0.74596  1.0000
  F   F289      1.0  0.04000  0.03238  0.02952  1.0000
  F   F290      1.0  0.03416  0.02703  0.53726  1.0000
  F   F291      1.0  0.04680  0.52403  0.02225  1.0000
  F   F292      1.0  0.03917  0.53150  0.53478  1.0000
  F   F293      1.0  0.28968  0.03235  0.02197  1.0000
  F   F294      1.0  0.29748  0.03374  0.51496  1.0000
  F   F295      1.0  0.29598  0.52855  0.01502  1.0000
  F   F296      1.0  0.28932  0.53016  0.53651  1.0000
  F   F297      1.0  0.55167  0.02978  0.01999  1.0000
  F   F298      1.0  0.53954  0.01902  0.51740  1.0000
  F   F299      1.0  0.54696  0.52931  0.02279  1.0000
  F   F300      1.0  0.54563  0.52633  0.52650  1.0000
  F   F301      1.0  0.80094  0.02557  0.00607  1.0000
  F   F302      1.0  0.78608  0.03754  0.52828  1.0000
  F   F303      1.0  0.78148  0.52706  0.05738  1.0000
  F   F304      1.0  0.79152  0.52635  0.52437  1.0000
  F   F305      1.0  0.23665  0.40962  0.21646  1.0000
  F   F306      1.0  0.23545  0.42653  0.73553  1.0000
  F   F307      1.0  0.23222  0.91333  0.21891  1.0000
  F   F308      1.0  0.23518  0.90851  0.72662  1.0000
  F   F309      1.0  0.48475  0.42171  0.21739  1.0000
  F   F310      1.0  0.48738  0.41869  0.73448  1.0000
  F   F311      1.0  0.48602  0.90099  0.23665  1.0000
  F   F312      1.0  0.48008  0.92506  0.71683  1.0000
  F   F313      1.0  0.73116  0.40476  0.24225  1.0000
  F   F314      1.0  0.73048  0.42489  0.72226  1.0000
  F   F315      1.0  0.73689  0.91655  0.22163  1.0000
  F   F316      1.0  0.73463  0.92079  0.72329  1.0000
  F   F317      1.0  0.98721  0.42059  0.22058  1.0000
  F   F318      1.0  0.98551  0.41510  0.72370  1.0000
  F   F319      1.0  0.98357  0.92619  0.21566  1.0000
  F   F320      1.0  0.98256  0.89958  0.73737  1.0000
  F   F321      1.0  0.20556  0.48724  0.48538  1.0000
  F   F322      1.0  0.21818  0.46311  0.96280  1.0000
  F   F323      1.0  0.20452  0.96852  0.48078  1.0000
  F   F324      1.0  0.20020  0.96728  0.96467  1.0000
  F   F325      1.0  0.45526  0.47123  0.47516  1.0000
  F   F326      1.0  0.45061  0.46243  0.97563  1.0000
  F   F327      1.0  0.45853  0.97541  0.47532  1.0000
  F   F328      1.0  0.45359  0.95953  0.97856  1.0000
  F   F329      1.0  0.70565  0.45849  0.47080  1.0000
  F   F330      1.0  0.71195  0.46457  0.96870  1.0000
  F   F331      1.0  0.69973  0.97131  0.47796  1.0000
  F   F332      1.0  0.70627  0.97248  0.96984  1.0000
  F   F333      1.0  0.96114  0.47056  0.47031  1.0000
  F   F334      1.0  0.96096  0.46632  0.97558  1.0000
  F   F335      1.0  0.96151  0.96172  0.47745  1.0000
  F   F336      1.0  0.95502  0.97326  0.97581  1.0000
  F   F337      1.0  0.01843  0.07949  0.28739  1.0000
  F   F338      1.0  0.01321  0.09614  0.77754  1.0000
  F   F339      1.0  0.01264  0.61088  0.26186  1.0000
  F   F340      1.0  0.01402  0.59754  0.77141  1.0000
  F   F341      1.0  0.27036  0.07428  0.28081  1.0000
  F   F342      1.0  0.26366  0.10793  0.75030  1.0000
  F   F343      1.0  0.26782  0.57865  0.27990  1.0000
  F   F344      1.0  0.26787  0.58226  0.76932  1.0000
  F   F345      1.0  0.51716  0.08419  0.27345  1.0000
  F   F346      1.0  0.51712  0.07713  0.76981  1.0000
  F   F347      1.0  0.51249  0.58870  0.26993  1.0000
  F   F348      1.0  0.51451  0.57017  0.79541  1.0000
  F   F349      1.0  0.77187  0.08460  0.26450  1.0000
  F   F350      1.0  0.76561  0.07951  0.77507  1.0000
  F   F351      1.0  0.76300  0.58655  0.28174  1.0000
  F   F352      1.0  0.76468  0.58527  0.78043  1.0000
  F   F353      1.0  0.10658  0.40427  0.46244  1.0000
  F   F354      1.0  0.09829  0.39621  0.96793  1.0000
  F   F355      1.0  0.10037  0.92633  0.44355  1.0000
  F   F356      1.0  0.09829  0.92114  0.96053  1.0000
  F   F357      1.0  0.34790  0.42611  0.45770  1.0000
  F   F358      1.0  0.35270  0.40773  0.94769  1.0000
  F   F359      1.0  0.34411  0.88554  0.46604  1.0000
  F   F360      1.0  0.34853  0.92072  0.94972  1.0000
  F   F361      1.0  0.60197  0.40612  0.45405  1.0000
  F   F362      1.0  0.60231  0.42502  0.96833  1.0000
  F   F363      1.0  0.60108  0.90958  0.46944  1.0000
  F   F364      1.0  0.60079  0.90104  0.96598  1.0000
  F   F365      1.0  0.85141  0.38699  0.47903  1.0000
  F   F366      1.0  0.84993  0.40700  0.96873  1.0000
  F   F367      1.0  0.85239  0.92242  0.46916  1.0000
  F   F368      1.0  0.84964  0.89247  0.96951  1.0000
  F   F369      1.0  0.05479  0.31021  0.28239  1.0000
  F   F370      1.0  0.05001  0.30675  0.78134  1.0000
  F   F371      1.0  0.04437  0.79198  0.28230  1.0000
  F   F372      1.0  0.04671  0.80104  0.79238  1.0000
  F   F373      1.0  0.29454  0.30412  0.29059  1.0000
  F   F374      1.0  0.29799  0.29453  0.78507  1.0000
  F   F375      1.0  0.29399  0.81461  0.27905  1.0000
  F   F376      1.0  0.30053  0.80941  0.78866  1.0000
  F   F377      1.0  0.53699  0.28835  0.27966  1.0000
  F   F378      1.0  0.54465  0.28934  0.78586  1.0000
  F   F379      1.0  0.55256  0.79646  0.27380  1.0000
  F   F380      1.0  0.55155  0.81103  0.79390  1.0000
  F   F381      1.0  0.80162  0.28681  0.27806  1.0000
  F   F382      1.0  0.78864  0.29839  0.79133  1.0000
  F   F383      1.0  0.80511  0.80288  0.29905  1.0000
  F   F384      1.0  0.78275  0.80272  0.80606  1.0000
