data_image0
_chemical_formula_structural       Hf96F384
_chemical_formula_sum              "Hf96 F384"
_cell_length_a       31.0555
_cell_length_b       15.5256
_cell_length_c       15.518
_cell_angle_alpha    63.342
_cell_angle_beta     63.342
_cell_angle_gamma    80.1625

_space_group_name_H-M_alt    "P 1"
_space_group_IT_number       1

loop_
  _space_group_symop_operation_xyz
  'x, y, z'

loop_
  _atom_site_type_symbol
  _atom_site_label
  _atom_site_symmetry_multiplicity
  _atom_site_fract_x
  _atom_site_fract_y
  _atom_site_fract_z
  _atom_site_occupancy
  Hf  Hf1       1.0  0.19386  0.10754  0.37616  1.0000
  Hf  Hf2       1.0  0.20227  0.11179  0.85811  1.0000
  Hf  Hf3       1.0  0.19826  0.60431  0.37930  1.0000
  Hf  Hf4       1.0  0.19727  0.60411  0.87740  1.0000
  Hf  Hf5       1.0  0.44916  0.10746  0.37288  1.0000
  Hf  Hf6       1.0  0.44458  0.11240  0.88439  1.0000
  Hf  Hf7       1.0  0.44780  0.60833  0.36824  1.0000
  Hf  Hf8       1.0  0.44675  0.60724  0.87518  1.0000
  Hf  Hf9       1.0  0.69592  0.11424  0.37248  1.0000
  Hf  Hf10      1.0  0.69148  0.09803  0.88631  1.0000
  Hf  Hf11      1.0  0.69538  0.60331  0.38189  1.0000
  Hf  Hf12      1.0  0.69666  0.61012  0.87882  1.0000
  Hf  Hf13      1.0  0.94915  0.11022  0.36261  1.0000
  Hf  Hf14      1.0  0.95171  0.11031  0.86949  1.0000
  Hf  Hf15      1.0  0.94587  0.60808  0.36574  1.0000
  Hf  Hf16      1.0  0.94492  0.60570  0.86415  1.0000
  Hf  Hf17      1.0  0.05703  0.39131  0.10989  1.0000
  Hf  Hf18      1.0  0.05806  0.38827  0.61789  1.0000
  Hf  Hf19      1.0  0.04954  0.88681  0.13213  1.0000
  Hf  Hf20      1.0  0.05465  0.88908  0.62935  1.0000
  Hf  Hf21      1.0  0.30671  0.40492  0.12305  1.0000
  Hf  Hf22      1.0  0.30695  0.38956  0.61655  1.0000
  Hf  Hf23      1.0  0.30372  0.88939  0.12995  1.0000
  Hf  Hf24      1.0  0.30508  0.89426  0.63227  1.0000
  Hf  Hf25      1.0  0.55489  0.39305  0.12513  1.0000
  Hf  Hf26      1.0  0.55331  0.38464  0.62572  1.0000
  Hf  Hf27      1.0  0.55161  0.89558  0.12644  1.0000
  Hf  Hf28      1.0  0.55400  0.89409  0.62215  1.0000
  Hf  Hf29      1.0  0.80313  0.39604  0.12896  1.0000
  Hf  Hf30      1.0  0.80251  0.37856  0.63454  1.0000
  Hf  Hf31      1.0  0.80018  0.89208  0.13544  1.0000
  Hf  Hf32      1.0  0.80348  0.89174  0.62835  1.0000
  Hf  Hf33      1.0  0.05490  0.18719  0.41330  1.0000
  Hf  Hf34      1.0  0.06133  0.18073  0.91360  1.0000
  Hf  Hf35      1.0  0.05553  0.67942  0.42652  1.0000
  Hf  Hf36      1.0  0.05597  0.67462  0.91578  1.0000
  Hf  Hf37      1.0  0.30710  0.17680  0.42290  1.0000
  Hf  Hf38      1.0  0.30518  0.18107  0.91419  1.0000
  Hf  Hf39      1.0  0.30653  0.68861  0.42580  1.0000
  Hf  Hf40      1.0  0.30746  0.68032  0.92206  1.0000
  Hf  Hf41      1.0  0.55509  0.17936  0.42080  1.0000
  Hf  Hf42      1.0  0.55494  0.18556  0.91567  1.0000
  Hf  Hf43      1.0  0.55304  0.68163  0.42020  1.0000
  Hf  Hf44      1.0  0.55380  0.68863  0.91899  1.0000
  Hf  Hf45      1.0  0.80739  0.18063  0.41842  1.0000
  Hf  Hf46      1.0  0.80631  0.17283  0.91390  1.0000
  Hf  Hf47      1.0  0.80304  0.67334  0.42278  1.0000
  Hf  Hf48      1.0  0.80318  0.68711  0.92182  1.0000
  Hf  Hf49      1.0  0.15922  0.38387  0.33249  1.0000
  Hf  Hf50      1.0  0.16320  0.39008  0.83059  1.0000
  Hf  Hf51      1.0  0.16178  0.88953  0.33094  1.0000
  Hf  Hf52      1.0  0.15409  0.88694  0.83679  1.0000
  Hf  Hf53      1.0  0.41059  0.38601  0.32905  1.0000
  Hf  Hf54      1.0  0.40833  0.39420  0.83391  1.0000
  Hf  Hf55      1.0  0.40806  0.89526  0.33061  1.0000
  Hf  Hf56      1.0  0.40704  0.88766  0.83028  1.0000
  Hf  Hf57      1.0  0.65742  0.38831  0.33609  1.0000
  Hf  Hf58      1.0  0.65533  0.38857  0.83798  1.0000
  Hf  Hf59      1.0  0.65524  0.88846  0.33903  1.0000
  Hf  Hf60      1.0  0.66134  0.88904  0.83834  1.0000
  Hf  Hf61      1.0  0.90962  0.38527  0.32920  1.0000
  Hf  Hf62      1.0  0.90063  0.37658  0.84813  1.0000
  Hf  Hf63      1.0  0.90228  0.88755  0.33192  1.0000
  Hf  Hf64      1.0  0.90958  0.88701  0.82816  1.0000
  Hf  Hf65      1.0  0.19555  0.32015  0.08401  1.0000
  Hf  Hf66      1.0  0.19664  0.31303  0.57817  1.0000
  Hf  Hf67      1.0  0.19142  0.82617  0.08080  1.0000
  Hf  Hf68      1.0  0.19277  0.81575  0.58828  1.0000
  Hf  Hf69      1.0  0.44509  0.32077  0.08225  1.0000
  Hf  Hf70      1.0  0.44412  0.31958  0.57628  1.0000
  Hf  Hf71      1.0  0.44412  0.82397  0.07787  1.0000
  Hf  Hf72      1.0  0.44694  0.82357  0.57311  1.0000
  Hf  Hf73      1.0  0.69463  0.30911  0.08407  1.0000
  Hf  Hf74      1.0  0.69527  0.31969  0.58429  1.0000
  Hf  Hf75      1.0  0.69222  0.82199  0.08649  1.0000
  Hf  Hf76      1.0  0.69340  0.81823  0.58515  1.0000
  Hf  Hf77      1.0  0.94711  0.31473  0.07375  1.0000
  Hf  Hf78      1.0  0.94539  0.32442  0.57857  1.0000
  Hf  Hf79      1.0  0.93929  0.81099  0.08568  1.0000
  Hf  Hf80      1.0  0.94264  0.82562  0.57813  1.0000
  Hf  Hf81      1.0  0.09656  0.10714  0.16031  1.0000
  Hf  Hf82      1.0  0.09047  0.11355  0.66481  1.0000
  Hf  Hf83      1.0  0.09322  0.61103  0.15966  1.0000
  Hf  Hf84      1.0  0.09570  0.60489  0.66630  1.0000
  Hf  Hf85      1.0  0.33611  0.11863  0.16973  1.0000
  Hf  Hf86      1.0  0.34496  0.11661  0.65423  1.0000
  Hf  Hf87      1.0  0.34129  0.61122  0.17948  1.0000
  Hf  Hf88      1.0  0.34595  0.61731  0.66579  1.0000
  Hf  Hf89      1.0  0.58993  0.10906  0.17150  1.0000
  Hf  Hf90      1.0  0.59159  0.10903  0.67244  1.0000
  Hf  Hf91      1.0  0.59007  0.61226  0.16863  1.0000
  Hf  Hf92      1.0  0.59108  0.61392  0.66879  1.0000
  Hf  Hf93      1.0  0.83872  0.11787  0.16900  1.0000
  Hf  Hf94      1.0  0.84287  0.10876  0.66420  1.0000
  Hf  Hf95      1.0  0.83693  0.61348  0.16877  1.0000
  Hf  Hf96      1.0  0.83705  0.60720  0.67008  1.0000
  F   F1        1.0  0.08017  0.12065  0.29778  1.0000
  F   F2        1.0  0.07696  0.10437  0.81453  1.0000
  F   F3        1.0  0.07856  0.65482  0.28811  1.0000
  F   F4        1.0  0.07774  0.60486  0.80992  1.0000
  F   F5        1.0  0.32708  0.11558  0.31819  1.0000
  F   F6        1.0  0.33632  0.13835  0.79442  1.0000
  F   F7        1.0  0.32947  0.62543  0.32256  1.0000
  F   F8        1.0  0.33005  0.62893  0.80749  1.0000
  F   F9        1.0  0.57992  0.12428  0.30891  1.0000
  F   F10       1.0  0.58076  0.10849  0.81402  1.0000
  F   F11       1.0  0.57258  0.62548  0.31033  1.0000
  F   F12       1.0  0.58303  0.65587  0.79729  1.0000
  F   F13       1.0  0.82775  0.13901  0.29819  1.0000
  F   F14       1.0  0.82530  0.10576  0.81455  1.0000
  F   F15       1.0  0.82467  0.61931  0.30700  1.0000
  F   F16       1.0  0.82799  0.63024  0.80340  1.0000
  F   F17       1.0  0.17846  0.32228  0.46111  1.0000
  F   F18       1.0  0.18260  0.33541  0.94933  1.0000
  F   F19       1.0  0.19078  0.84807  0.43289  1.0000
  F   F20       1.0  0.17405  0.84150  0.95486  1.0000
  F   F21       1.0  0.43360  0.33922  0.44498  1.0000
  F   F22       1.0  0.42793  0.33332  0.95638  1.0000
  F   F23       1.0  0.43091  0.82915  0.45855  1.0000
  F   F24       1.0  0.43906  0.83852  0.94037  1.0000
  F   F25       1.0  0.68643  0.35071  0.44478  1.0000
  F   F26       1.0  0.68674  0.34223  0.93999  1.0000
  F   F27       1.0  0.68012  0.82956  0.45592  1.0000
  F   F28       1.0  0.68763  0.85955  0.94392  1.0000
  F   F29       1.0  0.93912  0.33743  0.44373  1.0000
  F   F30       1.0  0.93610  0.35334  0.94417  1.0000
  F   F31       1.0  0.93195  0.85500  0.43562  1.0000
  F   F32       1.0  0.93338  0.83795  0.95191  1.0000
  F   F33       1.0  0.17897  0.37775  0.18686  1.0000
  F   F34       1.0  0.17115  0.36031  0.69327  1.0000
  F   F35       1.0  0.18081  0.89733  0.17681  1.0000
  F   F36       1.0  0.16937  0.85535  0.70394  1.0000
  F   F37       1.0  0.43516  0.39463  0.17940  1.0000
  F   F38       1.0  0.42342  0.38527  0.69241  1.0000
  F   F39       1.0  0.41556  0.86980  0.20086  1.0000
  F   F40       1.0  0.41940  0.85689  0.70113  1.0000
  F   F41       1.0  0.67235  0.37132  0.19436  1.0000
  F   F42       1.0  0.67396  0.38389  0.68455  1.0000
  F   F43       1.0  0.67179  0.86862  0.21113  1.0000
  F   F44       1.0  0.67259  0.85809  0.70570  1.0000
  F   F45       1.0  0.91709  0.35476  0.20308  1.0000
  F   F46       1.0  0.92604  0.38548  0.69326  1.0000
  F   F47       1.0  0.91381  0.86249  0.19496  1.0000
  F   F48       1.0  0.92080  0.86843  0.69725  1.0000
  F   F49       1.0  0.06350  0.16044  0.04816  1.0000
  F   F50       1.0  0.06038  0.16556  0.55756  1.0000
  F   F51       1.0  0.06185  0.64831  0.05945  1.0000
  F   F52       1.0  0.06763  0.65014  0.55264  1.0000
  F   F53       1.0  0.30808  0.16805  0.05699  1.0000
  F   F54       1.0  0.31199  0.16356  0.55350  1.0000
  F   F55       1.0  0.32031  0.66669  0.05745  1.0000
  F   F56       1.0  0.30845  0.66500  0.56386  1.0000
  F   F57       1.0  0.56011  0.16045  0.05854  1.0000
  F   F58       1.0  0.56151  0.15376  0.55370  1.0000
  F   F59       1.0  0.56683  0.66319  0.04704  1.0000
  F   F60       1.0  0.56593  0.66416  0.56240  1.0000
  F   F61       1.0  0.80460  0.15671  0.05435  1.0000
  F   F62       1.0  0.81424  0.15541  0.55764  1.0000
  F   F63       1.0  0.81358  0.66642  0.04804  1.0000
  F   F64       1.0  0.81241  0.65270  0.55093  1.0000
  F   F65       1.0  0.20641  0.20135  0.19587  1.0000
  F   F66       1.0  0.21435  0.19719  0.70527  1.0000
  F   F67       1.0  0.19747  0.71025  0.21987  1.0000
  F   F68       1.0  0.21048  0.68807  0.71153  1.0000
  F   F69       1.0  0.46199  0.20831  0.19357  1.0000
  F   F70       1.0  0.44776  0.20311  0.70234  1.0000
  F   F71       1.0  0.44472  0.70528  0.21801  1.0000
  F   F72       1.0  0.46626  0.68583  0.72140  1.0000
  F   F73       1.0  0.70406  0.19628  0.20668  1.0000
  F   F74       1.0  0.69505  0.20784  0.72562  1.0000
  F   F75       1.0  0.71207  0.71724  0.19176  1.0000
  F   F76       1.0  0.69732  0.69878  0.71491  1.0000
  F   F77       1.0  0.96003  0.20624  0.19429  1.0000
  F   F78       1.0  0.95459  0.20730  0.70039  1.0000
  F   F79       1.0  0.94902  0.69564  0.20717  1.0000
  F   F80       1.0  0.93995  0.70169  0.71335  1.0000
  F   F81       1.0  0.15089  0.10801  0.00826  1.0000
  F   F82       1.0  0.14681  0.10618  0.53470  1.0000
  F   F83       1.0  0.14686  0.59058  0.02894  1.0000
  F   F84       1.0  0.15169  0.58565  0.54406  1.0000
  F   F85       1.0  0.39588  0.10389  0.04510  1.0000
  F   F86       1.0  0.39864  0.08087  0.52906  1.0000
  F   F87       1.0  0.39806  0.57885  0.05424  1.0000
  F   F88       1.0  0.40004  0.59977  0.54320  1.0000
  F   F89       1.0  0.64853  0.07766  0.04572  1.0000
  F   F90       1.0  0.64941  0.09381  0.54358  1.0000
  F   F91       1.0  0.64703  0.61248  0.03813  1.0000
  F   F92       1.0  0.64961  0.59149  0.53521  1.0000
  F   F93       1.0  0.89047  0.09319  0.05023  1.0000
  F   F94       1.0  0.89891  0.09287  0.53210  1.0000
  F   F95       1.0  0.89324  0.58612  0.05447  1.0000
  F   F96       1.0  0.89406  0.60028  0.53704  1.0000
  F   F97       1.0  0.14992  0.19127  0.12415  1.0000
  F   F98       1.0  0.15255  0.19481  0.65201  1.0000
  F   F99       1.0  0.15558  0.68368  0.11124  1.0000
  F   F100      1.0  0.15513  0.70424  0.61100  1.0000
  F   F101      1.0  0.40274  0.20235  0.13375  1.0000
  F   F102      1.0  0.40119  0.19416  0.60712  1.0000
  F   F103      1.0  0.40156  0.70572  0.12485  1.0000
  F   F104      1.0  0.40644  0.69606  0.64440  1.0000
  F   F105      1.0  0.65475  0.18794  0.12622  1.0000
  F   F106      1.0  0.65231  0.20503  0.62259  1.0000
  F   F107      1.0  0.65011  0.70233  0.13551  1.0000
  F   F108      1.0  0.65513  0.69323  0.61903  1.0000
  F   F109      1.0  0.90375  0.19119  0.13254  1.0000
  F   F110      1.0  0.90143  0.20431  0.62267  1.0000
  F   F111      1.0  0.89524  0.69913  0.12932  1.0000
  F   F112      1.0  0.89253  0.69658  0.63169  1.0000
  F   F113      1.0  0.10060  0.31446  0.35601  1.0000
  F   F114      1.0  0.10086  0.30947  0.88046  1.0000
  F   F115      1.0  0.09813  0.80297  0.36400  1.0000
  F   F116      1.0  0.09898  0.80323  0.87703  1.0000
  F   F117      1.0  0.34899  0.31556  0.36826  1.0000
  F   F118      1.0  0.35150  0.30578  0.88131  1.0000
  F   F119      1.0  0.35380  0.79253  0.38196  1.0000
  F   F120      1.0  0.35035  0.79902  0.88152  1.0000
  F   F121      1.0  0.59552  0.30184  0.38937  1.0000
  F   F122      1.0  0.59429  0.30371  0.88505  1.0000
  F   F123      1.0  0.59507  0.81453  0.36774  1.0000
  F   F124      1.0  0.59627  0.80329  0.87109  1.0000
  F   F125      1.0  0.84427  0.31488  0.38599  1.0000
  F   F126      1.0  0.84778  0.28795  0.88742  1.0000
  F   F127      1.0  0.84818  0.80516  0.37286  1.0000
  F   F128      1.0  0.84654  0.80026  0.85023  1.0000
  F   F129      1.0  0.07468  0.25377  0.11816  1.0000
  F   F130      1.0  0.07206  0.25620  0.63077  1.0000
  F   F131      1.0  0.07575  0.75103  0.11805  1.0000
  F   F132      1.0  0.06888  0.74779  0.64711  1.0000
  F   F133      1.0  0.32911  0.26455  0.12550  1.0000
  F   F134      1.0  0.31300  0.24316  0.64774  1.0000
  F   F135      1.0  0.31172  0.74340  0.16459  1.0000
  F   F136      1.0  0.32625  0.76119  0.62858  1.0000
  F   F137      1.0  0.56447  0.24123  0.15938  1.0000
  F   F138      1.0  0.56484  0.24080  0.64003  1.0000
  F   F139      1.0  0.56764  0.74728  0.14331  1.0000
  F   F140      1.0  0.56084  0.75456  0.64877  1.0000
  F   F141      1.0  0.81206  0.24801  0.13906  1.0000
  F   F142      1.0  0.81058  0.23438  0.67095  1.0000
  F   F143      1.0  0.80534  0.75694  0.14302  1.0000
  F   F144      1.0  0.81205  0.74817  0.63535  1.0000
  F   F145      1.0  0.12514  0.36407  0.11562  1.0000
  F   F146      1.0  0.12648  0.37562  0.58878  1.0000
  F   F147      1.0  0.12155  0.85855  0.13563  1.0000
  F   F148      1.0  0.12491  0.88623  0.60501  1.0000
  F   F149      1.0  0.38066  0.39732  0.10092  1.0000
  F   F150      1.0  0.37437  0.35194  0.62472  1.0000
  F   F151      1.0  0.37506  0.86260  0.10611  1.0000
  F   F152      1.0  0.38008  0.89467  0.58675  1.0000
  F   F153      1.0  0.62501  0.35585  0.11443  1.0000
  F   F154      1.0  0.61964  0.35864  0.62007  1.0000
  F   F155      1.0  0.62404  0.87285  0.11918  1.0000
  F   F156      1.0  0.61925  0.87424  0.60916  1.0000
  F   F157      1.0  0.87378  0.36459  0.10014  1.0000
  F   F158      1.0  0.87328  0.37295  0.61912  1.0000
  F   F159      1.0  0.87550  0.88233  0.08501  1.0000
  F   F160      1.0  0.87042  0.87937  0.61757  1.0000
  F   F161      1.0  0.18905  0.25367  0.34278  1.0000
  F   F162      1.0  0.19048  0.25107  0.84853  1.0000
  F   F163      1.0  0.18438  0.75295  0.35900  1.0000
  F   F164      1.0  0.18280  0.74808  0.85503  1.0000
  F   F165      1.0  0.43131  0.24604  0.36466  1.0000
  F   F166      1.0  0.44774  0.25491  0.83155  1.0000
  F   F167      1.0  0.43577  0.74179  0.36867  1.0000
  F   F168      1.0  0.43139  0.74279  0.86522  1.0000
  F   F169      1.0  0.68288  0.25163  0.35629  1.0000
  F   F170      1.0  0.68266  0.24160  0.86514  1.0000
  F   F171      1.0  0.67560  0.74215  0.36869  1.0000
  F   F172      1.0  0.69003  0.75372  0.86408  1.0000
  F   F173      1.0  0.93646  0.24139  0.34888  1.0000
  F   F174      1.0  0.93591  0.24582  0.85676  1.0000
  F   F175      1.0  0.93235  0.74868  0.34815  1.0000
  F   F176      1.0  0.93791  0.74514  0.85343  1.0000
  F   F177      1.0  0.13028  0.13895  0.37782  1.0000
  F   F178      1.0  0.12939  0.14898  0.86349  1.0000
  F   F179      1.0  0.12660  0.62852  0.38830  1.0000
  F   F180      1.0  0.12125  0.63258  0.89123  1.0000
  F   F181      1.0  0.37784  0.15470  0.37419  1.0000
  F   F182      1.0  0.37695  0.14710  0.88836  1.0000
  F   F183      1.0  0.37581  0.61967  0.40911  1.0000
  F   F184      1.0  0.37436  0.61548  0.90704  1.0000
  F   F185      1.0  0.62695  0.12853  0.39286  1.0000
  F   F186      1.0  0.61915  0.12646  0.90651  1.0000
  F   F187      1.0  0.62509  0.62742  0.38992  1.0000
  F   F188      1.0  0.62655  0.62259  0.90486  1.0000
  F   F189      1.0  0.87886  0.13799  0.37665  1.0000
  F   F190      1.0  0.87750  0.12764  0.89687  1.0000
  F   F191      1.0  0.87229  0.62538  0.38890  1.0000
  F   F192      1.0  0.87219  0.62138  0.90324  1.0000
  F   F193      1.0  0.00631  0.36996  0.07022  1.0000
  F   F194      1.0  0.01396  0.36549  0.55332  1.0000
  F   F195      1.0  0.00054  0.85307  0.08941  1.0000
  F   F196      1.0  0.00321  0.86710  0.56940  1.0000
  F   F197      1.0  0.26030  0.36360  0.07015  1.0000
  F   F198      1.0  0.26642  0.36151  0.55635  1.0000
  F   F199      1.0  0.26393  0.86269  0.06873  1.0000
  F   F200      1.0  0.25678  0.85580  0.59674  1.0000
  F   F201      1.0  0.51567  0.35534  0.07535  1.0000
  F   F202      1.0  0.50275  0.34974  0.58322  1.0000
  F   F203      1.0  0.50832  0.87085  0.05649  1.0000
  F   F204      1.0  0.50700  0.86337  0.56839  1.0000
  F   F205      1.0  0.75451  0.36018  0.08110  1.0000
  F   F206      1.0  0.76197  0.34840  0.57678  1.0000
  F   F207      1.0  0.75809  0.86664  0.07362  1.0000
  F   F208      1.0  0.75597  0.86458  0.57745  1.0000
  F   F209      1.0  0.06592  0.47519  0.18095  1.0000
  F   F210      1.0  0.07357  0.47633  0.69355  1.0000
  F   F211      1.0  0.07163  0.98771  0.17348  1.0000
  F   F212      1.0  0.07477  0.99857  0.67348  1.0000
  F   F213      1.0  0.31830  0.50313  0.17288  1.0000
  F   F214      1.0  0.32830  0.48999  0.64645  1.0000
  F   F215      1.0  0.31382  0.99707  0.17001  1.0000
  F   F216      1.0  0.31787  0.98552  0.68370  1.0000
  F   F217      1.0  0.57716  0.48617  0.17028  1.0000
  F   F218      1.0  0.56854  0.48357  0.68255  1.0000
  F   F219      1.0  0.55789  0.98966  0.18340  1.0000
  F   F220      1.0  0.56031  0.98445  0.68318  1.0000
  F   F221      1.0  0.81700  0.48176  0.18088  1.0000
  F   F222      1.0  0.81738  0.46768  0.68508  1.0000
  F   F223      1.0  0.81752  0.98671  0.18350  1.0000
  F   F224      1.0  0.82504  0.98769  0.67775  1.0000
  F   F225      1.0  0.23993  0.13308  0.42925  1.0000
  F   F226      1.0  0.24786  0.13819  0.91503  1.0000
  F   F227      1.0  0.24046  0.65149  0.43123  1.0000
  F   F228      1.0  0.24686  0.63715  0.91511  1.0000
  F   F229      1.0  0.49038  0.13706  0.42471  1.0000
  F   F230      1.0  0.49379  0.13341  0.93118  1.0000
  F   F231      1.0  0.49331  0.64050  0.42237  1.0000
  F   F232      1.0  0.49291  0.63187  0.92911  1.0000
  F   F233      1.0  0.74407  0.14533  0.42923  1.0000
  F   F234      1.0  0.74411  0.12359  0.91577  1.0000
  F   F235      1.0  0.74003  0.65140  0.42113  1.0000
  F   F236      1.0  0.73968  0.62926  0.93709  1.0000
  F   F237      1.0  0.99444  0.13214  0.43441  1.0000
  F   F238      1.0  0.99721  0.13588  0.92432  1.0000
  F   F239      1.0  0.98982  0.64900  0.41575  1.0000
  F   F240      1.0  0.99457  0.64225  0.90656  1.0000
  F   F241      1.0  0.18090  0.01198  0.33080  1.0000
  F   F242      1.0  0.18184  0.02219  0.81407  1.0000
  F   F243      1.0  0.17841  0.50697  0.33873  1.0000
  F   F244      1.0  0.18168  0.51843  0.83043  1.0000
  F   F245      1.0  0.42533  0.01429  0.33377  1.0000
  F   F246      1.0  0.43145  0.01753  0.84226  1.0000
  F   F247      1.0  0.42968  0.51550  0.31204  1.0000
  F   F248      1.0  0.43338  0.51532  0.82771  1.0000
  F   F249      1.0  0.67940  0.01146  0.33063  1.0000
  F   F250      1.0  0.67759  0.02517  0.81265  1.0000
  F   F251      1.0  0.67473  0.50874  0.33309  1.0000
  F   F252      1.0  0.67613  0.50890  0.83489  1.0000
  F   F253      1.0  0.93668  0.02734  0.30588  1.0000
  F   F254      1.0  0.93222  0.01464  0.82269  1.0000
  F   F255      1.0  0.93597  0.51544  0.32126  1.0000
  F   F256      1.0  0.93461  0.50797  0.81469  1.0000
  F   F257      1.0  0.00576  0.26313  0.98525  1.0000
  F   F258      1.0  0.00054  0.25513  0.48737  1.0000
  F   F259      1.0  0.99877  0.74559  0.99516  1.0000
  F   F260      1.0  0.99892  0.75109  0.49643  1.0000
  F   F261      1.0  0.24837  0.25389  0.98856  1.0000
  F   F262      1.0  0.24343  0.24205  0.49367  1.0000
  F   F263      1.0  0.24956  0.74901  0.00545  1.0000
  F   F264      1.0  0.25225  0.77308  0.49059  1.0000
  F   F265      1.0  0.50210  0.26121  0.98596  1.0000
  F   F266      1.0  0.49780  0.25025  0.47936  1.0000
  F   F267      1.0  0.49768  0.74904  0.00871  1.0000
  F   F268      1.0  0.49892  0.74638  0.49864  1.0000
  F   F269      1.0  0.74852  0.24694  0.99776  1.0000
  F   F270      1.0  0.75233  0.26826  0.48397  1.0000
  F   F271      1.0  0.75196  0.76377  0.99352  1.0000
  F   F272      1.0  0.75272  0.75739  0.49432  1.0000
  F   F273      1.0  0.12355  0.99194  0.25702  1.0000
  F   F274      1.0  0.13039  0.99631  0.73973  1.0000
  F   F275      1.0  0.12635  0.49879  0.24866  1.0000
  F   F276      1.0  0.13788  0.50517  0.73714  1.0000
  F   F277      1.0  0.37096  0.99811  0.25613  1.0000
  F   F278      1.0  0.37812  0.00939  0.74243  1.0000
  F   F279      1.0  0.37181  0.49658  0.25471  1.0000
  F   F280      1.0  0.38202  0.51667  0.74878  1.0000
  F   F281      1.0  0.63315  0.00710  0.23670  1.0000
  F   F282      1.0  0.62545  0.98735  0.75309  1.0000
  F   F283      1.0  0.62509  0.49849  0.25452  1.0000
  F   F284      1.0  0.61783  0.50371  0.76596  1.0000
  F   F285      1.0  0.87134  0.00772  0.26333  1.0000
  F   F286      1.0  0.89062  0.01233  0.72441  1.0000
  F   F287      1.0  0.87578  0.49956  0.24398  1.0000
  F   F288      1.0  0.86750  0.49114  0.76219  1.0000
  F   F289      1.0  0.04244  0.03562  0.03113  1.0000
  F   F290      1.0  0.05372  0.03065  0.51353  1.0000
  F   F291      1.0  0.03512  0.53382  0.02716  1.0000
  F   F292      1.0  0.03904  0.53475  0.51886  1.0000
  F   F293      1.0  0.29816  0.02792  0.02288  1.0000
  F   F294      1.0  0.29167  0.02645  0.52967  1.0000
  F   F295      1.0  0.28712  0.53739  0.02790  1.0000
  F   F296      1.0  0.28987  0.53212  0.52450  1.0000
  F   F297      1.0  0.53914  0.03041  0.02140  1.0000
  F   F298      1.0  0.54056  0.02364  0.52389  1.0000
  F   F299      1.0  0.53892  0.53958  0.03369  1.0000
  F   F300      1.0  0.54094  0.53711  0.54088  1.0000
  F   F301      1.0  0.79110  0.02385  0.01988  1.0000
  F   F302      1.0  0.79323  0.03532  0.52161  1.0000
  F   F303      1.0  0.79733  0.53067  0.02569  1.0000
  F   F304      1.0  0.78964  0.52289  0.53186  1.0000
  F   F305      1.0  0.23776  0.40839  0.23128  1.0000
  F   F306      1.0  0.23704  0.41050  0.71922  1.0000
  F   F307      1.0  0.23828  0.91674  0.23453  1.0000
  F   F308      1.0  0.23844  0.90232  0.74088  1.0000
  F   F309      1.0  0.48990  0.39820  0.24617  1.0000
  F   F310      1.0  0.48519  0.42439  0.72985  1.0000
  F   F311      1.0  0.48064  0.91652  0.22631  1.0000
  F   F312      1.0  0.48007  0.90980  0.72672  1.0000
  F   F313      1.0  0.73508  0.41973  0.22473  1.0000
  F   F314      1.0  0.73663  0.40306  0.72893  1.0000
  F   F315      1.0  0.73368  0.90357  0.24465  1.0000
  F   F316      1.0  0.73289  0.91758  0.73441  1.0000
  F   F317      1.0  0.98490  0.40684  0.22224  1.0000
  F   F318      1.0  0.99261  0.38863  0.73374  1.0000
  F   F319      1.0  0.97717  0.92506  0.21654  1.0000
  F   F320      1.0  0.98569  0.91493  0.72683  1.0000
  F   F321      1.0  0.20891  0.46663  0.46936  1.0000
  F   F322      1.0  0.21012  0.47656  0.96346  1.0000
  F   F323      1.0  0.20152  0.96771  0.48858  1.0000
  F   F324      1.0  0.20904  0.96402  0.97069  1.0000
  F   F325      1.0  0.46170  0.46500  0.47662  1.0000
  F   F326      1.0  0.46273  0.46493  0.97997  1.0000
  F   F327      1.0  0.46371  0.97219  0.44552  1.0000
  F   F328      1.0  0.45219  0.97870  0.99205  1.0000
  F   F329      1.0  0.71023  0.47225  0.47215  1.0000
  F   F330      1.0  0.70383  0.47643  0.97277  1.0000
  F   F331      1.0  0.71297  0.97381  0.48201  1.0000
  F   F332      1.0  0.70813  0.96427  0.99020  1.0000
  F   F333      1.0  0.95054  0.48104  0.48357  1.0000
  F   F334      1.0  0.95090  0.47146  0.97572  1.0000
  F   F335      1.0  0.95758  0.97674  0.47180  1.0000
  F   F336      1.0  0.95702  0.97831  0.96953  1.0000
  F   F337      1.0  0.01648  0.08514  0.27535  1.0000
  F   F338      1.0  0.01346  0.08481  0.75986  1.0000
  F   F339      1.0  0.01633  0.59149  0.26671  1.0000
  F   F340      1.0  0.00978  0.61027  0.74619  1.0000
  F   F341      1.0  0.26276  0.11119  0.26271  1.0000
  F   F342      1.0  0.27119  0.07453  0.78061  1.0000
  F   F343      1.0  0.26296  0.58261  0.27974  1.0000
  F   F344      1.0  0.27338  0.57854  0.76177  1.0000
  F   F345      1.0  0.51530  0.08514  0.27367  1.0000
  F   F346      1.0  0.51600  0.10102  0.76806  1.0000
  F   F347      1.0  0.51655  0.57974  0.25707  1.0000
  F   F348      1.0  0.52127  0.56942  0.78835  1.0000
  F   F349      1.0  0.76008  0.09343  0.27818  1.0000
  F   F350      1.0  0.75533  0.07694  0.77543  1.0000
  F   F351      1.0  0.75915  0.57846  0.27816  1.0000
  F   F352      1.0  0.76129  0.58282  0.75968  1.0000
  F   F353      1.0  0.09906  0.40768  0.45518  1.0000
  F   F354      1.0  0.09756  0.43009  0.95767  1.0000
  F   F355      1.0  0.10181  0.89695  0.46709  1.0000
  F   F356      1.0  0.09666  0.91409  0.96735  1.0000
  F   F357      1.0  0.35017  0.40423  0.46550  1.0000
  F   F358      1.0  0.35360  0.42869  0.95962  1.0000
  F   F359      1.0  0.34748  0.90752  0.45608  1.0000
  F   F360      1.0  0.35412  0.89632  0.96711  1.0000
  F   F361      1.0  0.59620  0.41054  0.46888  1.0000
  F   F362      1.0  0.59817  0.40993  0.97051  1.0000
  F   F363      1.0  0.59389  0.90466  0.46710  1.0000
  F   F364      1.0  0.60453  0.90291  0.97673  1.0000
  F   F365      1.0  0.85832  0.39762  0.47287  1.0000
  F   F366      1.0  0.84852  0.40941  0.95715  1.0000
  F   F367      1.0  0.84477  0.91178  0.45393  1.0000
  F   F368      1.0  0.84763  0.89188  0.94299  1.0000
  F   F369      1.0  0.04399  0.28365  0.29050  1.0000
  F   F370      1.0  0.05607  0.29697  0.77535  1.0000
  F   F371      1.0  0.03323  0.81388  0.27626  1.0000
  F   F372      1.0  0.05734  0.81218  0.77760  1.0000
  F   F373      1.0  0.29313  0.29083  0.28926  1.0000
  F   F374      1.0  0.30058  0.29896  0.78857  1.0000
  F   F375      1.0  0.30126  0.80252  0.28859  1.0000
  F   F376      1.0  0.30905  0.79111  0.78266  1.0000
  F   F377      1.0  0.55280  0.30134  0.28884  1.0000
  F   F378      1.0  0.54304  0.28688  0.78619  1.0000
  F   F379      1.0  0.54537  0.79810  0.28388  1.0000
  F   F380      1.0  0.53906  0.80334  0.80084  1.0000
  F   F381      1.0  0.79460  0.29793  0.29307  1.0000
  F   F382      1.0  0.79909  0.28961  0.79870  1.0000
  F   F383      1.0  0.79802  0.79680  0.29035  1.0000
  F   F384      1.0  0.79119  0.80966  0.78053  1.0000
