data_image0
_chemical_formula_structural       Hf96F384
_chemical_formula_sum              "Hf96 F384"
_cell_length_a       31.0587
_cell_length_b       15.5281
_cell_length_c       15.5215
_cell_angle_alpha    63.342
_cell_angle_beta     63.342
_cell_angle_gamma    80.1625

_space_group_name_H-M_alt    "P 1"
_space_group_IT_number       1

loop_
  _space_group_symop_operation_xyz
  'x, y, z'

loop_
  _atom_site_type_symbol
  _atom_site_label
  _atom_site_symmetry_multiplicity
  _atom_site_fract_x
  _atom_site_fract_y
  _atom_site_fract_z
  _atom_site_occupancy
  Hf  Hf1       1.0  0.19786  0.11206  0.35354  1.0000
  Hf  Hf2       1.0  0.19592  0.10741  0.87687  1.0000
  Hf  Hf3       1.0  0.19727  0.60829  0.37089  1.0000
  Hf  Hf4       1.0  0.19964  0.61307  0.86792  1.0000
  Hf  Hf5       1.0  0.44564  0.09860  0.38218  1.0000
  Hf  Hf6       1.0  0.44584  0.09607  0.89761  1.0000
  Hf  Hf7       1.0  0.44447  0.59733  0.36804  1.0000
  Hf  Hf8       1.0  0.44753  0.60589  0.87836  1.0000
  Hf  Hf9       1.0  0.69518  0.10161  0.37878  1.0000
  Hf  Hf10      1.0  0.69518  0.11683  0.86436  1.0000
  Hf  Hf11      1.0  0.69753  0.61362  0.36406  1.0000
  Hf  Hf12      1.0  0.69818  0.61004  0.86745  1.0000
  Hf  Hf13      1.0  0.94420  0.11360  0.38093  1.0000
  Hf  Hf14      1.0  0.94609  0.10852  0.86806  1.0000
  Hf  Hf15      1.0  0.94709  0.61273  0.37655  1.0000
  Hf  Hf16      1.0  0.94266  0.60023  0.88664  1.0000
  Hf  Hf17      1.0  0.05287  0.38501  0.13366  1.0000
  Hf  Hf18      1.0  0.05517  0.39002  0.62776  1.0000
  Hf  Hf19      1.0  0.04919  0.88657  0.13130  1.0000
  Hf  Hf20      1.0  0.04594  0.88535  0.64424  1.0000
  Hf  Hf21      1.0  0.30778  0.39246  0.11662  1.0000
  Hf  Hf22      1.0  0.30031  0.38408  0.63196  1.0000
  Hf  Hf23      1.0  0.30361  0.88871  0.12534  1.0000
  Hf  Hf24      1.0  0.30044  0.88958  0.62831  1.0000
  Hf  Hf25      1.0  0.55238  0.39613  0.12479  1.0000
  Hf  Hf26      1.0  0.55583  0.39126  0.62471  1.0000
  Hf  Hf27      1.0  0.54862  0.88792  0.13530  1.0000
  Hf  Hf28      1.0  0.55482  0.89577  0.62210  1.0000
  Hf  Hf29      1.0  0.80263  0.39669  0.12400  1.0000
  Hf  Hf30      1.0  0.80623  0.40091  0.62122  1.0000
  Hf  Hf31      1.0  0.80331  0.90000  0.12782  1.0000
  Hf  Hf32      1.0  0.81075  0.90865  0.61259  1.0000
  Hf  Hf33      1.0  0.05467  0.17977  0.42173  1.0000
  Hf  Hf34      1.0  0.05465  0.16950  0.92631  1.0000
  Hf  Hf35      1.0  0.05579  0.67372  0.42096  1.0000
  Hf  Hf36      1.0  0.05325  0.67738  0.93331  1.0000
  Hf  Hf37      1.0  0.30351  0.17641  0.41519  1.0000
  Hf  Hf38      1.0  0.30865  0.18569  0.91163  1.0000
  Hf  Hf39      1.0  0.30160  0.67890  0.42692  1.0000
  Hf  Hf40      1.0  0.31033  0.67725  0.91620  1.0000
  Hf  Hf41      1.0  0.55487  0.18440  0.41329  1.0000
  Hf  Hf42      1.0  0.55445  0.18589  0.91306  1.0000
  Hf  Hf43      1.0  0.55406  0.67702  0.42096  1.0000
  Hf  Hf44      1.0  0.55951  0.68256  0.91217  1.0000
  Hf  Hf45      1.0  0.80606  0.19037  0.40788  1.0000
  Hf  Hf46      1.0  0.80483  0.18640  0.91174  1.0000
  Hf  Hf47      1.0  0.80642  0.69030  0.41649  1.0000
  Hf  Hf48      1.0  0.80184  0.67719  0.91823  1.0000
  Hf  Hf49      1.0  0.16521  0.38472  0.33201  1.0000
  Hf  Hf50      1.0  0.16002  0.39119  0.83432  1.0000
  Hf  Hf51      1.0  0.15627  0.88270  0.33916  1.0000
  Hf  Hf52      1.0  0.15449  0.88772  0.83763  1.0000
  Hf  Hf53      1.0  0.40756  0.37713  0.33261  1.0000
  Hf  Hf54      1.0  0.41164  0.39164  0.82404  1.0000
  Hf  Hf55      1.0  0.40609  0.88522  0.33338  1.0000
  Hf  Hf56      1.0  0.41159  0.89123  0.82586  1.0000
  Hf  Hf57      1.0  0.65900  0.38925  0.33111  1.0000
  Hf  Hf58      1.0  0.65823  0.38894  0.83612  1.0000
  Hf  Hf59      1.0  0.65977  0.88035  0.33520  1.0000
  Hf  Hf60      1.0  0.66431  0.88559  0.82266  1.0000
  Hf  Hf61      1.0  0.91135  0.39669  0.32663  1.0000
  Hf  Hf62      1.0  0.90997  0.39249  0.82669  1.0000
  Hf  Hf63      1.0  0.90845  0.89541  0.33077  1.0000
  Hf  Hf64      1.0  0.90677  0.87797  0.84180  1.0000
  Hf  Hf65      1.0  0.19440  0.31373  0.07982  1.0000
  Hf  Hf66      1.0  0.19365  0.31106  0.58747  1.0000
  Hf  Hf67      1.0  0.19356  0.81978  0.08268  1.0000
  Hf  Hf68      1.0  0.19296  0.81444  0.58529  1.0000
  Hf  Hf69      1.0  0.44393  0.31685  0.08086  1.0000
  Hf  Hf70      1.0  0.44406  0.31597  0.57923  1.0000
  Hf  Hf71      1.0  0.44192  0.81488  0.08687  1.0000
  Hf  Hf72      1.0  0.44449  0.82054  0.57817  1.0000
  Hf  Hf73      1.0  0.69191  0.32630  0.08698  1.0000
  Hf  Hf74      1.0  0.69508  0.32454  0.57671  1.0000
  Hf  Hf75      1.0  0.68922  0.82731  0.08063  1.0000
  Hf  Hf76      1.0  0.69587  0.82303  0.58262  1.0000
  Hf  Hf77      1.0  0.94431  0.31001  0.08990  1.0000
  Hf  Hf78      1.0  0.94391  0.31929  0.58032  1.0000
  Hf  Hf79      1.0  0.94342  0.82866  0.08193  1.0000
  Hf  Hf80      1.0  0.94497  0.82484  0.58352  1.0000
  Hf  Hf81      1.0  0.09154  0.10350  0.17247  1.0000
  Hf  Hf82      1.0  0.09644  0.11227  0.65838  1.0000
  Hf  Hf83      1.0  0.09413  0.60947  0.16543  1.0000
  Hf  Hf84      1.0  0.08585  0.60678  0.68414  1.0000
  Hf  Hf85      1.0  0.34146  0.10740  0.16673  1.0000
  Hf  Hf86      1.0  0.33759  0.10929  0.67135  1.0000
  Hf  Hf87      1.0  0.33877  0.60090  0.17887  1.0000
  Hf  Hf88      1.0  0.34578  0.61410  0.66044  1.0000
  Hf  Hf89      1.0  0.59398  0.11437  0.16202  1.0000
  Hf  Hf90      1.0  0.59038  0.11497  0.66970  1.0000
  Hf  Hf91      1.0  0.59270  0.61702  0.16727  1.0000
  Hf  Hf92      1.0  0.59291  0.61723  0.66144  1.0000
  Hf  Hf93      1.0  0.83918  0.12195  0.15516  1.0000
  Hf  Hf94      1.0  0.83736  0.11665  0.67317  1.0000
  Hf  Hf95      1.0  0.84264  0.61590  0.16478  1.0000
  Hf  Hf96      1.0  0.84658  0.62168  0.65656  1.0000
  F   F1        1.0  0.07785  0.12000  0.31639  1.0000
  F   F2        1.0  0.07980  0.11868  0.80689  1.0000
  F   F3        1.0  0.07458  0.62287  0.30732  1.0000
  F   F4        1.0  0.07128  0.61678  0.82511  1.0000
  F   F5        1.0  0.33006  0.12982  0.29149  1.0000
  F   F6        1.0  0.33358  0.12018  0.80596  1.0000
  F   F7        1.0  0.32307  0.60603  0.32338  1.0000
  F   F8        1.0  0.33454  0.63601  0.79581  1.0000
  F   F9        1.0  0.58224  0.14143  0.29028  1.0000
  F   F10       1.0  0.57263  0.12923  0.81047  1.0000
  F   F11       1.0  0.57217  0.61342  0.31784  1.0000
  F   F12       1.0  0.58390  0.62698  0.80267  1.0000
  F   F13       1.0  0.83196  0.14092  0.29366  1.0000
  F   F14       1.0  0.82085  0.11383  0.81673  1.0000
  F   F15       1.0  0.83025  0.63286  0.30226  1.0000
  F   F16       1.0  0.82960  0.63076  0.80137  1.0000
  F   F17       1.0  0.18994  0.34084  0.44281  1.0000
  F   F18       1.0  0.19419  0.34495  0.93650  1.0000
  F   F19       1.0  0.18397  0.83078  0.45569  1.0000
  F   F20       1.0  0.18240  0.84045  0.95436  1.0000
  F   F21       1.0  0.43569  0.34023  0.44403  1.0000
  F   F22       1.0  0.42815  0.33983  0.95250  1.0000
  F   F23       1.0  0.42744  0.82762  0.45569  1.0000
  F   F24       1.0  0.42613  0.82779  0.96065  1.0000
  F   F25       1.0  0.68870  0.34721  0.43848  1.0000
  F   F26       1.0  0.67679  0.33839  0.96282  1.0000
  F   F27       1.0  0.69105  0.83483  0.44036  1.0000
  F   F28       1.0  0.68722  0.85462  0.93139  1.0000
  F   F29       1.0  0.93526  0.33448  0.44701  1.0000
  F   F30       1.0  0.93731  0.33386  0.93986  1.0000
  F   F31       1.0  0.93092  0.83655  0.44866  1.0000
  F   F32       1.0  0.94042  0.83930  0.94636  1.0000
  F   F33       1.0  0.17704  0.37388  0.18608  1.0000
  F   F34       1.0  0.16764  0.37897  0.69010  1.0000
  F   F35       1.0  0.16493  0.86542  0.20968  1.0000
  F   F36       1.0  0.16883  0.84680  0.71352  1.0000
  F   F37       1.0  0.41751  0.36458  0.19926  1.0000
  F   F38       1.0  0.42503  0.38730  0.68554  1.0000
  F   F39       1.0  0.42478  0.87664  0.17906  1.0000
  F   F40       1.0  0.41664  0.88154  0.68957  1.0000
  F   F41       1.0  0.67500  0.39270  0.18494  1.0000
  F   F42       1.0  0.66980  0.37673  0.69852  1.0000
  F   F43       1.0  0.66523  0.86048  0.20971  1.0000
  F   F44       1.0  0.68117  0.89277  0.67380  1.0000
  F   F45       1.0  0.92641  0.37258  0.19430  1.0000
  F   F46       1.0  0.91695  0.35154  0.70928  1.0000
  F   F47       1.0  0.91761  0.87151  0.21022  1.0000
  F   F48       1.0  0.91839  0.86153  0.71199  1.0000
  F   F49       1.0  0.06307  0.14671  0.06228  1.0000
  F   F50       1.0  0.06217  0.16048  0.54981  1.0000
  F   F51       1.0  0.05701  0.64136  0.07120  1.0000
  F   F52       1.0  0.06117  0.65550  0.56718  1.0000
  F   F53       1.0  0.32048  0.15328  0.04586  1.0000
  F   F54       1.0  0.31120  0.16042  0.55611  1.0000
  F   F55       1.0  0.32794  0.66005  0.04879  1.0000
  F   F56       1.0  0.31201  0.65014  0.55538  1.0000
  F   F57       1.0  0.56285  0.14725  0.05357  1.0000
  F   F58       1.0  0.55974  0.17607  0.54347  1.0000
  F   F59       1.0  0.56478  0.65979  0.05075  1.0000
  F   F60       1.0  0.55930  0.66569  0.55516  1.0000
  F   F61       1.0  0.81745  0.16557  0.03824  1.0000
  F   F62       1.0  0.81789  0.18210  0.53851  1.0000
  F   F63       1.0  0.81236  0.65912  0.05155  1.0000
  F   F64       1.0  0.82685  0.67438  0.53852  1.0000
  F   F65       1.0  0.21403  0.20546  0.19643  1.0000
  F   F66       1.0  0.20437  0.21022  0.71614  1.0000
  F   F67       1.0  0.20533  0.69510  0.22304  1.0000
  F   F68       1.0  0.21532  0.70372  0.70084  1.0000
  F   F69       1.0  0.46398  0.21001  0.19091  1.0000
  F   F70       1.0  0.44758  0.19547  0.68672  1.0000
  F   F71       1.0  0.45253  0.70493  0.21630  1.0000
  F   F72       1.0  0.44704  0.70462  0.72267  1.0000
  F   F73       1.0  0.70829  0.20654  0.20385  1.0000
  F   F74       1.0  0.71088  0.22455  0.69791  1.0000
  F   F75       1.0  0.69966  0.70256  0.20779  1.0000
  F   F76       1.0  0.69743  0.71765  0.71495  1.0000
  F   F77       1.0  0.94573  0.20044  0.21861  1.0000
  F   F78       1.0  0.96014  0.19490  0.69478  1.0000
  F   F79       1.0  0.95154  0.71351  0.21540  1.0000
  F   F80       1.0  0.94697  0.71466  0.71773  1.0000
  F   F81       1.0  0.15182  0.08987  0.04378  1.0000
  F   F82       1.0  0.15032  0.09115  0.53567  1.0000
  F   F83       1.0  0.15279  0.61771  0.03021  1.0000
  F   F84       1.0  0.14822  0.60737  0.55183  1.0000
  F   F85       1.0  0.40145  0.06904  0.05780  1.0000
  F   F86       1.0  0.39292  0.07322  0.53220  1.0000
  F   F87       1.0  0.41156  0.57508  0.03811  1.0000
  F   F88       1.0  0.39834  0.59002  0.54262  1.0000
  F   F89       1.0  0.64965  0.10105  0.03523  1.0000
  F   F90       1.0  0.64121  0.09281  0.54240  1.0000
  F   F91       1.0  0.65276  0.60054  0.04403  1.0000
  F   F92       1.0  0.64431  0.60171  0.53149  1.0000
  F   F93       1.0  0.89216  0.08755  0.02351  1.0000
  F   F94       1.0  0.89390  0.10552  0.53973  1.0000
  F   F95       1.0  0.89619  0.60996  0.03358  1.0000
  F   F96       1.0  0.89684  0.57764  0.54412  1.0000
  F   F97       1.0  0.15150  0.19732  0.12984  1.0000
  F   F98       1.0  0.15681  0.18845  0.62168  1.0000
  F   F99       1.0  0.15508  0.69261  0.13557  1.0000
  F   F100      1.0  0.15016  0.69537  0.66216  1.0000
  F   F101      1.0  0.40197  0.18925  0.12607  1.0000
  F   F102      1.0  0.39272  0.19171  0.60818  1.0000
  F   F103      1.0  0.39995  0.68314  0.14054  1.0000
  F   F104      1.0  0.40819  0.69616  0.61352  1.0000
  F   F105      1.0  0.66089  0.19659  0.11198  1.0000
  F   F106      1.0  0.65280  0.19001  0.62969  1.0000
  F   F107      1.0  0.65033  0.70806  0.12176  1.0000
  F   F108      1.0  0.65451  0.69999  0.62691  1.0000
  F   F109      1.0  0.90188  0.17850  0.11853  1.0000
  F   F110      1.0  0.89221  0.19968  0.64733  1.0000
  F   F111      1.0  0.89718  0.71224  0.12375  1.0000
  F   F112      1.0  0.90679  0.69457  0.62759  1.0000
  F   F113      1.0  0.09589  0.30162  0.38463  1.0000
  F   F114      1.0  0.08910  0.29741  0.87907  1.0000
  F   F115      1.0  0.09645  0.79422  0.37889  1.0000
  F   F116      1.0  0.10052  0.79196  0.89085  1.0000
  F   F117      1.0  0.34845  0.30045  0.37530  1.0000
  F   F118      1.0  0.35414  0.29229  0.88398  1.0000
  F   F119      1.0  0.35278  0.79395  0.35958  1.0000
  F   F120      1.0  0.34817  0.79597  0.86751  1.0000
  F   F121      1.0  0.60275  0.30053  0.34695  1.0000
  F   F122      1.0  0.59954  0.31527  0.87536  1.0000
  F   F123      1.0  0.60004  0.81837  0.37301  1.0000
  F   F124      1.0  0.61311  0.78956  0.84037  1.0000
  F   F125      1.0  0.84661  0.31036  0.36304  1.0000
  F   F126      1.0  0.84706  0.32082  0.88515  1.0000
  F   F127      1.0  0.84381  0.81587  0.37674  1.0000
  F   F128      1.0  0.85208  0.78701  0.90111  1.0000
  F   F129      1.0  0.06852  0.24603  0.14647  1.0000
  F   F130      1.0  0.07002  0.24324  0.64124  1.0000
  F   F131      1.0  0.07652  0.74855  0.12731  1.0000
  F   F132      1.0  0.05942  0.73895  0.65899  1.0000
  F   F133      1.0  0.31429  0.25810  0.13544  1.0000
  F   F134      1.0  0.30621  0.23685  0.65976  1.0000
  F   F135      1.0  0.30956  0.74215  0.16279  1.0000
  F   F136      1.0  0.31883  0.75772  0.62903  1.0000
  F   F137      1.0  0.57130  0.26098  0.11003  1.0000
  F   F138      1.0  0.56400  0.25261  0.64301  1.0000
  F   F139      1.0  0.57076  0.75097  0.13826  1.0000
  F   F140      1.0  0.57734  0.76393  0.63215  1.0000
  F   F141      1.0  0.81365  0.25049  0.13158  1.0000
  F   F142      1.0  0.80797  0.26137  0.65351  1.0000
  F   F143      1.0  0.80594  0.75654  0.15907  1.0000
  F   F144      1.0  0.82083  0.76506  0.63433  1.0000
  F   F145      1.0  0.12537  0.38067  0.10521  1.0000
  F   F146      1.0  0.12213  0.34905  0.61996  1.0000
  F   F147      1.0  0.11544  0.85549  0.13148  1.0000
  F   F148      1.0  0.12349  0.85876  0.61870  1.0000
  F   F149      1.0  0.37495  0.37851  0.10079  1.0000
  F   F150      1.0  0.37294  0.37340  0.60026  1.0000
  F   F151      1.0  0.37071  0.85959  0.11058  1.0000
  F   F152      1.0  0.37269  0.86148  0.60859  1.0000
  F   F153      1.0  0.62267  0.36200  0.12365  1.0000
  F   F154      1.0  0.62667  0.36404  0.61348  1.0000
  F   F155      1.0  0.62069  0.88430  0.09699  1.0000
  F   F156      1.0  0.62196  0.89910  0.59927  1.0000
  F   F157      1.0  0.87138  0.34255  0.13365  1.0000
  F   F158      1.0  0.87817  0.37632  0.59650  1.0000
  F   F159      1.0  0.86988  0.88164  0.11895  1.0000
  F   F160      1.0  0.87857  0.88643  0.61084  1.0000
  F   F161      1.0  0.18884  0.24846  0.35256  1.0000
  F   F162      1.0  0.17782  0.24948  0.86878  1.0000
  F   F163      1.0  0.18610  0.75103  0.35048  1.0000
  F   F164      1.0  0.19286  0.75760  0.85040  1.0000
  F   F165      1.0  0.43813  0.24145  0.36283  1.0000
  F   F166      1.0  0.44918  0.24730  0.83179  1.0000
  F   F167      1.0  0.43889  0.74914  0.35250  1.0000
  F   F168      1.0  0.42537  0.74387  0.87864  1.0000
  F   F169      1.0  0.68594  0.24508  0.35822  1.0000
  F   F170      1.0  0.68016  0.24636  0.86247  1.0000
  F   F171      1.0  0.69302  0.74685  0.35094  1.0000
  F   F172      1.0  0.69034  0.74809  0.86591  1.0000
  F   F173      1.0  0.92919  0.24522  0.36201  1.0000
  F   F174      1.0  0.93693  0.24071  0.84782  1.0000
  F   F175      1.0  0.93721  0.74940  0.35857  1.0000
  F   F176      1.0  0.94297  0.74083  0.85983  1.0000
  F   F177      1.0  0.12933  0.14130  0.37838  1.0000
  F   F178      1.0  0.12308  0.11888  0.91465  1.0000
  F   F179      1.0  0.12766  0.60976  0.40332  1.0000
  F   F180      1.0  0.12912  0.63044  0.89544  1.0000
  F   F181      1.0  0.37985  0.13667  0.36603  1.0000
  F   F182      1.0  0.38335  0.13396  0.87396  1.0000
  F   F183      1.0  0.36957  0.61280  0.41902  1.0000
  F   F184      1.0  0.37553  0.61098  0.91087  1.0000
  F   F185      1.0  0.62442  0.12555  0.38091  1.0000
  F   F186      1.0  0.62267  0.12867  0.89813  1.0000
  F   F187      1.0  0.62607  0.64972  0.37727  1.0000
  F   F188      1.0  0.62581  0.61742  0.91298  1.0000
  F   F189      1.0  0.87649  0.12867  0.38368  1.0000
  F   F190      1.0  0.87469  0.16342  0.85985  1.0000
  F   F191      1.0  0.87935  0.62668  0.38057  1.0000
  F   F192      1.0  0.87327  0.61162  0.90772  1.0000
  F   F193      1.0  0.01081  0.34753  0.08452  1.0000
  F   F194      1.0  0.01188  0.35600  0.58213  1.0000
  F   F195      1.0  0.00608  0.86319  0.08085  1.0000
  F   F196      1.0  0.00853  0.87175  0.57884  1.0000
  F   F197      1.0  0.26020  0.37126  0.05556  1.0000
  F   F198      1.0  0.25806  0.36142  0.57007  1.0000
  F   F199      1.0  0.25125  0.86625  0.08186  1.0000
  F   F200      1.0  0.24984  0.88011  0.57483  1.0000
  F   F201      1.0  0.50859  0.37419  0.07042  1.0000
  F   F202      1.0  0.50766  0.35044  0.58667  1.0000
  F   F203      1.0  0.51201  0.84993  0.07980  1.0000
  F   F204      1.0  0.50733  0.86452  0.57091  1.0000
  F   F205      1.0  0.75882  0.36484  0.06835  1.0000
  F   F206      1.0  0.75828  0.38320  0.55422  1.0000
  F   F207      1.0  0.75578  0.87706  0.06498  1.0000
  F   F208      1.0  0.75804  0.85274  0.56057  1.0000
  F   F209      1.0  0.06690  0.48122  0.18550  1.0000
  F   F210      1.0  0.07328  0.47940  0.67758  1.0000
  F   F211      1.0  0.06260  0.99012  0.18393  1.0000
  F   F212      1.0  0.07400  0.98581  0.67472  1.0000
  F   F213      1.0  0.31888  0.48829  0.16849  1.0000
  F   F214      1.0  0.32014  0.48114  0.67263  1.0000
  F   F215      1.0  0.32248  0.97542  0.17270  1.0000
  F   F216      1.0  0.31271  0.97138  0.69373  1.0000
  F   F217      1.0  0.56816  0.48553  0.17344  1.0000
  F   F218      1.0  0.56975  0.49740  0.66464  1.0000
  F   F219      1.0  0.56543  0.98003  0.19336  1.0000
  F   F220      1.0  0.55955  0.98459  0.68837  1.0000
  F   F221      1.0  0.82248  0.48374  0.17624  1.0000
  F   F222      1.0  0.81828  0.49387  0.67435  1.0000
  F   F223      1.0  0.81051  0.98495  0.18853  1.0000
  F   F224      1.0  0.81913  0.99751  0.67370  1.0000
  F   F225      1.0  0.24714  0.11510  0.41624  1.0000
  F   F226      1.0  0.24665  0.14660  0.91401  1.0000
  F   F227      1.0  0.23601  0.64480  0.44055  1.0000
  F   F228      1.0  0.24877  0.64560  0.91297  1.0000
  F   F229      1.0  0.49482  0.12756  0.42892  1.0000
  F   F230      1.0  0.48805  0.12965  0.94344  1.0000
  F   F231      1.0  0.49397  0.63760  0.42651  1.0000
  F   F232      1.0  0.49449  0.64677  0.91903  1.0000
  F   F233      1.0  0.74573  0.14330  0.41346  1.0000
  F   F234      1.0  0.74308  0.15728  0.91028  1.0000
  F   F235      1.0  0.74106  0.65021  0.41713  1.0000
  F   F236      1.0  0.74215  0.63686  0.91910  1.0000
  F   F237      1.0  0.99389  0.14463  0.42639  1.0000
  F   F238      1.0  0.99697  0.13569  0.91840  1.0000
  F   F239      1.0  0.98856  0.63287  0.44513  1.0000
  F   F240      1.0  0.99118  0.61999  0.94355  1.0000
  F   F241      1.0  0.17892  0.01585  0.31382  1.0000
  F   F242      1.0  0.18150  0.02040  0.81995  1.0000
  F   F243      1.0  0.18684  0.51656  0.30743  1.0000
  F   F244      1.0  0.18571  0.52392  0.81983  1.0000
  F   F245      1.0  0.43187  0.00802  0.32881  1.0000
  F   F246      1.0  0.43121  0.00508  0.83694  1.0000
  F   F247      1.0  0.42047  0.51356  0.32686  1.0000
  F   F248      1.0  0.44650  0.51260  0.81034  1.0000
  F   F249      1.0  0.68391  0.01786  0.32288  1.0000
  F   F250      1.0  0.68619  0.02478  0.80847  1.0000
  F   F251      1.0  0.68139  0.50941  0.33315  1.0000
  F   F252      1.0  0.69414  0.51466  0.80679  1.0000
  F   F253      1.0  0.93907  0.01641  0.32441  1.0000
  F   F254      1.0  0.92079  0.01220  0.84382  1.0000
  F   F255      1.0  0.93450  0.51094  0.33105  1.0000
  F   F256      1.0  0.92893  0.52252  0.82337  1.0000
  F   F257      1.0  0.99883  0.24812  0.00491  1.0000
  F   F258      1.0  0.99757  0.25014  0.50318  1.0000
  F   F259      1.0  0.00365  0.76098  0.99960  1.0000
  F   F260      1.0  0.99743  0.75652  0.49876  1.0000
  F   F261      1.0  0.25864  0.24886  0.00068  1.0000
  F   F262      1.0  0.24749  0.23766  0.49618  1.0000
  F   F263      1.0  0.25074  0.73659  0.02472  1.0000
  F   F264      1.0  0.25185  0.75144  0.50415  1.0000
  F   F265      1.0  0.50225  0.26041  0.99058  1.0000
  F   F266      1.0  0.49895  0.25100  0.48910  1.0000
  F   F267      1.0  0.50026  0.76250  0.99397  1.0000
  F   F268      1.0  0.49861  0.75459  0.49029  1.0000
  F   F269      1.0  0.74919  0.26402  0.99315  1.0000
  F   F270      1.0  0.74590  0.24168  0.50747  1.0000
  F   F271      1.0  0.74663  0.75132  0.00938  1.0000
  F   F272      1.0  0.74977  0.72741  0.51373  1.0000
  F   F273      1.0  0.12724  0.99681  0.24355  1.0000
  F   F274      1.0  0.12344  0.99548  0.75275  1.0000
  F   F275      1.0  0.12091  0.49127  0.25087  1.0000
  F   F276      1.0  0.12048  0.48922  0.76961  1.0000
  F   F277      1.0  0.37676  0.99806  0.24224  1.0000
  F   F278      1.0  0.38194  0.01441  0.74002  1.0000
  F   F279      1.0  0.38051  0.49945  0.23244  1.0000
  F   F280      1.0  0.37396  0.50199  0.74943  1.0000
  F   F281      1.0  0.62554  0.01324  0.24708  1.0000
  F   F282      1.0  0.62442  0.01004  0.75528  1.0000
  F   F283      1.0  0.62294  0.49997  0.25676  1.0000
  F   F284      1.0  0.62729  0.49713  0.73963  1.0000
  F   F285      1.0  0.86910  0.00023  0.25286  1.0000
  F   F286      1.0  0.87720  0.98656  0.75032  1.0000
  F   F287      1.0  0.87914  0.50857  0.23982  1.0000
  F   F288      1.0  0.88458  0.50938  0.73395  1.0000
  F   F289      1.0  0.04619  0.01813  0.02566  1.0000
  F   F290      1.0  0.04964  0.02544  0.51718  1.0000
  F   F291      1.0  0.04253  0.52515  0.02884  1.0000
  F   F292      1.0  0.04165  0.52952  0.53567  1.0000
  F   F293      1.0  0.29545  0.03671  0.01577  1.0000
  F   F294      1.0  0.30026  0.02861  0.51906  1.0000
  F   F295      1.0  0.29160  0.53019  0.02086  1.0000
  F   F296      1.0  0.28364  0.53142  0.52912  1.0000
  F   F297      1.0  0.54451  0.01434  0.01167  1.0000
  F   F298      1.0  0.53844  0.03077  0.54422  1.0000
  F   F299      1.0  0.53864  0.53226  0.02582  1.0000
  F   F300      1.0  0.54547  0.52561  0.51969  1.0000
  F   F301      1.0  0.78788  0.03818  0.02753  1.0000
  F   F302      1.0  0.78427  0.03530  0.53339  1.0000
  F   F303      1.0  0.78334  0.54152  0.02787  1.0000
  F   F304      1.0  0.78875  0.54346  0.51980  1.0000
  F   F305      1.0  0.23847  0.40914  0.21975  1.0000
  F   F306      1.0  0.23688  0.41493  0.72996  1.0000
  F   F307      1.0  0.23403  0.91733  0.22097  1.0000
  F   F308      1.0  0.23291  0.92336  0.71456  1.0000
  F   F309      1.0  0.48057  0.42336  0.22510  1.0000
  F   F310      1.0  0.48925  0.41327  0.72717  1.0000
  F   F311      1.0  0.48246  0.89513  0.24814  1.0000
  F   F312      1.0  0.48320  0.90623  0.72510  1.0000
  F   F313      1.0  0.73745  0.42005  0.22675  1.0000
  F   F314      1.0  0.74083  0.39251  0.74582  1.0000
  F   F315      1.0  0.73019  0.91179  0.22481  1.0000
  F   F316      1.0  0.74287  0.91968  0.72701  1.0000
  F   F317      1.0  0.98488  0.41772  0.23380  1.0000
  F   F318      1.0  0.98148  0.42809  0.71726  1.0000
  F   F319      1.0  0.98077  0.92233  0.21897  1.0000
  F   F320      1.0  0.98123  0.91540  0.74703  1.0000
  F   F321      1.0  0.19993  0.47182  0.48607  1.0000
  F   F322      1.0  0.20339  0.48772  0.97390  1.0000
  F   F323      1.0  0.19530  0.96894  0.47974  1.0000
  F   F324      1.0  0.20201  0.97536  0.98685  1.0000
  F   F325      1.0  0.46817  0.46679  0.45909  1.0000
  F   F326      1.0  0.46491  0.46190  0.97673  1.0000
  F   F327      1.0  0.46502  0.96886  0.46903  1.0000
  F   F328      1.0  0.45932  0.95973  0.97289  1.0000
  F   F329      1.0  0.70089  0.47470  0.47961  1.0000
  F   F330      1.0  0.70551  0.48068  0.97064  1.0000
  F   F331      1.0  0.71149  0.97549  0.47978  1.0000
  F   F332      1.0  0.70490  0.98030  0.96924  1.0000
  F   F333      1.0  0.96014  0.46540  0.48213  1.0000
  F   F334      1.0  0.94912  0.45781  0.99774  1.0000
  F   F335      1.0  0.95727  0.97116  0.48909  1.0000
  F   F336      1.0  0.95997  0.97119  0.97769  1.0000
  F   F337      1.0  0.01500  0.09516  0.27843  1.0000
  F   F338      1.0  0.01370  0.07984  0.77120  1.0000
  F   F339      1.0  0.01362  0.59499  0.27550  1.0000
  F   F340      1.0  0.01095  0.56803  0.78652  1.0000
  F   F341      1.0  0.26796  0.09072  0.25532  1.0000
  F   F342      1.0  0.26447  0.07757  0.79050  1.0000
  F   F343      1.0  0.26756  0.56725  0.29459  1.0000
  F   F344      1.0  0.26611  0.58989  0.77404  1.0000
  F   F345      1.0  0.51641  0.08808  0.27272  1.0000
  F   F346      1.0  0.51258  0.09486  0.78301  1.0000
  F   F347      1.0  0.51176  0.58970  0.26261  1.0000
  F   F348      1.0  0.52207  0.61000  0.76802  1.0000
  F   F349      1.0  0.77025  0.09581  0.26250  1.0000
  F   F350      1.0  0.76614  0.09236  0.76484  1.0000
  F   F351      1.0  0.76627  0.57280  0.26528  1.0000
  F   F352      1.0  0.76818  0.61737  0.74108  1.0000
  F   F353      1.0  0.11149  0.42352  0.45782  1.0000
  F   F354      1.0  0.10720  0.39502  0.96469  1.0000
  F   F355      1.0  0.09960  0.89368  0.46155  1.0000
  F   F356      1.0  0.10646  0.90809  0.96533  1.0000
  F   F357      1.0  0.34812  0.38858  0.46929  1.0000
  F   F358      1.0  0.35148  0.40946  0.95457  1.0000
  F   F359      1.0  0.34686  0.89743  0.45459  1.0000
  F   F360      1.0  0.34701  0.89549  0.96360  1.0000
  F   F361      1.0  0.60107  0.39205  0.46234  1.0000
  F   F362      1.0  0.60717  0.43193  0.94974  1.0000
  F   F363      1.0  0.60312  0.90575  0.45958  1.0000
  F   F364      1.0  0.60616  0.88696  0.93638  1.0000
  F   F365      1.0  0.85408  0.42176  0.45962  1.0000
  F   F366      1.0  0.85185  0.42762  0.97041  1.0000
  F   F367      1.0  0.84800  0.92480  0.46057  1.0000
  F   F368      1.0  0.85041  0.89510  0.97167  1.0000
  F   F369      1.0  0.05457  0.30275  0.27824  1.0000
  F   F370      1.0  0.04099  0.29110  0.78308  1.0000
  F   F371      1.0  0.03261  0.79288  0.28920  1.0000
  F   F372      1.0  0.04106  0.79237  0.80459  1.0000
  F   F373      1.0  0.29565  0.28895  0.28647  1.0000
  F   F374      1.0  0.30521  0.30152  0.77493  1.0000
  F   F375      1.0  0.29296  0.78922  0.29548  1.0000
  F   F376      1.0  0.29087  0.79827  0.78639  1.0000
  F   F377      1.0  0.54065  0.28990  0.28016  1.0000
  F   F378      1.0  0.55502  0.30504  0.78507  1.0000
  F   F379      1.0  0.55032  0.78254  0.29150  1.0000
  F   F380      1.0  0.54758  0.80093  0.77624  1.0000
  F   F381      1.0  0.79318  0.30148  0.29140  1.0000
  F   F382      1.0  0.81016  0.30239  0.77583  1.0000
  F   F383      1.0  0.79484  0.80812  0.28741  1.0000
  F   F384      1.0  0.80203  0.79759  0.79507  1.0000
