data_image0
_chemical_formula_structural       Hf96F384
_chemical_formula_sum              "Hf96 F384"
_cell_length_a       31.03
_cell_length_b       15.5126
_cell_length_c       15.501
_cell_angle_alpha    63.342
_cell_angle_beta     63.342
_cell_angle_gamma    80.1625

_space_group_name_H-M_alt    "P 1"
_space_group_IT_number       1

loop_
  _space_group_symop_operation_xyz
  'x, y, z'

loop_
  _atom_site_type_symbol
  _atom_site_label
  _atom_site_symmetry_multiplicity
  _atom_site_fract_x
  _atom_site_fract_y
  _atom_site_fract_z
  _atom_site_occupancy
  Hf  Hf1       1.0  0.20053  0.11843  0.37109  1.0000
  Hf  Hf2       1.0  0.19596  0.10847  0.87158  1.0000
  Hf  Hf3       1.0  0.19624  0.61319  0.36958  1.0000
  Hf  Hf4       1.0  0.19428  0.60932  0.87512  1.0000
  Hf  Hf5       1.0  0.44787  0.11131  0.36870  1.0000
  Hf  Hf6       1.0  0.44657  0.09999  0.88319  1.0000
  Hf  Hf7       1.0  0.44855  0.60145  0.37877  1.0000
  Hf  Hf8       1.0  0.44563  0.60955  0.88055  1.0000
  Hf  Hf9       1.0  0.69542  0.10864  0.37917  1.0000
  Hf  Hf10      1.0  0.69704  0.10211  0.87699  1.0000
  Hf  Hf11      1.0  0.69867  0.60778  0.37585  1.0000
  Hf  Hf12      1.0  0.69670  0.59931  0.88162  1.0000
  Hf  Hf13      1.0  0.94696  0.10709  0.36700  1.0000
  Hf  Hf14      1.0  0.94533  0.10930  0.87118  1.0000
  Hf  Hf15      1.0  0.94628  0.60974  0.37430  1.0000
  Hf  Hf16      1.0  0.94844  0.60545  0.86636  1.0000
  Hf  Hf17      1.0  0.05452  0.39558  0.12214  1.0000
  Hf  Hf18      1.0  0.05213  0.39955  0.62054  1.0000
  Hf  Hf19      1.0  0.05457  0.89475  0.12589  1.0000
  Hf  Hf20      1.0  0.05218  0.89022  0.62765  1.0000
  Hf  Hf21      1.0  0.30825  0.40170  0.10745  1.0000
  Hf  Hf22      1.0  0.30346  0.39430  0.61700  1.0000
  Hf  Hf23      1.0  0.30520  0.89616  0.12914  1.0000
  Hf  Hf24      1.0  0.30442  0.89927  0.62669  1.0000
  Hf  Hf25      1.0  0.55625  0.39059  0.11808  1.0000
  Hf  Hf26      1.0  0.55704  0.39332  0.62915  1.0000
  Hf  Hf27      1.0  0.55112  0.88576  0.13967  1.0000
  Hf  Hf28      1.0  0.55298  0.90078  0.62888  1.0000
  Hf  Hf29      1.0  0.80311  0.38881  0.12712  1.0000
  Hf  Hf30      1.0  0.80638  0.38484  0.62473  1.0000
  Hf  Hf31      1.0  0.80073  0.89552  0.13039  1.0000
  Hf  Hf32      1.0  0.80463  0.89143  0.62226  1.0000
  Hf  Hf33      1.0  0.05765  0.17756  0.41339  1.0000
  Hf  Hf34      1.0  0.05372  0.18711  0.91174  1.0000
  Hf  Hf35      1.0  0.05558  0.68942  0.41011  1.0000
  Hf  Hf36      1.0  0.05617  0.68944  0.91463  1.0000
  Hf  Hf37      1.0  0.30761  0.19560  0.41317  1.0000
  Hf  Hf38      1.0  0.30545  0.18250  0.92058  1.0000
  Hf  Hf39      1.0  0.30499  0.68489  0.41539  1.0000
  Hf  Hf40      1.0  0.30673  0.68546  0.91534  1.0000
  Hf  Hf41      1.0  0.55583  0.18502  0.41042  1.0000
  Hf  Hf42      1.0  0.55675  0.18046  0.91894  1.0000
  Hf  Hf43      1.0  0.55276  0.67648  0.42409  1.0000
  Hf  Hf44      1.0  0.55734  0.67590  0.92463  1.0000
  Hf  Hf45      1.0  0.80994  0.18678  0.41727  1.0000
  Hf  Hf46      1.0  0.80466  0.17263  0.91926  1.0000
  Hf  Hf47      1.0  0.80309  0.66946  0.42844  1.0000
  Hf  Hf48      1.0  0.80309  0.67892  0.92500  1.0000
  Hf  Hf49      1.0  0.16073  0.39285  0.31936  1.0000
  Hf  Hf50      1.0  0.15923  0.38930  0.82772  1.0000
  Hf  Hf51      1.0  0.16095  0.89468  0.33098  1.0000
  Hf  Hf52      1.0  0.15639  0.88701  0.83330  1.0000
  Hf  Hf53      1.0  0.40939  0.39178  0.32211  1.0000
  Hf  Hf54      1.0  0.41395  0.39245  0.82101  1.0000
  Hf  Hf55      1.0  0.40548  0.88858  0.34264  1.0000
  Hf  Hf56      1.0  0.40506  0.88841  0.83589  1.0000
  Hf  Hf57      1.0  0.66067  0.39097  0.33131  1.0000
  Hf  Hf58      1.0  0.66250  0.38447  0.83037  1.0000
  Hf  Hf59      1.0  0.65687  0.88770  0.34152  1.0000
  Hf  Hf60      1.0  0.65294  0.88218  0.84356  1.0000
  Hf  Hf61      1.0  0.91309  0.39028  0.32077  1.0000
  Hf  Hf62      1.0  0.90971  0.38626  0.83107  1.0000
  Hf  Hf63      1.0  0.90503  0.88083  0.33856  1.0000
  Hf  Hf64      1.0  0.90462  0.88548  0.83876  1.0000
  Hf  Hf65      1.0  0.19792  0.32946  0.06513  1.0000
  Hf  Hf66      1.0  0.19218  0.31992  0.58271  1.0000
  Hf  Hf67      1.0  0.19450  0.81905  0.08699  1.0000
  Hf  Hf68      1.0  0.19218  0.81905  0.58476  1.0000
  Hf  Hf69      1.0  0.44459  0.30824  0.08569  1.0000
  Hf  Hf70      1.0  0.44385  0.31208  0.58587  1.0000
  Hf  Hf71      1.0  0.44286  0.81388  0.09214  1.0000
  Hf  Hf72      1.0  0.44199  0.81554  0.58933  1.0000
  Hf  Hf73      1.0  0.69330  0.31454  0.08584  1.0000
  Hf  Hf74      1.0  0.69487  0.30909  0.58754  1.0000
  Hf  Hf75      1.0  0.69281  0.80982  0.09719  1.0000
  Hf  Hf76      1.0  0.69462  0.81191  0.58779  1.0000
  Hf  Hf77      1.0  0.94415  0.31307  0.07720  1.0000
  Hf  Hf78      1.0  0.94551  0.31129  0.58249  1.0000
  Hf  Hf79      1.0  0.94276  0.81992  0.08460  1.0000
  Hf  Hf80      1.0  0.94394  0.81328  0.58489  1.0000
  Hf  Hf81      1.0  0.09071  0.11123  0.16491  1.0000
  Hf  Hf82      1.0  0.09108  0.12090  0.65486  1.0000
  Hf  Hf83      1.0  0.09429  0.61843  0.15885  1.0000
  Hf  Hf84      1.0  0.09139  0.60962  0.66964  1.0000
  Hf  Hf85      1.0  0.34119  0.11503  0.16831  1.0000
  Hf  Hf86      1.0  0.34251  0.11433  0.66276  1.0000
  Hf  Hf87      1.0  0.34088  0.61497  0.16530  1.0000
  Hf  Hf88      1.0  0.34212  0.62418  0.65532  1.0000
  Hf  Hf89      1.0  0.58954  0.10581  0.16790  1.0000
  Hf  Hf90      1.0  0.58450  0.11021  0.67491  1.0000
  Hf  Hf91      1.0  0.59085  0.61167  0.17082  1.0000
  Hf  Hf92      1.0  0.59191  0.61138  0.66639  1.0000
  Hf  Hf93      1.0  0.84026  0.11337  0.16624  1.0000
  Hf  Hf94      1.0  0.84033  0.10451  0.66896  1.0000
  Hf  Hf95      1.0  0.84409  0.61367  0.16092  1.0000
  Hf  Hf96      1.0  0.83703  0.61114  0.67428  1.0000
  F   F1        1.0  0.08553  0.13964  0.29286  1.0000
  F   F2        1.0  0.07655  0.12815  0.80259  1.0000
  F   F3        1.0  0.08163  0.63206  0.29701  1.0000
  F   F4        1.0  0.08771  0.65639  0.79122  1.0000
  F   F5        1.0  0.32960  0.12816  0.30747  1.0000
  F   F6        1.0  0.33645  0.13824  0.78605  1.0000
  F   F7        1.0  0.33936  0.64734  0.28583  1.0000
  F   F8        1.0  0.33069  0.63431  0.79962  1.0000
  F   F9        1.0  0.57444  0.11713  0.31208  1.0000
  F   F10       1.0  0.57857  0.11766  0.81434  1.0000
  F   F11       1.0  0.57445  0.61767  0.31399  1.0000
  F   F12       1.0  0.57995  0.62216  0.80612  1.0000
  F   F13       1.0  0.83390  0.12845  0.30092  1.0000
  F   F14       1.0  0.82038  0.09210  0.82901  1.0000
  F   F15       1.0  0.83556  0.64271  0.30163  1.0000
  F   F16       1.0  0.81840  0.62890  0.81402  1.0000
  F   F17       1.0  0.17991  0.34457  0.44531  1.0000
  F   F18       1.0  0.19096  0.35151  0.93278  1.0000
  F   F19       1.0  0.18533  0.83202  0.44914  1.0000
  F   F20       1.0  0.18217  0.83587  0.95141  1.0000
  F   F21       1.0  0.43377  0.33266  0.44218  1.0000
  F   F22       1.0  0.43517  0.32513  0.94983  1.0000
  F   F23       1.0  0.43278  0.84034  0.45456  1.0000
  F   F24       1.0  0.43709  0.83814  0.94060  1.0000
  F   F25       1.0  0.68864  0.34485  0.44887  1.0000
  F   F26       1.0  0.68349  0.32884  0.95184  1.0000
  F   F27       1.0  0.68116  0.83981  0.45911  1.0000
  F   F28       1.0  0.68387  0.84389  0.95253  1.0000
  F   F29       1.0  0.92928  0.33015  0.45384  1.0000
  F   F30       1.0  0.93891  0.34541  0.93917  1.0000
  F   F31       1.0  0.93830  0.83982  0.43611  1.0000
  F   F32       1.0  0.93117  0.83615  0.95318  1.0000
  F   F33       1.0  0.16823  0.38754  0.18538  1.0000
  F   F34       1.0  0.16617  0.38886  0.69004  1.0000
  F   F35       1.0  0.16856  0.86967  0.20285  1.0000
  F   F36       1.0  0.16948  0.87784  0.69205  1.0000
  F   F37       1.0  0.42107  0.36988  0.19962  1.0000
  F   F38       1.0  0.42310  0.38013  0.68768  1.0000
  F   F39       1.0  0.41387  0.86204  0.20846  1.0000
  F   F40       1.0  0.41322  0.86316  0.70852  1.0000
  F   F41       1.0  0.67755  0.38973  0.18409  1.0000
  F   F42       1.0  0.67192  0.34823  0.71652  1.0000
  F   F43       1.0  0.66894  0.87001  0.20055  1.0000
  F   F44       1.0  0.66607  0.85730  0.71735  1.0000
  F   F45       1.0  0.92446  0.37437  0.19322  1.0000
  F   F46       1.0  0.92740  0.38155  0.68592  1.0000
  F   F47       1.0  0.92032  0.86619  0.20643  1.0000
  F   F48       1.0  0.92099  0.86055  0.69657  1.0000
  F   F49       1.0  0.07050  0.16484  0.03944  1.0000
  F   F50       1.0  0.05727  0.16330  0.55458  1.0000
  F   F51       1.0  0.05917  0.65784  0.06657  1.0000
  F   F52       1.0  0.06638  0.65788  0.54486  1.0000
  F   F53       1.0  0.31228  0.16508  0.05268  1.0000
  F   F54       1.0  0.30780  0.17213  0.55658  1.0000
  F   F55       1.0  0.31550  0.65110  0.05641  1.0000
  F   F56       1.0  0.31561  0.66284  0.54942  1.0000
  F   F57       1.0  0.56780  0.14226  0.05014  1.0000
  F   F58       1.0  0.55882  0.17318  0.55839  1.0000
  F   F59       1.0  0.56233  0.65338  0.06537  1.0000
  F   F60       1.0  0.56523  0.65649  0.55241  1.0000
  F   F61       1.0  0.81709  0.17175  0.03849  1.0000
  F   F62       1.0  0.81642  0.15818  0.54526  1.0000
  F   F63       1.0  0.81125  0.64199  0.06138  1.0000
  F   F64       1.0  0.81097  0.66385  0.56328  1.0000
  F   F65       1.0  0.20417  0.22012  0.19696  1.0000
  F   F66       1.0  0.20363  0.21122  0.71410  1.0000
  F   F67       1.0  0.21293  0.69835  0.20880  1.0000
  F   F68       1.0  0.20311  0.70540  0.70760  1.0000
  F   F69       1.0  0.45148  0.19232  0.21162  1.0000
  F   F70       1.0  0.44905  0.18838  0.71555  1.0000
  F   F71       1.0  0.45527  0.69659  0.20785  1.0000
  F   F72       1.0  0.45995  0.69129  0.70805  1.0000
  F   F73       1.0  0.69579  0.20641  0.21496  1.0000
  F   F74       1.0  0.70821  0.19464  0.70003  1.0000
  F   F75       1.0  0.71060  0.70132  0.22434  1.0000
  F   F76       1.0  0.71228  0.69723  0.71401  1.0000
  F   F77       1.0  0.95988  0.20458  0.19788  1.0000
  F   F78       1.0  0.96383  0.20279  0.69994  1.0000
  F   F79       1.0  0.94721  0.70311  0.22796  1.0000
  F   F80       1.0  0.96124  0.69427  0.70715  1.0000
  F   F81       1.0  0.14671  0.07455  0.04075  1.0000
  F   F82       1.0  0.15628  0.10739  0.52958  1.0000
  F   F83       1.0  0.15159  0.58501  0.04179  1.0000
  F   F84       1.0  0.14315  0.58185  0.53748  1.0000
  F   F85       1.0  0.40137  0.10348  0.03066  1.0000
  F   F86       1.0  0.39205  0.09077  0.53853  1.0000
  F   F87       1.0  0.39965  0.59521  0.03368  1.0000
  F   F88       1.0  0.40168  0.59537  0.54928  1.0000
  F   F89       1.0  0.64997  0.08598  0.03872  1.0000
  F   F90       1.0  0.64190  0.09632  0.55836  1.0000
  F   F91       1.0  0.65039  0.60061  0.03809  1.0000
  F   F92       1.0  0.64657  0.58846  0.54068  1.0000
  F   F93       1.0  0.89370  0.09382  0.02922  1.0000
  F   F94       1.0  0.89884  0.09162  0.53799  1.0000
  F   F95       1.0  0.90283  0.59682  0.03935  1.0000
  F   F96       1.0  0.90114  0.61275  0.55666  1.0000
  F   F97       1.0  0.14741  0.20683  0.10019  1.0000
  F   F98       1.0  0.14740  0.20073  0.63688  1.0000
  F   F99       1.0  0.15579  0.70267  0.12086  1.0000
  F   F100      1.0  0.15240  0.69922  0.60490  1.0000
  F   F101      1.0  0.40432  0.18822  0.13093  1.0000
  F   F102      1.0  0.40748  0.19626  0.61743  1.0000
  F   F103      1.0  0.40352  0.69343  0.11233  1.0000
  F   F104      1.0  0.39780  0.70253  0.64546  1.0000
  F   F105      1.0  0.64770  0.19353  0.12577  1.0000
  F   F106      1.0  0.64813  0.20331  0.62792  1.0000
  F   F107      1.0  0.64930  0.69863  0.13860  1.0000
  F   F108      1.0  0.65470  0.69059  0.64491  1.0000
  F   F109      1.0  0.90510  0.19480  0.11723  1.0000
  F   F110      1.0  0.89704  0.18223  0.64789  1.0000
  F   F111      1.0  0.90179  0.70561  0.12404  1.0000
  F   F112      1.0  0.89386  0.70479  0.66193  1.0000
  F   F113      1.0  0.10653  0.29275  0.37074  1.0000
  F   F114      1.0  0.09919  0.30006  0.86416  1.0000
  F   F115      1.0  0.09961  0.79408  0.36617  1.0000
  F   F116      1.0  0.09664  0.79847  0.87921  1.0000
  F   F117      1.0  0.34745  0.31317  0.37369  1.0000
  F   F118      1.0  0.35556  0.30678  0.87552  1.0000
  F   F119      1.0  0.35045  0.80201  0.38947  1.0000
  F   F120      1.0  0.34632  0.79816  0.88674  1.0000
  F   F121      1.0  0.59962  0.30545  0.34994  1.0000
  F   F122      1.0  0.60108  0.30373  0.88909  1.0000
  F   F123      1.0  0.59741  0.79752  0.38069  1.0000
  F   F124      1.0  0.59233  0.79562  0.89505  1.0000
  F   F125      1.0  0.85589  0.30242  0.35788  1.0000
  F   F126      1.0  0.84762  0.30728  0.85265  1.0000
  F   F127      1.0  0.84093  0.78778  0.37703  1.0000
  F   F128      1.0  0.84923  0.79665  0.89211  1.0000
  F   F129      1.0  0.06653  0.25546  0.13922  1.0000
  F   F130      1.0  0.06606  0.25985  0.64575  1.0000
  F   F131      1.0  0.06757  0.76199  0.12793  1.0000
  F   F132      1.0  0.05412  0.75205  0.65001  1.0000
  F   F133      1.0  0.31772  0.26126  0.12958  1.0000
  F   F134      1.0  0.31618  0.25185  0.64492  1.0000
  F   F135      1.0  0.31421  0.74793  0.13861  1.0000
  F   F136      1.0  0.31819  0.75735  0.63725  1.0000
  F   F137      1.0  0.56374  0.24434  0.13349  1.0000
  F   F138      1.0  0.55713  0.24284  0.67632  1.0000
  F   F139      1.0  0.56455  0.74989  0.15112  1.0000
  F   F140      1.0  0.57787  0.75472  0.62106  1.0000
  F   F141      1.0  0.81983  0.24782  0.12886  1.0000
  F   F142      1.0  0.81574  0.23983  0.63663  1.0000
  F   F143      1.0  0.82343  0.75086  0.11783  1.0000
  F   F144      1.0  0.81382  0.75033  0.65359  1.0000
  F   F145      1.0  0.12443  0.37800  0.08976  1.0000
  F   F146      1.0  0.12222  0.39223  0.59366  1.0000
  F   F147      1.0  0.12826  0.88116  0.09996  1.0000
  F   F148      1.0  0.11986  0.85728  0.60831  1.0000
  F   F149      1.0  0.37346  0.35134  0.12332  1.0000
  F   F150      1.0  0.37511  0.37582  0.60914  1.0000
  F   F151      1.0  0.37230  0.85531  0.11635  1.0000
  F   F152      1.0  0.37421  0.88872  0.60329  1.0000
  F   F153      1.0  0.62345  0.37171  0.10789  1.0000
  F   F154      1.0  0.62630  0.37713  0.60151  1.0000
  F   F155      1.0  0.62084  0.86783  0.11958  1.0000
  F   F156      1.0  0.62361  0.88026  0.60242  1.0000
  F   F157      1.0  0.87658  0.35784  0.11503  1.0000
  F   F158      1.0  0.87556  0.34391  0.62673  1.0000
  F   F159      1.0  0.87417  0.88109  0.11105  1.0000
  F   F160      1.0  0.87935  0.90481  0.58138  1.0000
  F   F161      1.0  0.20201  0.26591  0.32245  1.0000
  F   F162      1.0  0.18022  0.25301  0.87057  1.0000
  F   F163      1.0  0.17885  0.75083  0.36567  1.0000
  F   F164      1.0  0.18269  0.75087  0.85018  1.0000
  F   F165      1.0  0.43831  0.24804  0.34322  1.0000
  F   F166      1.0  0.44503  0.24412  0.83980  1.0000
  F   F167      1.0  0.43552  0.73823  0.36643  1.0000
  F   F168      1.0  0.43528  0.75038  0.85849  1.0000
  F   F169      1.0  0.68283  0.25404  0.35898  1.0000
  F   F170      1.0  0.69386  0.24437  0.84847  1.0000
  F   F171      1.0  0.67795  0.74075  0.38041  1.0000
  F   F172      1.0  0.67907  0.74430  0.87176  1.0000
  F   F173      1.0  0.94134  0.25520  0.34535  1.0000
  F   F174      1.0  0.93377  0.25103  0.86308  1.0000
  F   F175      1.0  0.92311  0.74168  0.38170  1.0000
  F   F176      1.0  0.93284  0.74486  0.85643  1.0000
  F   F177      1.0  0.12983  0.13438  0.39345  1.0000
  F   F178      1.0  0.12551  0.12558  0.88322  1.0000
  F   F179      1.0  0.12944  0.63602  0.37211  1.0000
  F   F180      1.0  0.11909  0.62421  0.92009  1.0000
  F   F181      1.0  0.37713  0.14395  0.37867  1.0000
  F   F182      1.0  0.37422  0.13740  0.89394  1.0000
  F   F183      1.0  0.37517  0.61981  0.41035  1.0000
  F   F184      1.0  0.37651  0.62331  0.89716  1.0000
  F   F185      1.0  0.62302  0.12873  0.41075  1.0000
  F   F186      1.0  0.63136  0.12961  0.87315  1.0000
  F   F187      1.0  0.62616  0.63510  0.37902  1.0000
  F   F188      1.0  0.62516  0.61516  0.90226  1.0000
  F   F189      1.0  0.87741  0.12846  0.38652  1.0000
  F   F190      1.0  0.87641  0.13966  0.87620  1.0000
  F   F191      1.0  0.87098  0.59373  0.43176  1.0000
  F   F192      1.0  0.87576  0.62496  0.88752  1.0000
  F   F193      1.0  0.01107  0.36394  0.07033  1.0000
  F   F194      1.0  0.00737  0.36051  0.57107  1.0000
  F   F195      1.0  0.00532  0.86586  0.07277  1.0000
  F   F196      1.0  0.00650  0.87068  0.56516  1.0000
  F   F197      1.0  0.26200  0.36934  0.05703  1.0000
  F   F198      1.0  0.25045  0.37452  0.57506  1.0000
  F   F199      1.0  0.25528  0.86947  0.08394  1.0000
  F   F200      1.0  0.25803  0.86539  0.57583  1.0000
  F   F201      1.0  0.50566  0.35798  0.07755  1.0000
  F   F202      1.0  0.50709  0.35635  0.58614  1.0000
  F   F203      1.0  0.50445  0.84811  0.09588  1.0000
  F   F204      1.0  0.50119  0.86526  0.58837  1.0000
  F   F205      1.0  0.76123  0.35834  0.06665  1.0000
  F   F206      1.0  0.75940  0.36027  0.57919  1.0000
  F   F207      1.0  0.75663  0.85727  0.08945  1.0000
  F   F208      1.0  0.75457  0.85511  0.58325  1.0000
  F   F209      1.0  0.06527  0.49181  0.17273  1.0000
  F   F210      1.0  0.06108  0.49208  0.68237  1.0000
  F   F211      1.0  0.06499  0.99254  0.18049  1.0000
  F   F212      1.0  0.07453  0.99005  0.66311  1.0000
  F   F213      1.0  0.32504  0.48193  0.16439  1.0000
  F   F214      1.0  0.31422  0.49582  0.66472  1.0000
  F   F215      1.0  0.32739  0.98695  0.16914  1.0000
  F   F216      1.0  0.32208  0.98891  0.68183  1.0000
  F   F217      1.0  0.57065  0.46659  0.18448  1.0000
  F   F218      1.0  0.56420  0.48173  0.68854  1.0000
  F   F219      1.0  0.56344  0.96843  0.20360  1.0000
  F   F220      1.0  0.56535  0.98586  0.68129  1.0000
  F   F221      1.0  0.82373  0.48737  0.16468  1.0000
  F   F222      1.0  0.82466  0.48602  0.65655  1.0000
  F   F223      1.0  0.81172  0.98868  0.19024  1.0000
  F   F224      1.0  0.81559  0.99759  0.66118  1.0000
  F   F225      1.0  0.24214  0.12981  0.43568  1.0000
  F   F226      1.0  0.23776  0.14371  0.93049  1.0000
  F   F227      1.0  0.24706  0.66708  0.39325  1.0000
  F   F228      1.0  0.24192  0.66065  0.90010  1.0000
  F   F229      1.0  0.48828  0.14535  0.43293  1.0000
  F   F230      1.0  0.49631  0.11087  0.93480  1.0000
  F   F231      1.0  0.49228  0.61959  0.43777  1.0000
  F   F232      1.0  0.48983  0.63526  0.93705  1.0000
  F   F233      1.0  0.74225  0.15161  0.42400  1.0000
  F   F234      1.0  0.73686  0.13550  0.94608  1.0000
  F   F235      1.0  0.74424  0.63888  0.42633  1.0000
  F   F236      1.0  0.73565  0.64010  0.93440  1.0000
  F   F237      1.0  0.99305  0.13411  0.43108  1.0000
  F   F238      1.0  0.98732  0.12961  0.92765  1.0000
  F   F239      1.0  0.99129  0.64943  0.41680  1.0000
  F   F240      1.0  0.99720  0.64567  0.90491  1.0000
  F   F241      1.0  0.18033  0.02415  0.31577  1.0000
  F   F242      1.0  0.18244  0.01077  0.82015  1.0000
  F   F243      1.0  0.18753  0.51429  0.31776  1.0000
  F   F244      1.0  0.18038  0.51748  0.81925  1.0000
  F   F245      1.0  0.42645  0.01596  0.33220  1.0000
  F   F246      1.0  0.43157  0.01120  0.83104  1.0000
  F   F247      1.0  0.42963  0.51084  0.32045  1.0000
  F   F248      1.0  0.43486  0.51056  0.83281  1.0000
  F   F249      1.0  0.68676  0.01899  0.32490  1.0000
  F   F250      1.0  0.67816  0.00724  0.82360  1.0000
  F   F251      1.0  0.68438  0.51765  0.32329  1.0000
  F   F252      1.0  0.68191  0.50920  0.82413  1.0000
  F   F253      1.0  0.93060  0.00657  0.33783  1.0000
  F   F254      1.0  0.92937  0.01136  0.82563  1.0000
  F   F255      1.0  0.93592  0.51946  0.31352  1.0000
  F   F256      1.0  0.93517  0.51005  0.81610  1.0000
  F   F257      1.0  0.99242  0.23077  0.01062  1.0000
  F   F258      1.0  0.00053  0.26666  0.48296  1.0000
  F   F259      1.0  0.99977  0.75657  0.00733  1.0000
  F   F260      1.0  0.00060  0.74644  0.50293  1.0000
  F   F261      1.0  0.25135  0.26300  0.99037  1.0000
  F   F262      1.0  0.24637  0.26617  0.48731  1.0000
  F   F263      1.0  0.25417  0.75877  0.00515  1.0000
  F   F264      1.0  0.24867  0.73461  0.50850  1.0000
  F   F265      1.0  0.50236  0.24202  0.00793  1.0000
  F   F266      1.0  0.50401  0.25785  0.48946  1.0000
  F   F267      1.0  0.50104  0.74196  0.99645  1.0000
  F   F268      1.0  0.49920  0.75804  0.49537  1.0000
  F   F269      1.0  0.74845  0.25131  0.00325  1.0000
  F   F270      1.0  0.75572  0.26393  0.48610  1.0000
  F   F271      1.0  0.74970  0.75352  0.99749  1.0000
  F   F272      1.0  0.74219  0.73282  0.51241  1.0000
  F   F273      1.0  0.12205  0.99732  0.25093  1.0000
  F   F274      1.0  0.11714  0.99714  0.75755  1.0000
  F   F275      1.0  0.12029  0.50285  0.25307  1.0000
  F   F276      1.0  0.12577  0.51188  0.74682  1.0000
  F   F277      1.0  0.37930  0.00195  0.24454  1.0000
  F   F278      1.0  0.37680  0.00356  0.74083  1.0000
  F   F279      1.0  0.36297  0.49675  0.26959  1.0000
  F   F280      1.0  0.37527  0.50764  0.74691  1.0000
  F   F281      1.0  0.63017  0.00157  0.25002  1.0000
  F   F282      1.0  0.62117  0.99735  0.74990  1.0000
  F   F283      1.0  0.61827  0.49610  0.26228  1.0000
  F   F284      1.0  0.62976  0.49413  0.73569  1.0000
  F   F285      1.0  0.88305  0.00546  0.23482  1.0000
  F   F286      1.0  0.87853  0.99429  0.73942  1.0000
  F   F287      1.0  0.86845  0.49761  0.25988  1.0000
  F   F288      1.0  0.86732  0.49775  0.76525  1.0000
  F   F289      1.0  0.04075  0.02458  0.02474  1.0000
  F   F290      1.0  0.04338  0.02477  0.52524  1.0000
  F   F291      1.0  0.04064  0.52976  0.01791  1.0000
  F   F292      1.0  0.04490  0.52320  0.50745  1.0000
  F   F293      1.0  0.28987  0.04026  0.03051  1.0000
  F   F294      1.0  0.29569  0.03653  0.53702  1.0000
  F   F295      1.0  0.28689  0.54125  0.01889  1.0000
  F   F296      1.0  0.28291  0.54128  0.52198  1.0000
  F   F297      1.0  0.53999  0.01778  0.04197  1.0000
  F   F298      1.0  0.54138  0.03428  0.52159  1.0000
  F   F299      1.0  0.54059  0.53561  0.02905  1.0000
  F   F300      1.0  0.54177  0.52434  0.53011  1.0000
  F   F301      1.0  0.79129  0.03169  0.04085  1.0000
  F   F302      1.0  0.79624  0.02519  0.50906  1.0000
  F   F303      1.0  0.79237  0.52318  0.01407  1.0000
  F   F304      1.0  0.78324  0.52569  0.54430  1.0000
  F   F305      1.0  0.23714  0.42430  0.20634  1.0000
  F   F306      1.0  0.23917  0.41121  0.72000  1.0000
  F   F307      1.0  0.24064  0.91316  0.23080  1.0000
  F   F308      1.0  0.23285  0.90079  0.73422  1.0000
  F   F309      1.0  0.48585  0.41256  0.22547  1.0000
  F   F310      1.0  0.48887  0.41157  0.72390  1.0000
  F   F311      1.0  0.47695  0.90655  0.24772  1.0000
  F   F312      1.0  0.48622  0.90699  0.73162  1.0000
  F   F313      1.0  0.73701  0.41128  0.23594  1.0000
  F   F314      1.0  0.73908  0.40664  0.73421  1.0000
  F   F315      1.0  0.72818  0.90782  0.24609  1.0000
  F   F316      1.0  0.73478  0.91131  0.72267  1.0000
  F   F317      1.0  0.98608  0.42954  0.22127  1.0000
  F   F318      1.0  0.98974  0.40917  0.73174  1.0000
  F   F319      1.0  0.98308  0.90372  0.23213  1.0000
  F   F320      1.0  0.98247  0.91106  0.72898  1.0000
  F   F321      1.0  0.20669  0.46778  0.46971  1.0000
  F   F322      1.0  0.21847  0.47157  0.96285  1.0000
  F   F323      1.0  0.20311  0.96598  0.46749  1.0000
  F   F324      1.0  0.21325  0.97193  0.96913  1.0000
  F   F325      1.0  0.45968  0.46066  0.46249  1.0000
  F   F326      1.0  0.45189  0.46310  0.98754  1.0000
  F   F327      1.0  0.45853  0.97569  0.47271  1.0000
  F   F328      1.0  0.45612  0.95960  0.98731  1.0000
  F   F329      1.0  0.70932  0.46604  0.48384  1.0000
  F   F330      1.0  0.70971  0.46350  0.97568  1.0000
  F   F331      1.0  0.71074  0.97974  0.48001  1.0000
  F   F332      1.0  0.71407  0.95955  0.98101  1.0000
  F   F333      1.0  0.94422  0.47560  0.47754  1.0000
  F   F334      1.0  0.96052  0.46930  0.97664  1.0000
  F   F335      1.0  0.96740  0.97263  0.46078  1.0000
  F   F336      1.0  0.95444  0.96725  0.97676  1.0000
  F   F337      1.0  0.01820  0.10384  0.25023  1.0000
  F   F338      1.0  0.01611  0.08611  0.76687  1.0000
  F   F339      1.0  0.01668  0.59145  0.27124  1.0000
  F   F340      1.0  0.01906  0.57681  0.78494  1.0000
  F   F341      1.0  0.26517  0.09195  0.27214  1.0000
  F   F342      1.0  0.26330  0.08789  0.77416  1.0000
  F   F343      1.0  0.27211  0.57550  0.27747  1.0000
  F   F344      1.0  0.26769  0.58455  0.77221  1.0000
  F   F345      1.0  0.51616  0.09101  0.27272  1.0000
  F   F346      1.0  0.51234  0.06911  0.77940  1.0000
  F   F347      1.0  0.51470  0.57353  0.26781  1.0000
  F   F348      1.0  0.51864  0.58745  0.76984  1.0000
  F   F349      1.0  0.76274  0.11463  0.26706  1.0000
  F   F350      1.0  0.76414  0.07396  0.77169  1.0000
  F   F351      1.0  0.77212  0.58904  0.27353  1.0000
  F   F352      1.0  0.76594  0.57225  0.77132  1.0000
  F   F353      1.0  0.10076  0.40647  0.44939  1.0000
  F   F354      1.0  0.10433  0.40116  0.95084  1.0000
  F   F355      1.0  0.10136  0.89868  0.45861  1.0000
  F   F356      1.0  0.09855  0.90538  0.95435  1.0000
  F   F357      1.0  0.34846  0.41254  0.46374  1.0000
  F   F358      1.0  0.35654  0.42309  0.95812  1.0000
  F   F359      1.0  0.34461  0.91868  0.46737  1.0000
  F   F360      1.0  0.34921  0.92420  0.95503  1.0000
  F   F361      1.0  0.60413  0.38110  0.46946  1.0000
  F   F362      1.0  0.60260  0.40497  0.96662  1.0000
  F   F363      1.0  0.60014  0.91095  0.45429  1.0000
  F   F364      1.0  0.59867  0.90229  0.97458  1.0000
  F   F365      1.0  0.84928  0.41165  0.45912  1.0000
  F   F366      1.0  0.85281  0.39546  0.96551  1.0000
  F   F367      1.0  0.84408  0.88821  0.45959  1.0000
  F   F368      1.0  0.84773  0.91692  0.96106  1.0000
  F   F369      1.0  0.05009  0.30973  0.28065  1.0000
  F   F370      1.0  0.04631  0.30916  0.79454  1.0000
  F   F371      1.0  0.04120  0.80494  0.29068  1.0000
  F   F372      1.0  0.04258  0.81460  0.79375  1.0000
  F   F373      1.0  0.29613  0.29926  0.28587  1.0000
  F   F374      1.0  0.30603  0.30012  0.79067  1.0000
  F   F375      1.0  0.30309  0.81219  0.28468  1.0000
  F   F376      1.0  0.29432  0.80940  0.78868  1.0000
  F   F377      1.0  0.54746  0.28514  0.27842  1.0000
  F   F378      1.0  0.54594  0.29775  0.80905  1.0000
  F   F379      1.0  0.54487  0.79199  0.29448  1.0000
  F   F380      1.0  0.54436  0.78693  0.78801  1.0000
  F   F381      1.0  0.79338  0.29856  0.28521  1.0000
  F   F382      1.0  0.80085  0.28364  0.77629  1.0000
  F   F383      1.0  0.79018  0.79832  0.28332  1.0000
  F   F384      1.0  0.80428  0.80338  0.79144  1.0000
