data_image0
_chemical_formula_structural       Hf96F384
_chemical_formula_sum              "Hf96 F384"
_cell_length_a       31.0431
_cell_length_b       15.5254
_cell_length_c       15.5161
_cell_angle_alpha    63.342
_cell_angle_beta     63.342
_cell_angle_gamma    80.1625

_space_group_name_H-M_alt    "P 1"
_space_group_IT_number       1

loop_
  _space_group_symop_operation_xyz
  'x, y, z'

loop_
  _atom_site_type_symbol
  _atom_site_label
  _atom_site_symmetry_multiplicity
  _atom_site_fract_x
  _atom_site_fract_y
  _atom_site_fract_z
  _atom_site_occupancy
  Hf  Hf1       1.0  0.19372  0.10469  0.38091  1.0000
  Hf  Hf2       1.0  0.19564  0.10532  0.87306  1.0000
  Hf  Hf3       1.0  0.19525  0.60785  0.37050  1.0000
  Hf  Hf4       1.0  0.19379  0.61760  0.87368  1.0000
  Hf  Hf5       1.0  0.44563  0.10864  0.36934  1.0000
  Hf  Hf6       1.0  0.44453  0.11360  0.87334  1.0000
  Hf  Hf7       1.0  0.44607  0.60622  0.37657  1.0000
  Hf  Hf8       1.0  0.44541  0.60193  0.88324  1.0000
  Hf  Hf9       1.0  0.69945  0.10920  0.36829  1.0000
  Hf  Hf10      1.0  0.69761  0.10474  0.87846  1.0000
  Hf  Hf11      1.0  0.69244  0.59876  0.39198  1.0000
  Hf  Hf12      1.0  0.69858  0.61252  0.87897  1.0000
  Hf  Hf13      1.0  0.94543  0.10468  0.37683  1.0000
  Hf  Hf14      1.0  0.94766  0.10618  0.88033  1.0000
  Hf  Hf15      1.0  0.94321  0.60258  0.38052  1.0000
  Hf  Hf16      1.0  0.94627  0.60822  0.87933  1.0000
  Hf  Hf17      1.0  0.05502  0.39095  0.12375  1.0000
  Hf  Hf18      1.0  0.05672  0.40124  0.60823  1.0000
  Hf  Hf19      1.0  0.05665  0.88772  0.11746  1.0000
  Hf  Hf20      1.0  0.04833  0.89557  0.62441  1.0000
  Hf  Hf21      1.0  0.30101  0.40020  0.11751  1.0000
  Hf  Hf22      1.0  0.30348  0.39818  0.61430  1.0000
  Hf  Hf23      1.0  0.30174  0.88629  0.13908  1.0000
  Hf  Hf24      1.0  0.30891  0.89378  0.61245  1.0000
  Hf  Hf25      1.0  0.55328  0.38103  0.13836  1.0000
  Hf  Hf26      1.0  0.55334  0.38611  0.62822  1.0000
  Hf  Hf27      1.0  0.55141  0.89562  0.12415  1.0000
  Hf  Hf28      1.0  0.55421  0.88341  0.63992  1.0000
  Hf  Hf29      1.0  0.80311  0.38868  0.12665  1.0000
  Hf  Hf30      1.0  0.80365  0.38411  0.62882  1.0000
  Hf  Hf31      1.0  0.80326  0.88693  0.12095  1.0000
  Hf  Hf32      1.0  0.81001  0.89278  0.61987  1.0000
  Hf  Hf33      1.0  0.05359  0.19009  0.41585  1.0000
  Hf  Hf34      1.0  0.05814  0.18050  0.91672  1.0000
  Hf  Hf35      1.0  0.05325  0.68642  0.41702  1.0000
  Hf  Hf36      1.0  0.05458  0.68483  0.91789  1.0000
  Hf  Hf37      1.0  0.30357  0.18881  0.41146  1.0000
  Hf  Hf38      1.0  0.30474  0.18091  0.91542  1.0000
  Hf  Hf39      1.0  0.30458  0.68100  0.42083  1.0000
  Hf  Hf40      1.0  0.30638  0.68576  0.90553  1.0000
  Hf  Hf41      1.0  0.55349  0.17153  0.42811  1.0000
  Hf  Hf42      1.0  0.55661  0.17930  0.91894  1.0000
  Hf  Hf43      1.0  0.55338  0.67394  0.42200  1.0000
  Hf  Hf44      1.0  0.55607  0.67560  0.91956  1.0000
  Hf  Hf45      1.0  0.80821  0.18331  0.41886  1.0000
  Hf  Hf46      1.0  0.80574  0.17940  0.92614  1.0000
  Hf  Hf47      1.0  0.80274  0.66874  0.42858  1.0000
  Hf  Hf48      1.0  0.80426  0.67853  0.92572  1.0000
  Hf  Hf49      1.0  0.15737  0.38628  0.32671  1.0000
  Hf  Hf50      1.0  0.16035  0.39640  0.82770  1.0000
  Hf  Hf51      1.0  0.15904  0.88588  0.33673  1.0000
  Hf  Hf52      1.0  0.15780  0.89833  0.82599  1.0000
  Hf  Hf53      1.0  0.41481  0.39775  0.32092  1.0000
  Hf  Hf54      1.0  0.40888  0.39109  0.83494  1.0000
  Hf  Hf55      1.0  0.40703  0.89195  0.32477  1.0000
  Hf  Hf56      1.0  0.41417  0.88662  0.82508  1.0000
  Hf  Hf57      1.0  0.65748  0.39204  0.33359  1.0000
  Hf  Hf58      1.0  0.65750  0.38654  0.83798  1.0000
  Hf  Hf59      1.0  0.65872  0.89264  0.32201  1.0000
  Hf  Hf60      1.0  0.66059  0.89549  0.82557  1.0000
  Hf  Hf61      1.0  0.90842  0.38413  0.33567  1.0000
  Hf  Hf62      1.0  0.91117  0.39001  0.82758  1.0000
  Hf  Hf63      1.0  0.91110  0.88570  0.32981  1.0000
  Hf  Hf64      1.0  0.90861  0.89204  0.83312  1.0000
  Hf  Hf65      1.0  0.19396  0.31859  0.07204  1.0000
  Hf  Hf66      1.0  0.19630  0.32187  0.57231  1.0000
  Hf  Hf67      1.0  0.19735  0.81771  0.07594  1.0000
  Hf  Hf68      1.0  0.19376  0.81533  0.58043  1.0000
  Hf  Hf69      1.0  0.44319  0.31620  0.08514  1.0000
  Hf  Hf70      1.0  0.44264  0.31705  0.58752  1.0000
  Hf  Hf71      1.0  0.44196  0.82148  0.08231  1.0000
  Hf  Hf72      1.0  0.44801  0.82610  0.57009  1.0000
  Hf  Hf73      1.0  0.69210  0.31770  0.09067  1.0000
  Hf  Hf74      1.0  0.69169  0.30571  0.59657  1.0000
  Hf  Hf75      1.0  0.69264  0.81702  0.08190  1.0000
  Hf  Hf76      1.0  0.69306  0.81910  0.58231  1.0000
  Hf  Hf77      1.0  0.94477  0.31043  0.08057  1.0000
  Hf  Hf78      1.0  0.94539  0.32145  0.58474  1.0000
  Hf  Hf79      1.0  0.94551  0.81922  0.08263  1.0000
  Hf  Hf80      1.0  0.94382  0.81220  0.59174  1.0000
  Hf  Hf81      1.0  0.08887  0.11072  0.17936  1.0000
  Hf  Hf82      1.0  0.09070  0.11347  0.66340  1.0000
  Hf  Hf83      1.0  0.09099  0.61186  0.16321  1.0000
  Hf  Hf84      1.0  0.09251  0.61083  0.66789  1.0000
  Hf  Hf85      1.0  0.34164  0.12305  0.15726  1.0000
  Hf  Hf86      1.0  0.34204  0.11420  0.66375  1.0000
  Hf  Hf87      1.0  0.34097  0.61102  0.16453  1.0000
  Hf  Hf88      1.0  0.33820  0.60521  0.66896  1.0000
  Hf  Hf89      1.0  0.59280  0.11325  0.16595  1.0000
  Hf  Hf90      1.0  0.58914  0.11378  0.66792  1.0000
  Hf  Hf91      1.0  0.59265  0.61647  0.15892  1.0000
  Hf  Hf92      1.0  0.58762  0.60562  0.67100  1.0000
  Hf  Hf93      1.0  0.84054  0.10546  0.17093  1.0000
  Hf  Hf94      1.0  0.84728  0.11184  0.66459  1.0000
  Hf  Hf95      1.0  0.84195  0.61098  0.17282  1.0000
  Hf  Hf96      1.0  0.83671  0.60592  0.67996  1.0000
  F   F1        1.0  0.07890  0.14109  0.30457  1.0000
  F   F2        1.0  0.08289  0.13870  0.79070  1.0000
  F   F3        1.0  0.07724  0.61944  0.30962  1.0000
  F   F4        1.0  0.08381  0.64424  0.80123  1.0000
  F   F5        1.0  0.33202  0.14999  0.28764  1.0000
  F   F6        1.0  0.33236  0.11995  0.79597  1.0000
  F   F7        1.0  0.33716  0.65079  0.28864  1.0000
  F   F8        1.0  0.33202  0.62198  0.79781  1.0000
  F   F9        1.0  0.58529  0.14832  0.29724  1.0000
  F   F10       1.0  0.57239  0.11542  0.82433  1.0000
  F   F11       1.0  0.58066  0.63916  0.29789  1.0000
  F   F12       1.0  0.57922  0.62881  0.80881  1.0000
  F   F13       1.0  0.82859  0.12755  0.30662  1.0000
  F   F14       1.0  0.83335  0.13166  0.79228  1.0000
  F   F15       1.0  0.82608  0.62173  0.31121  1.0000
  F   F16       1.0  0.82655  0.63097  0.80787  1.0000
  F   F17       1.0  0.18300  0.33790  0.44694  1.0000
  F   F18       1.0  0.18637  0.34507  0.93596  1.0000
  F   F19       1.0  0.18941  0.84064  0.44116  1.0000
  F   F20       1.0  0.18758  0.83952  0.94081  1.0000
  F   F21       1.0  0.43551  0.35005  0.44400  1.0000
  F   F22       1.0  0.44384  0.34829  0.94034  1.0000
  F   F23       1.0  0.44139  0.85624  0.42878  1.0000
  F   F24       1.0  0.44160  0.85687  0.94023  1.0000
  F   F25       1.0  0.68158  0.32388  0.46866  1.0000
  F   F26       1.0  0.69350  0.34555  0.94172  1.0000
  F   F27       1.0  0.68443  0.84419  0.44753  1.0000
  F   F28       1.0  0.68358  0.84115  0.95357  1.0000
  F   F29       1.0  0.93763  0.35802  0.43888  1.0000
  F   F30       1.0  0.93060  0.32946  0.95487  1.0000
  F   F31       1.0  0.93671  0.84026  0.44473  1.0000
  F   F32       1.0  0.93185  0.84027  0.95438  1.0000
  F   F33       1.0  0.16998  0.37553  0.18945  1.0000
  F   F34       1.0  0.16843  0.38402  0.69016  1.0000
  F   F35       1.0  0.16804  0.86901  0.18814  1.0000
  F   F36       1.0  0.17017  0.87136  0.69140  1.0000
  F   F37       1.0  0.41713  0.38418  0.19942  1.0000
  F   F38       1.0  0.41061  0.35908  0.71313  1.0000
  F   F39       1.0  0.40872  0.87516  0.19597  1.0000
  F   F40       1.0  0.42569  0.86085  0.69235  1.0000
  F   F41       1.0  0.66499  0.37941  0.19612  1.0000
  F   F42       1.0  0.67007  0.36968  0.70526  1.0000
  F   F43       1.0  0.66957  0.89004  0.18685  1.0000
  F   F44       1.0  0.66981  0.88036  0.68676  1.0000
  F   F45       1.0  0.91836  0.36745  0.20703  1.0000
  F   F46       1.0  0.92324  0.36876  0.69713  1.0000
  F   F47       1.0  0.92130  0.88706  0.19017  1.0000
  F   F48       1.0  0.91498  0.87177  0.69686  1.0000
  F   F49       1.0  0.06601  0.16229  0.06009  1.0000
  F   F50       1.0  0.06554  0.16031  0.55185  1.0000
  F   F51       1.0  0.06042  0.65623  0.05389  1.0000
  F   F52       1.0  0.06565  0.66283  0.54876  1.0000
  F   F53       1.0  0.30213  0.16173  0.06119  1.0000
  F   F54       1.0  0.31350  0.16986  0.55720  1.0000
  F   F55       1.0  0.31671  0.65987  0.05133  1.0000
  F   F56       1.0  0.30342  0.64736  0.56960  1.0000
  F   F57       1.0  0.57248  0.16338  0.04402  1.0000
  F   F58       1.0  0.55527  0.16361  0.56476  1.0000
  F   F59       1.0  0.56346  0.65223  0.04967  1.0000
  F   F60       1.0  0.56176  0.65011  0.56078  1.0000
  F   F61       1.0  0.81098  0.14964  0.06443  1.0000
  F   F62       1.0  0.81867  0.16699  0.55509  1.0000
  F   F63       1.0  0.81602  0.65450  0.05795  1.0000
  F   F64       1.0  0.80712  0.63987  0.57986  1.0000
  F   F65       1.0  0.20690  0.20426  0.19661  1.0000
  F   F66       1.0  0.20504  0.21231  0.69269  1.0000
  F   F67       1.0  0.21602  0.69060  0.20091  1.0000
  F   F68       1.0  0.20272  0.69277  0.71500  1.0000
  F   F69       1.0  0.45015  0.20759  0.21326  1.0000
  F   F70       1.0  0.45304  0.20492  0.71129  1.0000
  F   F71       1.0  0.44298  0.70034  0.22120  1.0000
  F   F72       1.0  0.46543  0.69602  0.72870  1.0000
  F   F73       1.0  0.70099  0.19736  0.21284  1.0000
  F   F74       1.0  0.71049  0.20412  0.70769  1.0000
  F   F75       1.0  0.69373  0.70736  0.22348  1.0000
  F   F76       1.0  0.70261  0.69263  0.73102  1.0000
  F   F77       1.0  0.95475  0.20070  0.21912  1.0000
  F   F78       1.0  0.96222  0.20086  0.71003  1.0000
  F   F79       1.0  0.94932  0.70432  0.21011  1.0000
  F   F80       1.0  0.96052  0.70699  0.70946  1.0000
  F   F81       1.0  0.15281  0.09691  0.02404  1.0000
  F   F82       1.0  0.14671  0.07128  0.54335  1.0000
  F   F83       1.0  0.15325  0.60829  0.03420  1.0000
  F   F84       1.0  0.15321  0.60304  0.53750  1.0000
  F   F85       1.0  0.39110  0.09980  0.03098  1.0000
  F   F86       1.0  0.40241  0.10885  0.53341  1.0000
  F   F87       1.0  0.40037  0.57720  0.04885  1.0000
  F   F88       1.0  0.40132  0.59808  0.52952  1.0000
  F   F89       1.0  0.65338  0.09947  0.04614  1.0000
  F   F90       1.0  0.64611  0.10654  0.54971  1.0000
  F   F91       1.0  0.64935  0.59880  0.04292  1.0000
  F   F92       1.0  0.64936  0.58532  0.54500  1.0000
  F   F93       1.0  0.90105  0.09372  0.03594  1.0000
  F   F94       1.0  0.90363  0.08666  0.53937  1.0000
  F   F95       1.0  0.90527  0.58566  0.03249  1.0000
  F   F96       1.0  0.90070  0.58822  0.55376  1.0000
  F   F97       1.0  0.14859  0.19862  0.12219  1.0000
  F   F98       1.0  0.15175  0.18657  0.60913  1.0000
  F   F99       1.0  0.14262  0.69823  0.14429  1.0000
  F   F100      1.0  0.14957  0.70202  0.63015  1.0000
  F   F101      1.0  0.40536  0.19382  0.10128  1.0000
  F   F102      1.0  0.39871  0.20349  0.63154  1.0000
  F   F103      1.0  0.40422  0.70044  0.10289  1.0000
  F   F104      1.0  0.40687  0.70763  0.62969  1.0000
  F   F105      1.0  0.64999  0.20369  0.12163  1.0000
  F   F106      1.0  0.64885  0.18316  0.64534  1.0000
  F   F107      1.0  0.65349  0.69640  0.12613  1.0000
  F   F108      1.0  0.65012  0.70021  0.62126  1.0000
  F   F109      1.0  0.90215  0.18768  0.12194  1.0000
  F   F110      1.0  0.91192  0.19122  0.62596  1.0000
  F   F111      1.0  0.90309  0.67560  0.12230  1.0000
  F   F112      1.0  0.90516  0.69105  0.64255  1.0000
  F   F113      1.0  0.09807  0.31235  0.35994  1.0000
  F   F114      1.0  0.10067  0.30306  0.88488  1.0000
  F   F115      1.0  0.10118  0.81153  0.37625  1.0000
  F   F116      1.0  0.09913  0.79575  0.88088  1.0000
  F   F117      1.0  0.34939  0.30782  0.36214  1.0000
  F   F118      1.0  0.34428  0.32506  0.88751  1.0000
  F   F119      1.0  0.35035  0.78503  0.38304  1.0000
  F   F120      1.0  0.34808  0.80144  0.84499  1.0000
  F   F121      1.0  0.60154  0.28856  0.37219  1.0000
  F   F122      1.0  0.59253  0.31167  0.87119  1.0000
  F   F123      1.0  0.59638  0.79387  0.35874  1.0000
  F   F124      1.0  0.59833  0.81072  0.86244  1.0000
  F   F125      1.0  0.85281  0.30504  0.37676  1.0000
  F   F126      1.0  0.85241  0.29306  0.89824  1.0000
  F   F127      1.0  0.85991  0.78672  0.39019  1.0000
  F   F128      1.0  0.84779  0.78844  0.88015  1.0000
  F   F129      1.0  0.05993  0.25569  0.14979  1.0000
  F   F130      1.0  0.05800  0.26001  0.63571  1.0000
  F   F131      1.0  0.06407  0.74959  0.13534  1.0000
  F   F132      1.0  0.05413  0.74728  0.65831  1.0000
  F   F133      1.0  0.31820  0.27104  0.11728  1.0000
  F   F134      1.0  0.31994  0.25734  0.63620  1.0000
  F   F135      1.0  0.30843  0.74833  0.15519  1.0000
  F   F136      1.0  0.33101  0.75309  0.61445  1.0000
  F   F137      1.0  0.56107  0.24860  0.14795  1.0000
  F   F138      1.0  0.57588  0.25539  0.63377  1.0000
  F   F139      1.0  0.57045  0.74875  0.12956  1.0000
  F   F140      1.0  0.55999  0.73327  0.65374  1.0000
  F   F141      1.0  0.80916  0.24173  0.15326  1.0000
  F   F142      1.0  0.82319  0.25558  0.63438  1.0000
  F   F143      1.0  0.81661  0.74687  0.14193  1.0000
  F   F144      1.0  0.81783  0.75128  0.64802  1.0000
  F   F145      1.0  0.12552  0.36714  0.11008  1.0000
  F   F146      1.0  0.12561  0.35702  0.59826  1.0000
  F   F147      1.0  0.13163  0.88284  0.07982  1.0000
  F   F148      1.0  0.12439  0.86141  0.60677  1.0000
  F   F149      1.0  0.37331  0.34445  0.13519  1.0000
  F   F150      1.0  0.37688  0.39569  0.59292  1.0000
  F   F151      1.0  0.37122  0.87588  0.10675  1.0000
  F   F152      1.0  0.38367  0.88816  0.58735  1.0000
  F   F153      1.0  0.62035  0.36674  0.12034  1.0000
  F   F154      1.0  0.62550  0.35919  0.62499  1.0000
  F   F155      1.0  0.62282  0.88388  0.10422  1.0000
  F   F156      1.0  0.62427  0.86810  0.60490  1.0000
  F   F157      1.0  0.87329  0.35642  0.11969  1.0000
  F   F158      1.0  0.87918  0.38192  0.59873  1.0000
  F   F159      1.0  0.87276  0.84780  0.11952  1.0000
  F   F160      1.0  0.87797  0.86831  0.60795  1.0000
  F   F161      1.0  0.18119  0.24611  0.35651  1.0000
  F   F162      1.0  0.18984  0.24919  0.85424  1.0000
  F   F163      1.0  0.19609  0.75538  0.35336  1.0000
  F   F164      1.0  0.18698  0.75729  0.85155  1.0000
  F   F165      1.0  0.43848  0.25212  0.34199  1.0000
  F   F166      1.0  0.43477  0.25142  0.85483  1.0000
  F   F167      1.0  0.43712  0.76043  0.35304  1.0000
  F   F168      1.0  0.42440  0.74395  0.88906  1.0000
  F   F169      1.0  0.68742  0.25012  0.35858  1.0000
  F   F170      1.0  0.68292  0.24793  0.85998  1.0000
  F   F171      1.0  0.67616  0.74365  0.37373  1.0000
  F   F172      1.0  0.68398  0.75184  0.86736  1.0000
  F   F173      1.0  0.93627  0.24347  0.36931  1.0000
  F   F174      1.0  0.94003  0.24548  0.85400  1.0000
  F   F175      1.0  0.94430  0.75046  0.33125  1.0000
  F   F176      1.0  0.94296  0.75385  0.84820  1.0000
  F   F177      1.0  0.12316  0.13721  0.39761  1.0000
  F   F178      1.0  0.12947  0.13365  0.88583  1.0000
  F   F179      1.0  0.12889  0.64676  0.37702  1.0000
  F   F180      1.0  0.12443  0.61877  0.90915  1.0000
  F   F181      1.0  0.37331  0.11943  0.39508  1.0000
  F   F182      1.0  0.36977  0.13802  0.89270  1.0000
  F   F183      1.0  0.37341  0.60746  0.41832  1.0000
  F   F184      1.0  0.37969  0.62999  0.89234  1.0000
  F   F185      1.0  0.62945  0.10716  0.40945  1.0000
  F   F186      1.0  0.63282  0.12716  0.87716  1.0000
  F   F187      1.0  0.62184  0.61494  0.40756  1.0000
  F   F188      1.0  0.62927  0.63088  0.89417  1.0000
  F   F189      1.0  0.87743  0.12981  0.39148  1.0000
  F   F190      1.0  0.87479  0.12958  0.89122  1.0000
  F   F191      1.0  0.87311  0.62050  0.41014  1.0000
  F   F192      1.0  0.88043  0.63735  0.88755  1.0000
  F   F193      1.0  0.00594  0.37046  0.07139  1.0000
  F   F194      1.0  0.01147  0.36919  0.55771  1.0000
  F   F195      1.0  0.00561  0.85313  0.08920  1.0000
  F   F196      1.0  0.00387  0.87878  0.55993  1.0000
  F   F197      1.0  0.25395  0.37595  0.06479  1.0000
  F   F198      1.0  0.25977  0.36005  0.57308  1.0000
  F   F199      1.0  0.26228  0.86134  0.07209  1.0000
  F   F200      1.0  0.25888  0.85650  0.58644  1.0000
  F   F201      1.0  0.51124  0.35229  0.07292  1.0000
  F   F202      1.0  0.50733  0.34828  0.58135  1.0000
  F   F203      1.0  0.50587  0.85182  0.08276  1.0000
  F   F204      1.0  0.51096  0.85636  0.58486  1.0000
  F   F205      1.0  0.75322  0.36331  0.08660  1.0000
  F   F206      1.0  0.75861  0.35631  0.56765  1.0000
  F   F207      1.0  0.75957  0.85104  0.06781  1.0000
  F   F208      1.0  0.75746  0.86420  0.58451  1.0000
  F   F209      1.0  0.06981  0.48386  0.18115  1.0000
  F   F210      1.0  0.07463  0.49198  0.65241  1.0000
  F   F211      1.0  0.07362  0.98751  0.16748  1.0000
  F   F212      1.0  0.06766  0.98504  0.67362  1.0000
  F   F213      1.0  0.31721  0.48390  0.18220  1.0000
  F   F214      1.0  0.31396  0.48137  0.68630  1.0000
  F   F215      1.0  0.31685  0.98066  0.19105  1.0000
  F   F216      1.0  0.31972  0.98750  0.67762  1.0000
  F   F217      1.0  0.57374  0.48598  0.16490  1.0000
  F   F218      1.0  0.57560  0.48193  0.66807  1.0000
  F   F219      1.0  0.56803  0.99163  0.16236  1.0000
  F   F220      1.0  0.57324  0.98880  0.66784  1.0000
  F   F221      1.0  0.81599  0.47689  0.18497  1.0000
  F   F222      1.0  0.81313  0.47634  0.68170  1.0000
  F   F223      1.0  0.82575  0.97164  0.16405  1.0000
  F   F224      1.0  0.82603  0.98795  0.66810  1.0000
  F   F225      1.0  0.24275  0.13056  0.43584  1.0000
  F   F226      1.0  0.24298  0.11719  0.93779  1.0000
  F   F227      1.0  0.24042  0.63051  0.43537  1.0000
  F   F228      1.0  0.24611  0.65711  0.90557  1.0000
  F   F229      1.0  0.49764  0.14850  0.40531  1.0000
  F   F230      1.0  0.48783  0.14189  0.93820  1.0000
  F   F231      1.0  0.49103  0.64130  0.42414  1.0000
  F   F232      1.0  0.49113  0.65323  0.90960  1.0000
  F   F233      1.0  0.74490  0.13488  0.42515  1.0000
  F   F234      1.0  0.74365  0.15487  0.92082  1.0000
  F   F235      1.0  0.73855  0.64200  0.44720  1.0000
  F   F236      1.0  0.73850  0.65174  0.93381  1.0000
  F   F237      1.0  0.99071  0.14746  0.44005  1.0000
  F   F238      1.0  0.99166  0.13455  0.94021  1.0000
  F   F239      1.0  0.98870  0.63906  0.43947  1.0000
  F   F240      1.0  0.99199  0.63603  0.93179  1.0000
  F   F241      1.0  0.18102  0.02339  0.32169  1.0000
  F   F242      1.0  0.17789  0.01879  0.82169  1.0000
  F   F243      1.0  0.18009  0.51009  0.33827  1.0000
  F   F244      1.0  0.17497  0.52121  0.82267  1.0000
  F   F245      1.0  0.43088  0.02391  0.31888  1.0000
  F   F246      1.0  0.42977  0.02667  0.81775  1.0000
  F   F247      1.0  0.43661  0.51869  0.32059  1.0000
  F   F248      1.0  0.43126  0.51980  0.82402  1.0000
  F   F249      1.0  0.68741  0.01462  0.30076  1.0000
  F   F250      1.0  0.68361  0.01107  0.82222  1.0000
  F   F251      1.0  0.67946  0.50782  0.33939  1.0000
  F   F252      1.0  0.68283  0.51444  0.81734  1.0000
  F   F253      1.0  0.92869  0.01989  0.31726  1.0000
  F   F254      1.0  0.93322  0.01290  0.83019  1.0000
  F   F255      1.0  0.93262  0.52657  0.31399  1.0000
  F   F256      1.0  0.92825  0.50729  0.82920  1.0000
  F   F257      1.0  0.00289  0.24496  0.00773  1.0000
  F   F258      1.0  0.00018  0.25817  0.50130  1.0000
  F   F259      1.0  0.00366  0.77987  0.97462  1.0000
  F   F260      1.0  0.00217  0.75285  0.50632  1.0000
  F   F261      1.0  0.24976  0.25287  0.98550  1.0000
  F   F262      1.0  0.25235  0.24914  0.49832  1.0000
  F   F263      1.0  0.25277  0.76090  0.99271  1.0000
  F   F264      1.0  0.25659  0.76417  0.48782  1.0000
  F   F265      1.0  0.50087  0.24779  0.00162  1.0000
  F   F266      1.0  0.49732  0.24252  0.50802  1.0000
  F   F267      1.0  0.49876  0.74391  0.00213  1.0000
  F   F268      1.0  0.50177  0.75459  0.49645  1.0000
  F   F269      1.0  0.75316  0.25559  0.00976  1.0000
  F   F270      1.0  0.75016  0.25366  0.49569  1.0000
  F   F271      1.0  0.75117  0.74896  0.99822  1.0000
  F   F272      1.0  0.75324  0.74138  0.51176  1.0000
  F   F273      1.0  0.11681  0.99715  0.26654  1.0000
  F   F274      1.0  0.11854  0.99750  0.76160  1.0000
  F   F275      1.0  0.12923  0.50798  0.23792  1.0000
  F   F276      1.0  0.12225  0.50138  0.75601  1.0000
  F   F277      1.0  0.37864  0.01293  0.23205  1.0000
  F   F278      1.0  0.38092  0.99113  0.73102  1.0000
  F   F279      1.0  0.37012  0.50181  0.26809  1.0000
  F   F280      1.0  0.38668  0.51454  0.72212  1.0000
  F   F281      1.0  0.60945  0.98703  0.27347  1.0000
  F   F282      1.0  0.62732  0.00821  0.74984  1.0000
  F   F283      1.0  0.61086  0.49031  0.27430  1.0000
  F   F284      1.0  0.61748  0.49383  0.76682  1.0000
  F   F285      1.0  0.87223  0.99495  0.25614  1.0000
  F   F286      1.0  0.87469  0.99545  0.75306  1.0000
  F   F287      1.0  0.86825  0.49331  0.27075  1.0000
  F   F288      1.0  0.86775  0.48701  0.76895  1.0000
  F   F289      1.0  0.04795  0.04230  0.01144  1.0000
  F   F290      1.0  0.04473  0.03196  0.51235  1.0000
  F   F291      1.0  0.03591  0.53028  0.02890  1.0000
  F   F292      1.0  0.04378  0.53080  0.51866  1.0000
  F   F293      1.0  0.29859  0.02222  0.02605  1.0000
  F   F294      1.0  0.29607  0.03975  0.52300  1.0000
  F   F295      1.0  0.28680  0.54618  0.02444  1.0000
  F   F296      1.0  0.28693  0.52668  0.52359  1.0000
  F   F297      1.0  0.54510  0.03623  0.02105  1.0000
  F   F298      1.0  0.53987  0.03409  0.53692  1.0000
  F   F299      1.0  0.54042  0.53024  0.01585  1.0000
  F   F300      1.0  0.54511  0.52429  0.52601  1.0000
  F   F301      1.0  0.79058  0.02945  0.02498  1.0000
  F   F302      1.0  0.79721  0.03756  0.52194  1.0000
  F   F303      1.0  0.79526  0.53163  0.02937  1.0000
  F   F304      1.0  0.79241  0.51625  0.53032  1.0000
  F   F305      1.0  0.23062  0.42755  0.21277  1.0000
  F   F306      1.0  0.23944  0.41372  0.72389  1.0000
  F   F307      1.0  0.22792  0.92450  0.21605  1.0000
  F   F308      1.0  0.23554  0.91335  0.72782  1.0000
  F   F309      1.0  0.48819  0.42334  0.22753  1.0000
  F   F310      1.0  0.47988  0.41939  0.72288  1.0000
  F   F311      1.0  0.47566  0.93817  0.20708  1.0000
  F   F312      1.0  0.48502  0.91721  0.73465  1.0000
  F   F313      1.0  0.73290  0.41076  0.23745  1.0000
  F   F314      1.0  0.73493  0.41888  0.70916  1.0000
  F   F315      1.0  0.74001  0.88634  0.23317  1.0000
  F   F316      1.0  0.73747  0.92347  0.72195  1.0000
  F   F317      1.0  0.98758  0.42006  0.22440  1.0000
  F   F318      1.0  0.98988  0.40287  0.72422  1.0000
  F   F319      1.0  0.98885  0.92228  0.22175  1.0000
  F   F320      1.0  0.98237  0.92189  0.72556  1.0000
  F   F321      1.0  0.20349  0.47064  0.48741  1.0000
  F   F322      1.0  0.20633  0.47388  0.96625  1.0000
  F   F323      1.0  0.20936  0.96467  0.47322  1.0000
  F   F324      1.0  0.21145  0.96582  0.96435  1.0000
  F   F325      1.0  0.46376  0.47744  0.47169  1.0000
  F   F326      1.0  0.45695  0.46771  0.98893  1.0000
  F   F327      1.0  0.46202  0.97145  0.46883  1.0000
  F   F328      1.0  0.45321  0.98176  0.97635  1.0000
  F   F329      1.0  0.70947  0.47939  0.48092  1.0000
  F   F330      1.0  0.69908  0.47129  0.99143  1.0000
  F   F331      1.0  0.70063  0.97415  0.48405  1.0000
  F   F332      1.0  0.70943  0.97182  0.97652  1.0000
  F   F333      1.0  0.95812  0.47675  0.47634  1.0000
  F   F334      1.0  0.96458  0.46114  0.96033  1.0000
  F   F335      1.0  0.95555  0.97229  0.47591  1.0000
  F   F336      1.0  0.96272  0.96356  0.97276  1.0000
  F   F337      1.0  0.01428  0.08998  0.28308  1.0000
  F   F338      1.0  0.01269  0.08120  0.78226  1.0000
  F   F339      1.0  0.01139  0.59059  0.27887  1.0000
  F   F340      1.0  0.01870  0.56994  0.77412  1.0000
  F   F341      1.0  0.26424  0.10385  0.26361  1.0000
  F   F342      1.0  0.26011  0.08986  0.75895  1.0000
  F   F343      1.0  0.27125  0.57840  0.27509  1.0000
  F   F344      1.0  0.26444  0.58634  0.78008  1.0000
  F   F345      1.0  0.51683  0.09498  0.26636  1.0000
  F   F346      1.0  0.51351  0.09028  0.77611  1.0000
  F   F347      1.0  0.51562  0.59740  0.26677  1.0000
  F   F348      1.0  0.52074  0.56692  0.78195  1.0000
  F   F349      1.0  0.76577  0.07035  0.27962  1.0000
  F   F350      1.0  0.76396  0.08501  0.77402  1.0000
  F   F351      1.0  0.76360  0.61273  0.26233  1.0000
  F   F352      1.0  0.76354  0.56152  0.80361  1.0000
  F   F353      1.0  0.09881  0.41131  0.44928  1.0000
  F   F354      1.0  0.10298  0.41581  0.96215  1.0000
  F   F355      1.0  0.10109  0.90132  0.46547  1.0000
  F   F356      1.0  0.09785  0.90696  0.95753  1.0000
  F   F357      1.0  0.35651  0.40556  0.45672  1.0000
  F   F358      1.0  0.36009  0.42954  0.96219  1.0000
  F   F359      1.0  0.35296  0.91418  0.44918  1.0000
  F   F360      1.0  0.35536  0.89267  0.95099  1.0000
  F   F361      1.0  0.60389  0.40690  0.46837  1.0000
  F   F362      1.0  0.60072  0.40867  0.97401  1.0000
  F   F363      1.0  0.60336  0.90647  0.45017  1.0000
  F   F364      1.0  0.60405  0.92320  0.94806  1.0000
  F   F365      1.0  0.85156  0.40784  0.45914  1.0000
  F   F366      1.0  0.84924  0.41748  0.97523  1.0000
  F   F367      1.0  0.85027  0.91180  0.45414  1.0000
  F   F368      1.0  0.85143  0.90684  0.96037  1.0000
  F   F369      1.0  0.04580  0.30279  0.29200  1.0000
  F   F370      1.0  0.05544  0.30263  0.78926  1.0000
  F   F371      1.0  0.05449  0.79647  0.28740  1.0000
  F   F372      1.0  0.04417  0.79750  0.78595  1.0000
  F   F373      1.0  0.28526  0.29599  0.30025  1.0000
  F   F374      1.0  0.29516  0.28691  0.79980  1.0000
  F   F375      1.0  0.29658  0.79642  0.28997  1.0000
  F   F376      1.0  0.29578  0.80408  0.76996  1.0000
  F   F377      1.0  0.54207  0.30314  0.30164  1.0000
  F   F378      1.0  0.53772  0.30252  0.77587  1.0000
  F   F379      1.0  0.53396  0.80593  0.27408  1.0000
  F   F380      1.0  0.54707  0.80984  0.78714  1.0000
  F   F381      1.0  0.79813  0.29526  0.29925  1.0000
  F   F382      1.0  0.80271  0.29388  0.79116  1.0000
  F   F383      1.0  0.79844  0.78343  0.31061  1.0000
  F   F384      1.0  0.79429  0.80412  0.78850  1.0000
