data_image0
_chemical_formula_structural       Hf96F384
_chemical_formula_sum              "Hf96 F384"
_cell_length_a       31.0038
_cell_length_b       15.5044
_cell_length_c       15.4984
_cell_angle_alpha    63.342
_cell_angle_beta     63.342
_cell_angle_gamma    80.1625

_space_group_name_H-M_alt    "P 1"
_space_group_IT_number       1

loop_
  _space_group_symop_operation_xyz
  'x, y, z'

loop_
  _atom_site_type_symbol
  _atom_site_label
  _atom_site_symmetry_multiplicity
  _atom_site_fract_x
  _atom_site_fract_y
  _atom_site_fract_z
  _atom_site_occupancy
  Hf  Hf1       1.0  0.19792  0.11444  0.36515  1.0000
  Hf  Hf2       1.0  0.20149  0.10921  0.85752  1.0000
  Hf  Hf3       1.0  0.19733  0.61404  0.36796  1.0000
  Hf  Hf4       1.0  0.19483  0.60651  0.88077  1.0000
  Hf  Hf5       1.0  0.44708  0.10308  0.38033  1.0000
  Hf  Hf6       1.0  0.44473  0.11204  0.87604  1.0000
  Hf  Hf7       1.0  0.44593  0.60421  0.38053  1.0000
  Hf  Hf8       1.0  0.44581  0.60706  0.86679  1.0000
  Hf  Hf9       1.0  0.69276  0.10150  0.38520  1.0000
  Hf  Hf10      1.0  0.69529  0.10946  0.87875  1.0000
  Hf  Hf11      1.0  0.69916  0.60057  0.37522  1.0000
  Hf  Hf12      1.0  0.69478  0.60800  0.87517  1.0000
  Hf  Hf13      1.0  0.94616  0.10311  0.38107  1.0000
  Hf  Hf14      1.0  0.94872  0.11253  0.86264  1.0000
  Hf  Hf15      1.0  0.94576  0.60609  0.37514  1.0000
  Hf  Hf16      1.0  0.94889  0.60709  0.87183  1.0000
  Hf  Hf17      1.0  0.05118  0.38734  0.12853  1.0000
  Hf  Hf18      1.0  0.05064  0.39958  0.62378  1.0000
  Hf  Hf19      1.0  0.05831  0.89811  0.12156  1.0000
  Hf  Hf20      1.0  0.05442  0.89276  0.63057  1.0000
  Hf  Hf21      1.0  0.30306  0.39796  0.12393  1.0000
  Hf  Hf22      1.0  0.30150  0.38971  0.62742  1.0000
  Hf  Hf23      1.0  0.30562  0.89679  0.12169  1.0000
  Hf  Hf24      1.0  0.30553  0.89127  0.61760  1.0000
  Hf  Hf25      1.0  0.55283  0.39161  0.12692  1.0000
  Hf  Hf26      1.0  0.55117  0.39544  0.63140  1.0000
  Hf  Hf27      1.0  0.55720  0.89795  0.11531  1.0000
  Hf  Hf28      1.0  0.55455  0.89412  0.62597  1.0000
  Hf  Hf29      1.0  0.80453  0.39233  0.12343  1.0000
  Hf  Hf30      1.0  0.80229  0.38891  0.62937  1.0000
  Hf  Hf31      1.0  0.80538  0.89220  0.12308  1.0000
  Hf  Hf32      1.0  0.80754  0.89016  0.61749  1.0000
  Hf  Hf33      1.0  0.05486  0.16969  0.42468  1.0000
  Hf  Hf34      1.0  0.05360  0.18657  0.91347  1.0000
  Hf  Hf35      1.0  0.05766  0.68727  0.41149  1.0000
  Hf  Hf36      1.0  0.05763  0.68263  0.91761  1.0000
  Hf  Hf37      1.0  0.30673  0.18820  0.41111  1.0000
  Hf  Hf38      1.0  0.30003  0.17885  0.92468  1.0000
  Hf  Hf39      1.0  0.30652  0.67848  0.41930  1.0000
  Hf  Hf40      1.0  0.30666  0.69362  0.91512  1.0000
  Hf  Hf41      1.0  0.55298  0.17906  0.42054  1.0000
  Hf  Hf42      1.0  0.55545  0.18072  0.91676  1.0000
  Hf  Hf43      1.0  0.55684  0.67937  0.41642  1.0000
  Hf  Hf44      1.0  0.55225  0.67832  0.92364  1.0000
  Hf  Hf45      1.0  0.80235  0.17485  0.41969  1.0000
  Hf  Hf46      1.0  0.80626  0.18108  0.91709  1.0000
  Hf  Hf47      1.0  0.80709  0.67703  0.41603  1.0000
  Hf  Hf48      1.0  0.80370  0.68482  0.91745  1.0000
  Hf  Hf49      1.0  0.15609  0.38649  0.33758  1.0000
  Hf  Hf50      1.0  0.15772  0.38615  0.83994  1.0000
  Hf  Hf51      1.0  0.15943  0.88616  0.33155  1.0000
  Hf  Hf52      1.0  0.15970  0.89569  0.82635  1.0000
  Hf  Hf53      1.0  0.40818  0.38336  0.34053  1.0000
  Hf  Hf54      1.0  0.41007  0.39075  0.83628  1.0000
  Hf  Hf55      1.0  0.41216  0.88614  0.33295  1.0000
  Hf  Hf56      1.0  0.41154  0.88931  0.82913  1.0000
  Hf  Hf57      1.0  0.65448  0.38300  0.34409  1.0000
  Hf  Hf58      1.0  0.66134  0.38641  0.83471  1.0000
  Hf  Hf59      1.0  0.65875  0.88763  0.33484  1.0000
  Hf  Hf60      1.0  0.65792  0.89143  0.82862  1.0000
  Hf  Hf61      1.0  0.90762  0.39061  0.33346  1.0000
  Hf  Hf62      1.0  0.90694  0.38311  0.83510  1.0000
  Hf  Hf63      1.0  0.91072  0.89010  0.32528  1.0000
  Hf  Hf64      1.0  0.91215  0.88303  0.83503  1.0000
  Hf  Hf65      1.0  0.19422  0.32187  0.08611  1.0000
  Hf  Hf66      1.0  0.19255  0.32712  0.58064  1.0000
  Hf  Hf67      1.0  0.19477  0.82192  0.07958  1.0000
  Hf  Hf68      1.0  0.19677  0.82203  0.57945  1.0000
  Hf  Hf69      1.0  0.44480  0.31208  0.08401  1.0000
  Hf  Hf70      1.0  0.44090  0.31527  0.58914  1.0000
  Hf  Hf71      1.0  0.44015  0.81838  0.08559  1.0000
  Hf  Hf72      1.0  0.44287  0.81741  0.58258  1.0000
  Hf  Hf73      1.0  0.69413  0.32030  0.08357  1.0000
  Hf  Hf74      1.0  0.69137  0.31250  0.59024  1.0000
  Hf  Hf75      1.0  0.69488  0.81188  0.08803  1.0000
  Hf  Hf76      1.0  0.69421  0.81009  0.58494  1.0000
  Hf  Hf77      1.0  0.94168  0.31947  0.08978  1.0000
  Hf  Hf78      1.0  0.94320  0.31420  0.58056  1.0000
  Hf  Hf79      1.0  0.94739  0.81626  0.08171  1.0000
  Hf  Hf80      1.0  0.94803  0.82501  0.57956  1.0000
  Hf  Hf81      1.0  0.08937  0.11513  0.16565  1.0000
  Hf  Hf82      1.0  0.09105  0.11799  0.66325  1.0000
  Hf  Hf83      1.0  0.09267  0.61584  0.16486  1.0000
  Hf  Hf84      1.0  0.09316  0.61250  0.66170  1.0000
  Hf  Hf85      1.0  0.33910  0.11343  0.16451  1.0000
  Hf  Hf86      1.0  0.34060  0.10801  0.66388  1.0000
  Hf  Hf87      1.0  0.34292  0.60867  0.16545  1.0000
  Hf  Hf88      1.0  0.33912  0.60579  0.67677  1.0000
  Hf  Hf89      1.0  0.59068  0.11108  0.17180  1.0000
  Hf  Hf90      1.0  0.58841  0.11332  0.66907  1.0000
  Hf  Hf91      1.0  0.59027  0.61354  0.17156  1.0000
  Hf  Hf92      1.0  0.59478  0.61535  0.65895  1.0000
  Hf  Hf93      1.0  0.84136  0.11424  0.16292  1.0000
  Hf  Hf94      1.0  0.84122  0.10744  0.66784  1.0000
  Hf  Hf95      1.0  0.84586  0.61608  0.15252  1.0000
  Hf  Hf96      1.0  0.84256  0.61138  0.66375  1.0000
  F   F1        1.0  0.07496  0.13333  0.29189  1.0000
  F   F2        1.0  0.07565  0.13225  0.80315  1.0000
  F   F3        1.0  0.07793  0.63001  0.29462  1.0000
  F   F4        1.0  0.08457  0.63600  0.79915  1.0000
  F   F5        1.0  0.32858  0.14445  0.29332  1.0000
  F   F6        1.0  0.32914  0.12397  0.80110  1.0000
  F   F7        1.0  0.33702  0.63255  0.30186  1.0000
  F   F8        1.0  0.32250  0.61324  0.81919  1.0000
  F   F9        1.0  0.57751  0.10960  0.32004  1.0000
  F   F10       1.0  0.58355  0.13457  0.79963  1.0000
  F   F11       1.0  0.57862  0.62327  0.30704  1.0000
  F   F12       1.0  0.58248  0.62921  0.80301  1.0000
  F   F13       1.0  0.82430  0.12236  0.30958  1.0000
  F   F14       1.0  0.82987  0.12569  0.80097  1.0000
  F   F15       1.0  0.82883  0.63985  0.29785  1.0000
  F   F16       1.0  0.82561  0.61191  0.81358  1.0000
  F   F17       1.0  0.18861  0.34429  0.43999  1.0000
  F   F18       1.0  0.18192  0.33512  0.95076  1.0000
  F   F19       1.0  0.19108  0.84901  0.44031  1.0000
  F   F20       1.0  0.18234  0.84791  0.94862  1.0000
  F   F21       1.0  0.43341  0.33443  0.45329  1.0000
  F   F22       1.0  0.44470  0.34992  0.92944  1.0000
  F   F23       1.0  0.43721  0.83541  0.44712  1.0000
  F   F24       1.0  0.43601  0.84631  0.94699  1.0000
  F   F25       1.0  0.68101  0.34382  0.45163  1.0000
  F   F26       1.0  0.68764  0.32880  0.94590  1.0000
  F   F27       1.0  0.68934  0.83773  0.45011  1.0000
  F   F28       1.0  0.68771  0.84267  0.95191  1.0000
  F   F29       1.0  0.92891  0.32544  0.45388  1.0000
  F   F30       1.0  0.92649  0.33407  0.96244  1.0000
  F   F31       1.0  0.93466  0.83861  0.44449  1.0000
  F   F32       1.0  0.93596  0.84082  0.94902  1.0000
  F   F33       1.0  0.16391  0.35823  0.20615  1.0000
  F   F34       1.0  0.17179  0.38791  0.68656  1.0000
  F   F35       1.0  0.17108  0.87702  0.19437  1.0000
  F   F36       1.0  0.17512  0.88116  0.68290  1.0000
  F   F37       1.0  0.41817  0.35947  0.20222  1.0000
  F   F38       1.0  0.42207  0.36891  0.69696  1.0000
  F   F39       1.0  0.41350  0.86944  0.20225  1.0000
  F   F40       1.0  0.42119  0.87084  0.69446  1.0000
  F   F41       1.0  0.67386  0.37808  0.19762  1.0000
  F   F42       1.0  0.67220  0.38654  0.67896  1.0000
  F   F43       1.0  0.67230  0.87122  0.19717  1.0000
  F   F44       1.0  0.67437  0.87124  0.69055  1.0000
  F   F45       1.0  0.92487  0.38826  0.18506  1.0000
  F   F46       1.0  0.91489  0.36012  0.70151  1.0000
  F   F47       1.0  0.92349  0.87495  0.19510  1.0000
  F   F48       1.0  0.92518  0.85278  0.70942  1.0000
  F   F49       1.0  0.05651  0.15040  0.06225  1.0000
  F   F50       1.0  0.05634  0.14933  0.56558  1.0000
  F   F51       1.0  0.07052  0.66105  0.04199  1.0000
  F   F52       1.0  0.06455  0.65765  0.55656  1.0000
  F   F53       1.0  0.30910  0.14436  0.06149  1.0000
  F   F54       1.0  0.31475  0.16844  0.55120  1.0000
  F   F55       1.0  0.31652  0.67948  0.04394  1.0000
  F   F56       1.0  0.31257  0.65661  0.56060  1.0000
  F   F57       1.0  0.56071  0.14773  0.07201  1.0000
  F   F58       1.0  0.55946  0.16714  0.55994  1.0000
  F   F59       1.0  0.56076  0.65590  0.06293  1.0000
  F   F60       1.0  0.56536  0.66739  0.54989  1.0000
  F   F61       1.0  0.81814  0.16827  0.04338  1.0000
  F   F62       1.0  0.81418  0.15270  0.55734  1.0000
  F   F63       1.0  0.81230  0.65369  0.05640  1.0000
  F   F64       1.0  0.81731  0.66175  0.55013  1.0000
  F   F65       1.0  0.21241  0.20101  0.20327  1.0000
  F   F66       1.0  0.20094  0.19661  0.70747  1.0000
  F   F67       1.0  0.21009  0.71297  0.20390  1.0000
  F   F68       1.0  0.19728  0.70677  0.72640  1.0000
  F   F69       1.0  0.45845  0.19390  0.20363  1.0000
  F   F70       1.0  0.45416  0.20186  0.70729  1.0000
  F   F71       1.0  0.45548  0.68752  0.21131  1.0000
  F   F72       1.0  0.44618  0.70499  0.71265  1.0000
  F   F73       1.0  0.69768  0.20223  0.22585  1.0000
  F   F74       1.0  0.69111  0.20008  0.71767  1.0000
  F   F75       1.0  0.70870  0.69807  0.20738  1.0000
  F   F76       1.0  0.69509  0.68740  0.71853  1.0000
  F   F77       1.0  0.95399  0.20398  0.20779  1.0000
  F   F78       1.0  0.95615  0.20499  0.69461  1.0000
  F   F79       1.0  0.94834  0.69308  0.21691  1.0000
  F   F80       1.0  0.95776  0.70174  0.70771  1.0000
  F   F81       1.0  0.14984  0.11353  0.03901  1.0000
  F   F82       1.0  0.14338  0.10602  0.53363  1.0000
  F   F83       1.0  0.15317  0.58443  0.03998  1.0000
  F   F84       1.0  0.14796  0.59005  0.53463  1.0000
  F   F85       1.0  0.39474  0.10306  0.02980  1.0000
  F   F86       1.0  0.40031  0.08957  0.54514  1.0000
  F   F87       1.0  0.39462  0.60310  0.03559  1.0000
  F   F88       1.0  0.39735  0.58453  0.55032  1.0000
  F   F89       1.0  0.65153  0.08124  0.04652  1.0000
  F   F90       1.0  0.64139  0.08925  0.54680  1.0000
  F   F91       1.0  0.64626  0.58187  0.04769  1.0000
  F   F92       1.0  0.65095  0.59422  0.53112  1.0000
  F   F93       1.0  0.89883  0.09197  0.02817  1.0000
  F   F94       1.0  0.90042  0.09052  0.53686  1.0000
  F   F95       1.0  0.90039  0.58853  0.03490  1.0000
  F   F96       1.0  0.90036  0.58563  0.53766  1.0000
  F   F97       1.0  0.14992  0.20724  0.14715  1.0000
  F   F98       1.0  0.15011  0.20458  0.61923  1.0000
  F   F99       1.0  0.15759  0.70316  0.12456  1.0000
  F   F100      1.0  0.15293  0.68217  0.62147  1.0000
  F   F101      1.0  0.40384  0.18859  0.12672  1.0000
  F   F102      1.0  0.39528  0.19721  0.64129  1.0000
  F   F103      1.0  0.40043  0.70258  0.12552  1.0000
  F   F104      1.0  0.39420  0.70381  0.63643  1.0000
  F   F105      1.0  0.64498  0.19317  0.14392  1.0000
  F   F106      1.0  0.64226  0.20425  0.62212  1.0000
  F   F107      1.0  0.65537  0.68388  0.12821  1.0000
  F   F108      1.0  0.65138  0.69355  0.61825  1.0000
  F   F109      1.0  0.89859  0.19138  0.13277  1.0000
  F   F110      1.0  0.90211  0.19303  0.62153  1.0000
  F   F111      1.0  0.90305  0.69206  0.12147  1.0000
  F   F112      1.0  0.90486  0.69939  0.62714  1.0000
  F   F113      1.0  0.10232  0.28865  0.38515  1.0000
  F   F114      1.0  0.10361  0.29034  0.87447  1.0000
  F   F115      1.0  0.09567  0.80402  0.38201  1.0000
  F   F116      1.0  0.09955  0.80731  0.86401  1.0000
  F   F117      1.0  0.34679  0.30280  0.35767  1.0000
  F   F118      1.0  0.35440  0.29425  0.88811  1.0000
  F   F119      1.0  0.35150  0.78674  0.39064  1.0000
  F   F120      1.0  0.35146  0.80541  0.87048  1.0000
  F   F121      1.0  0.59745  0.30288  0.37403  1.0000
  F   F122      1.0  0.59815  0.29632  0.87713  1.0000
  F   F123      1.0  0.60217  0.81511  0.35838  1.0000
  F   F124      1.0  0.60169  0.81056  0.87079  1.0000
  F   F125      1.0  0.84468  0.30158  0.38629  1.0000
  F   F126      1.0  0.84285  0.30274  0.88182  1.0000
  F   F127      1.0  0.85314  0.79427  0.36517  1.0000
  F   F128      1.0  0.84853  0.80341  0.89411  1.0000
  F   F129      1.0  0.07153  0.25577  0.12311  1.0000
  F   F130      1.0  0.06596  0.25894  0.62960  1.0000
  F   F131      1.0  0.07036  0.76164  0.13149  1.0000
  F   F132      1.0  0.06610  0.75033  0.63926  1.0000
  F   F133      1.0  0.31701  0.25042  0.12473  1.0000
  F   F134      1.0  0.31243  0.24512  0.65185  1.0000
  F   F135      1.0  0.31093  0.73868  0.15848  1.0000
  F   F136      1.0  0.31250  0.75213  0.64952  1.0000
  F   F137      1.0  0.56153  0.24921  0.15334  1.0000
  F   F138      1.0  0.55359  0.24463  0.66798  1.0000
  F   F139      1.0  0.57120  0.75686  0.13175  1.0000
  F   F140      1.0  0.55814  0.74592  0.65588  1.0000
  F   F141      1.0  0.81739  0.25349  0.13901  1.0000
  F   F142      1.0  0.81904  0.25161  0.63496  1.0000
  F   F143      1.0  0.82028  0.74643  0.13742  1.0000
  F   F144      1.0  0.81713  0.74681  0.64818  1.0000
  F   F145      1.0  0.12581  0.38776  0.09690  1.0000
  F   F146      1.0  0.12659  0.38071  0.59758  1.0000
  F   F147      1.0  0.12515  0.87963  0.11519  1.0000
  F   F148      1.0  0.12420  0.86798  0.61355  1.0000
  F   F149      1.0  0.37347  0.35350  0.11909  1.0000
  F   F150      1.0  0.37433  0.37820  0.59604  1.0000
  F   F151      1.0  0.37136  0.85613  0.11059  1.0000
  F   F152      1.0  0.37703  0.87678  0.59837  1.0000
  F   F153      1.0  0.62187  0.37099  0.11323  1.0000
  F   F154      1.0  0.62409  0.36283  0.62081  1.0000
  F   F155      1.0  0.62648  0.87031  0.10430  1.0000
  F   F156      1.0  0.62574  0.86428  0.60290  1.0000
  F   F157      1.0  0.87550  0.37567  0.10927  1.0000
  F   F158      1.0  0.87415  0.38076  0.61161  1.0000
  F   F159      1.0  0.87320  0.85569  0.12267  1.0000
  F   F160      1.0  0.88377  0.88495  0.58812  1.0000
  F   F161      1.0  0.18847  0.25132  0.35078  1.0000
  F   F162      1.0  0.18403  0.25335  0.84426  1.0000
  F   F163      1.0  0.17795  0.74884  0.37491  1.0000
  F   F164      1.0  0.17603  0.75326  0.86984  1.0000
  F   F165      1.0  0.43328  0.24690  0.36002  1.0000
  F   F166      1.0  0.43933  0.25274  0.85136  1.0000
  F   F167      1.0  0.44296  0.74661  0.34861  1.0000
  F   F168      1.0  0.43746  0.74974  0.85639  1.0000
  F   F169      1.0  0.68544  0.24608  0.36630  1.0000
  F   F170      1.0  0.69004  0.25518  0.84123  1.0000
  F   F171      1.0  0.68446  0.74618  0.36472  1.0000
  F   F172      1.0  0.68349  0.74738  0.85710  1.0000
  F   F173      1.0  0.93373  0.25027  0.34868  1.0000
  F   F174      1.0  0.94022  0.24990  0.84647  1.0000
  F   F175      1.0  0.93882  0.74397  0.35509  1.0000
  F   F176      1.0  0.94317  0.74399  0.85960  1.0000
  F   F177      1.0  0.12365  0.11340  0.39607  1.0000
  F   F178      1.0  0.12681  0.11600  0.90015  1.0000
  F   F179      1.0  0.12635  0.64814  0.37351  1.0000
  F   F180      1.0  0.12537  0.61448  0.90080  1.0000
  F   F181      1.0  0.37901  0.12054  0.39156  1.0000
  F   F182      1.0  0.37333  0.14082  0.88890  1.0000
  F   F183      1.0  0.37599  0.61923  0.40301  1.0000
  F   F184      1.0  0.37386  0.62373  0.89656  1.0000
  F   F185      1.0  0.62294  0.13458  0.39691  1.0000
  F   F186      1.0  0.62535  0.12391  0.89756  1.0000
  F   F187      1.0  0.62607  0.63305  0.38529  1.0000
  F   F188      1.0  0.62072  0.63236  0.90202  1.0000
  F   F189      1.0  0.87319  0.12378  0.40251  1.0000
  F   F190      1.0  0.87850  0.12560  0.88202  1.0000
  F   F191      1.0  0.87385  0.61130  0.39870  1.0000
  F   F192      1.0  0.87905  0.64367  0.87884  1.0000
  F   F193      1.0  0.00617  0.35814  0.08206  1.0000
  F   F194      1.0  0.00066  0.37846  0.58975  1.0000
  F   F195      1.0  0.01463  0.86542  0.07532  1.0000
  F   F196      1.0  0.00502  0.86433  0.58464  1.0000
  F   F197      1.0  0.25656  0.36282  0.08223  1.0000
  F   F198      1.0  0.25650  0.37913  0.57285  1.0000
  F   F199      1.0  0.26215  0.86061  0.06731  1.0000
  F   F200      1.0  0.25846  0.86700  0.55655  1.0000
  F   F201      1.0  0.50772  0.35690  0.06931  1.0000
  F   F202      1.0  0.50623  0.36652  0.57552  1.0000
  F   F203      1.0  0.50698  0.85781  0.07957  1.0000
  F   F204      1.0  0.50836  0.86039  0.58066  1.0000
  F   F205      1.0  0.75717  0.36931  0.07103  1.0000
  F   F206      1.0  0.75418  0.35234  0.59576  1.0000
  F   F207      1.0  0.75946  0.86477  0.06591  1.0000
  F   F208      1.0  0.75917  0.85091  0.57187  1.0000
  F   F209      1.0  0.06505  0.49658  0.17338  1.0000
  F   F210      1.0  0.06282  0.48765  0.67828  1.0000
  F   F211      1.0  0.06477  0.98914  0.17612  1.0000
  F   F212      1.0  0.07219  0.98636  0.66895  1.0000
  F   F213      1.0  0.31863  0.48927  0.17080  1.0000
  F   F214      1.0  0.31590  0.48688  0.68461  1.0000
  F   F215      1.0  0.32687  0.98337  0.16408  1.0000
  F   F216      1.0  0.32010  0.98787  0.66582  1.0000
  F   F217      1.0  0.56735  0.48148  0.17878  1.0000
  F   F218      1.0  0.56918  0.49140  0.66815  1.0000
  F   F219      1.0  0.57104  0.97725  0.17933  1.0000
  F   F220      1.0  0.56437  0.98525  0.68037  1.0000
  F   F221      1.0  0.81866  0.48641  0.17537  1.0000
  F   F222      1.0  0.81256  0.49370  0.67933  1.0000
  F   F223      1.0  0.81623  0.99077  0.17483  1.0000
  F   F224      1.0  0.82198  0.98181  0.67372  1.0000
  F   F225      1.0  0.24284  0.13527  0.41527  1.0000
  F   F226      1.0  0.23871  0.14816  0.92005  1.0000
  F   F227      1.0  0.24529  0.63887  0.41769  1.0000
  F   F228      1.0  0.24307  0.63471  0.92710  1.0000
  F   F229      1.0  0.48726  0.13705  0.43839  1.0000
  F   F230      1.0  0.48677  0.14078  0.93873  1.0000
  F   F231      1.0  0.49136  0.63814  0.42832  1.0000
  F   F232      1.0  0.49359  0.63093  0.92438  1.0000
  F   F233      1.0  0.73552  0.13433  0.43694  1.0000
  F   F234      1.0  0.74068  0.14319  0.93685  1.0000
  F   F235      1.0  0.74256  0.63797  0.42703  1.0000
  F   F236      1.0  0.73986  0.65097  0.91966  1.0000
  F   F237      1.0  0.99360  0.13549  0.43650  1.0000
  F   F238      1.0  0.99185  0.12893  0.92965  1.0000
  F   F239      1.0  0.99110  0.63234  0.43669  1.0000
  F   F240      1.0  0.99606  0.64448  0.93491  1.0000
  F   F241      1.0  0.17835  0.01251  0.31868  1.0000
  F   F242      1.0  0.18499  0.01886  0.80312  1.0000
  F   F243      1.0  0.18171  0.51444  0.33348  1.0000
  F   F244      1.0  0.18035  0.50890  0.82644  1.0000
  F   F245      1.0  0.44090  0.01198  0.32317  1.0000
  F   F246      1.0  0.42850  0.01332  0.82831  1.0000
  F   F247      1.0  0.42972  0.50917  0.33176  1.0000
  F   F248      1.0  0.42858  0.52652  0.81490  1.0000
  F   F249      1.0  0.67952  0.00716  0.33110  1.0000
  F   F250      1.0  0.68165  0.01736  0.82283  1.0000
  F   F251      1.0  0.68050  0.51108  0.31961  1.0000
  F   F252      1.0  0.67740  0.50455  0.83531  1.0000
  F   F253      1.0  0.92587  0.01547  0.33461  1.0000
  F   F254      1.0  0.93298  0.02391  0.81575  1.0000
  F   F255      1.0  0.94226  0.50359  0.32440  1.0000
  F   F256      1.0  0.93042  0.50654  0.83411  1.0000
  F   F257      1.0  0.00330  0.26123  0.99013  1.0000
  F   F258      1.0  0.99933  0.26226  0.49248  1.0000
  F   F259      1.0  0.00166  0.75761  0.00086  1.0000
  F   F260      1.0  0.00525  0.76159  0.49819  1.0000
  F   F261      1.0  0.25010  0.25444  0.00269  1.0000
  F   F262      1.0  0.24850  0.25511  0.49773  1.0000
  F   F263      1.0  0.25273  0.75601  0.99161  1.0000
  F   F264      1.0  0.25062  0.74295  0.50384  1.0000
  F   F265      1.0  0.50425  0.26504  0.99158  1.0000
  F   F266      1.0  0.49802  0.25634  0.49757  1.0000
  F   F267      1.0  0.50101  0.74985  0.00233  1.0000
  F   F268      1.0  0.49387  0.72702  0.51776  1.0000
  F   F269      1.0  0.74776  0.25624  0.00204  1.0000
  F   F270      1.0  0.74550  0.23585  0.51406  1.0000
  F   F271      1.0  0.75409  0.75291  0.99984  1.0000
  F   F272      1.0  0.74946  0.74247  0.50347  1.0000
  F   F273      1.0  0.12121  0.00828  0.24713  1.0000
  F   F274      1.0  0.12617  0.00791  0.73532  1.0000
  F   F275      1.0  0.12595  0.49707  0.25078  1.0000
  F   F276      1.0  0.12268  0.49567  0.75315  1.0000
  F   F277      1.0  0.38005  0.00459  0.24652  1.0000
  F   F278      1.0  0.37815  0.99161  0.74693  1.0000
  F   F279      1.0  0.37763  0.49884  0.25162  1.0000
  F   F280      1.0  0.37729  0.49570  0.74549  1.0000
  F   F281      1.0  0.63109  0.00384  0.23952  1.0000
  F   F282      1.0  0.63014  0.00515  0.74193  1.0000
  F   F283      1.0  0.61817  0.48689  0.27207  1.0000
  F   F284      1.0  0.62631  0.50381  0.73977  1.0000
  F   F285      1.0  0.87427  0.99754  0.24222  1.0000
  F   F286      1.0  0.87864  0.99293  0.74181  1.0000
  F   F287      1.0  0.87166  0.50342  0.25148  1.0000
  F   F288      1.0  0.87690  0.49545  0.74672  1.0000
  F   F289      1.0  0.04572  0.03520  0.01840  1.0000
  F   F290      1.0  0.04227  0.02289  0.53177  1.0000
  F   F291      1.0  0.04814  0.52542  0.02193  1.0000
  F   F292      1.0  0.04593  0.53942  0.51630  1.0000
  F   F293      1.0  0.28834  0.02949  0.02038  1.0000
  F   F294      1.0  0.29943  0.03208  0.50727  1.0000
  F   F295      1.0  0.29125  0.53444  0.02508  1.0000
  F   F296      1.0  0.29369  0.52966  0.53022  1.0000
  F   F297      1.0  0.54058  0.03070  0.02551  1.0000
  F   F298      1.0  0.54388  0.03683  0.52702  1.0000
  F   F299      1.0  0.54264  0.53166  0.02246  1.0000
  F   F300      1.0  0.54489  0.52598  0.51138  1.0000
  F   F301      1.0  0.79425  0.03945  0.02389  1.0000
  F   F302      1.0  0.78814  0.02500  0.52373  1.0000
  F   F303      1.0  0.79567  0.53396  0.01685  1.0000
  F   F304      1.0  0.79014  0.52699  0.52721  1.0000
  F   F305      1.0  0.23130  0.42445  0.23068  1.0000
  F   F306      1.0  0.23341  0.40717  0.73360  1.0000
  F   F307      1.0  0.23414  0.91516  0.22110  1.0000
  F   F308      1.0  0.23958  0.91544  0.71266  1.0000
  F   F309      1.0  0.48208  0.41928  0.22121  1.0000
  F   F310      1.0  0.48275  0.42371  0.72584  1.0000
  F   F311      1.0  0.48597  0.92369  0.21669  1.0000
  F   F312      1.0  0.48262  0.91367  0.72676  1.0000
  F   F313      1.0  0.73859  0.40258  0.23396  1.0000
  F   F314      1.0  0.73160  0.42311  0.72572  1.0000
  F   F315      1.0  0.73709  0.91655  0.21463  1.0000
  F   F316      1.0  0.73889  0.91593  0.71765  1.0000
  F   F317      1.0  0.98755  0.39566  0.24376  1.0000
  F   F318      1.0  0.98255  0.42647  0.72740  1.0000
  F   F319      1.0  0.98397  0.92338  0.21755  1.0000
  F   F320      1.0  0.98662  0.92159  0.72948  1.0000
  F   F321      1.0  0.21336  0.47936  0.46631  1.0000
  F   F322      1.0  0.21370  0.46031  0.97936  1.0000
  F   F323      1.0  0.20499  0.97543  0.47811  1.0000
  F   F324      1.0  0.20670  0.97610  0.96496  1.0000
  F   F325      1.0  0.45812  0.46309  0.47675  1.0000
  F   F326      1.0  0.45009  0.47016  0.98033  1.0000
  F   F327      1.0  0.45907  0.96743  0.48516  1.0000
  F   F328      1.0  0.44963  0.97235  0.98587  1.0000
  F   F329      1.0  0.70425  0.46782  0.47269  1.0000
  F   F330      1.0  0.70792  0.46968  0.97266  1.0000
  F   F331      1.0  0.70507  0.96885  0.47625  1.0000
  F   F332      1.0  0.70571  0.96837  0.98389  1.0000
  F   F333      1.0  0.95917  0.46000  0.47932  1.0000
  F   F334      1.0  0.95657  0.46789  0.96969  1.0000
  F   F335      1.0  0.96406  0.97670  0.47425  1.0000
  F   F336      1.0  0.95913  0.96873  0.98260  1.0000
  F   F337      1.0  0.01043  0.08862  0.27371  1.0000
  F   F338      1.0  0.01256  0.08663  0.77074  1.0000
  F   F339      1.0  0.01598  0.59944  0.27182  1.0000
  F   F340      1.0  0.01530  0.58046  0.78693  1.0000
  F   F341      1.0  0.26562  0.07371  0.27066  1.0000
  F   F342      1.0  0.26536  0.08197  0.76324  1.0000
  F   F343      1.0  0.26840  0.58145  0.27372  1.0000
  F   F344      1.0  0.26367  0.58201  0.77686  1.0000
  F   F345      1.0  0.51698  0.08960  0.28028  1.0000
  F   F346      1.0  0.51219  0.09129  0.78526  1.0000
  F   F347      1.0  0.51645  0.57230  0.27616  1.0000
  F   F348      1.0  0.51274  0.59625  0.75960  1.0000
  F   F349      1.0  0.76541  0.09678  0.26769  1.0000
  F   F350      1.0  0.76203  0.09773  0.77260  1.0000
  F   F351      1.0  0.76709  0.58247  0.27989  1.0000
  F   F352      1.0  0.76041  0.59424  0.77421  1.0000
  F   F353      1.0  0.10116  0.42358  0.45538  1.0000
  F   F354      1.0  0.09863  0.40092  0.95921  1.0000
  F   F355      1.0  0.10603  0.91146  0.45633  1.0000
  F   F356      1.0  0.10329  0.91414  0.95705  1.0000
  F   F357      1.0  0.34704  0.40362  0.46447  1.0000
  F   F358      1.0  0.34794  0.42317  0.96346  1.0000
  F   F359      1.0  0.35697  0.90684  0.45653  1.0000
  F   F360      1.0  0.35187  0.90731  0.96208  1.0000
  F   F361      1.0  0.59903  0.39168  0.48109  1.0000
  F   F362      1.0  0.60019  0.39856  0.97212  1.0000
  F   F363      1.0  0.59864  0.90862  0.46341  1.0000
  F   F364      1.0  0.59782  0.91190  0.96299  1.0000
  F   F365      1.0  0.85019  0.41311  0.45455  1.0000
  F   F366      1.0  0.84970  0.40507  0.96783  1.0000
  F   F367      1.0  0.84757  0.90101  0.45879  1.0000
  F   F368      1.0  0.85422  0.91724  0.95452  1.0000
  F   F369      1.0  0.05620  0.29571  0.28523  1.0000
  F   F370      1.0  0.03988  0.30282  0.79203  1.0000
  F   F371      1.0  0.04240  0.79943  0.29336  1.0000
  F   F372      1.0  0.05111  0.80262  0.78393  1.0000
  F   F373      1.0  0.28892  0.28956  0.28498  1.0000
  F   F374      1.0  0.29395  0.29876  0.79660  1.0000
  F   F375      1.0  0.30007  0.79820  0.29451  1.0000
  F   F376      1.0  0.29639  0.80695  0.78919  1.0000
  F   F377      1.0  0.53966  0.29136  0.29685  1.0000
  F   F378      1.0  0.54637  0.30162  0.78853  1.0000
  F   F379      1.0  0.54262  0.78923  0.29746  1.0000
  F   F380      1.0  0.54644  0.80523  0.78752  1.0000
  F   F381      1.0  0.80011  0.29304  0.28902  1.0000
  F   F382      1.0  0.79890  0.29559  0.78231  1.0000
  F   F383      1.0  0.79615  0.80349  0.28418  1.0000
  F   F384      1.0  0.80691  0.79464  0.78104  1.0000
