data_image0
_chemical_formula_structural       Hf96F384
_chemical_formula_sum              "Hf96 F384"
_cell_length_a       31.0246
_cell_length_b       15.5133
_cell_length_c       15.5066
_cell_angle_alpha    63.342
_cell_angle_beta     63.342
_cell_angle_gamma    80.1625

_space_group_name_H-M_alt    "P 1"
_space_group_IT_number       1

loop_
  _space_group_symop_operation_xyz
  'x, y, z'

loop_
  _atom_site_type_symbol
  _atom_site_label
  _atom_site_symmetry_multiplicity
  _atom_site_fract_x
  _atom_site_fract_y
  _atom_site_fract_z
  _atom_site_occupancy
  Hf  Hf1       1.0  0.19692  0.10471  0.37426  1.0000
  Hf  Hf2       1.0  0.20001  0.10864  0.86654  1.0000
  Hf  Hf3       1.0  0.19403  0.59951  0.38527  1.0000
  Hf  Hf4       1.0  0.19737  0.60581  0.87383  1.0000
  Hf  Hf5       1.0  0.44749  0.10843  0.36917  1.0000
  Hf  Hf6       1.0  0.44686  0.10322  0.88149  1.0000
  Hf  Hf7       1.0  0.44777  0.61391  0.37232  1.0000
  Hf  Hf8       1.0  0.44325  0.60150  0.88758  1.0000
  Hf  Hf9       1.0  0.69494  0.11023  0.37919  1.0000
  Hf  Hf10      1.0  0.69886  0.11717  0.86867  1.0000
  Hf  Hf11      1.0  0.69324  0.60511  0.37057  1.0000
  Hf  Hf12      1.0  0.69687  0.61607  0.87315  1.0000
  Hf  Hf13      1.0  0.94963  0.11859  0.37365  1.0000
  Hf  Hf14      1.0  0.94920  0.10842  0.87376  1.0000
  Hf  Hf15      1.0  0.95003  0.60934  0.37642  1.0000
  Hf  Hf16      1.0  0.94375  0.60890  0.87803  1.0000
  Hf  Hf17      1.0  0.05157  0.38817  0.12808  1.0000
  Hf  Hf18      1.0  0.05237  0.38752  0.63329  1.0000
  Hf  Hf19      1.0  0.05122  0.89114  0.12297  1.0000
  Hf  Hf20      1.0  0.05367  0.89410  0.62301  1.0000
  Hf  Hf21      1.0  0.30279  0.38635  0.12757  1.0000
  Hf  Hf22      1.0  0.30438  0.38976  0.62440  1.0000
  Hf  Hf23      1.0  0.30471  0.88983  0.11722  1.0000
  Hf  Hf24      1.0  0.30534  0.88908  0.62701  1.0000
  Hf  Hf25      1.0  0.55178  0.39500  0.12870  1.0000
  Hf  Hf26      1.0  0.55495  0.39131  0.62214  1.0000
  Hf  Hf27      1.0  0.55495  0.89834  0.11797  1.0000
  Hf  Hf28      1.0  0.55077  0.89269  0.62199  1.0000
  Hf  Hf29      1.0  0.80320  0.39266  0.12661  1.0000
  Hf  Hf30      1.0  0.80376  0.39569  0.62428  1.0000
  Hf  Hf31      1.0  0.80740  0.89533  0.12201  1.0000
  Hf  Hf32      1.0  0.80490  0.89344  0.62586  1.0000
  Hf  Hf33      1.0  0.05897  0.18661  0.41140  1.0000
  Hf  Hf34      1.0  0.05632  0.17845  0.93018  1.0000
  Hf  Hf35      1.0  0.05817  0.68120  0.41370  1.0000
  Hf  Hf36      1.0  0.05369  0.68194  0.91672  1.0000
  Hf  Hf37      1.0  0.30744  0.18318  0.40633  1.0000
  Hf  Hf38      1.0  0.30890  0.17961  0.91222  1.0000
  Hf  Hf39      1.0  0.30627  0.69068  0.41420  1.0000
  Hf  Hf40      1.0  0.30390  0.67714  0.92588  1.0000
  Hf  Hf41      1.0  0.55303  0.19173  0.41148  1.0000
  Hf  Hf42      1.0  0.55799  0.18335  0.90933  1.0000
  Hf  Hf43      1.0  0.55726  0.68567  0.41177  1.0000
  Hf  Hf44      1.0  0.55584  0.68785  0.91278  1.0000
  Hf  Hf45      1.0  0.80481  0.17926  0.42618  1.0000
  Hf  Hf46      1.0  0.80765  0.18264  0.91723  1.0000
  Hf  Hf47      1.0  0.80584  0.66886  0.42358  1.0000
  Hf  Hf48      1.0  0.80491  0.68405  0.91406  1.0000
  Hf  Hf49      1.0  0.15950  0.38455  0.33278  1.0000
  Hf  Hf50      1.0  0.15662  0.38128  0.84653  1.0000
  Hf  Hf51      1.0  0.15715  0.88101  0.34228  1.0000
  Hf  Hf52      1.0  0.15654  0.88618  0.84277  1.0000
  Hf  Hf53      1.0  0.40628  0.38951  0.33121  1.0000
  Hf  Hf54      1.0  0.41241  0.38326  0.83030  1.0000
  Hf  Hf55      1.0  0.41083  0.89146  0.32502  1.0000
  Hf  Hf56      1.0  0.40804  0.88626  0.83082  1.0000
  Hf  Hf57      1.0  0.66064  0.39111  0.32153  1.0000
  Hf  Hf58      1.0  0.65763  0.39568  0.83088  1.0000
  Hf  Hf59      1.0  0.65882  0.88313  0.33872  1.0000
  Hf  Hf60      1.0  0.65843  0.89177  0.83047  1.0000
  Hf  Hf61      1.0  0.90591  0.39035  0.33609  1.0000
  Hf  Hf62      1.0  0.90769  0.38448  0.83548  1.0000
  Hf  Hf63      1.0  0.90868  0.89725  0.33591  1.0000
  Hf  Hf64      1.0  0.90813  0.89053  0.82983  1.0000
  Hf  Hf65      1.0  0.19478  0.31036  0.08383  1.0000
  Hf  Hf66      1.0  0.19453  0.31482  0.58341  1.0000
  Hf  Hf67      1.0  0.19353  0.81161  0.09262  1.0000
  Hf  Hf68      1.0  0.19192  0.81559  0.59311  1.0000
  Hf  Hf69      1.0  0.44484  0.31610  0.08400  1.0000
  Hf  Hf70      1.0  0.44298  0.31779  0.58166  1.0000
  Hf  Hf71      1.0  0.44178  0.81178  0.08920  1.0000
  Hf  Hf72      1.0  0.44313  0.81992  0.58017  1.0000
  Hf  Hf73      1.0  0.69141  0.32209  0.07776  1.0000
  Hf  Hf74      1.0  0.69639  0.32796  0.57801  1.0000
  Hf  Hf75      1.0  0.69354  0.83373  0.07739  1.0000
  Hf  Hf76      1.0  0.69676  0.82006  0.57818  1.0000
  Hf  Hf77      1.0  0.94168  0.31133  0.09316  1.0000
  Hf  Hf78      1.0  0.94233  0.30950  0.59074  1.0000
  Hf  Hf79      1.0  0.94062  0.81228  0.09083  1.0000
  Hf  Hf80      1.0  0.94728  0.81457  0.58192  1.0000
  Hf  Hf81      1.0  0.09378  0.10751  0.16751  1.0000
  Hf  Hf82      1.0  0.09024  0.10423  0.67735  1.0000
  Hf  Hf83      1.0  0.09064  0.60839  0.16715  1.0000
  Hf  Hf84      1.0  0.09153  0.61445  0.66386  1.0000
  Hf  Hf85      1.0  0.33966  0.11050  0.16510  1.0000
  Hf  Hf86      1.0  0.34066  0.10982  0.66385  1.0000
  Hf  Hf87      1.0  0.34012  0.60553  0.16731  1.0000
  Hf  Hf88      1.0  0.34126  0.61550  0.66559  1.0000
  Hf  Hf89      1.0  0.59532  0.11110  0.15613  1.0000
  Hf  Hf90      1.0  0.59162  0.12293  0.65295  1.0000
  Hf  Hf91      1.0  0.59386  0.62916  0.15554  1.0000
  Hf  Hf92      1.0  0.58796  0.60779  0.66979  1.0000
  Hf  Hf93      1.0  0.83613  0.11493  0.17527  1.0000
  Hf  Hf94      1.0  0.83908  0.11164  0.66647  1.0000
  Hf  Hf95      1.0  0.83973  0.60902  0.16845  1.0000
  Hf  Hf96      1.0  0.84264  0.61170  0.67287  1.0000
  F   F1        1.0  0.08171  0.13032  0.30669  1.0000
  F   F2        1.0  0.07992  0.12691  0.80670  1.0000
  F   F3        1.0  0.08209  0.63219  0.30338  1.0000
  F   F4        1.0  0.07694  0.63717  0.80157  1.0000
  F   F5        1.0  0.33320  0.14499  0.28356  1.0000
  F   F6        1.0  0.33552  0.13883  0.78986  1.0000
  F   F7        1.0  0.32834  0.63170  0.29974  1.0000
  F   F8        1.0  0.33015  0.62483  0.80760  1.0000
  F   F9        1.0  0.58171  0.15082  0.28201  1.0000
  F   F10       1.0  0.57786  0.12096  0.80717  1.0000
  F   F11       1.0  0.58109  0.62528  0.29912  1.0000
  F   F12       1.0  0.57475  0.63106  0.80890  1.0000
  F   F13       1.0  0.82367  0.12626  0.31174  1.0000
  F   F14       1.0  0.83383  0.12571  0.80031  1.0000
  F   F15       1.0  0.82012  0.60481  0.31745  1.0000
  F   F16       1.0  0.82396  0.61548  0.81366  1.0000
  F   F17       1.0  0.17956  0.33454  0.45832  1.0000
  F   F18       1.0  0.18218  0.33489  0.95897  1.0000
  F   F19       1.0  0.18802  0.84451  0.44716  1.0000
  F   F20       1.0  0.19100  0.83101  0.94893  1.0000
  F   F21       1.0  0.43546  0.34134  0.44080  1.0000
  F   F22       1.0  0.44013  0.33193  0.94672  1.0000
  F   F23       1.0  0.44148  0.84880  0.44026  1.0000
  F   F24       1.0  0.42686  0.82724  0.96158  1.0000
  F   F25       1.0  0.67543  0.32566  0.45075  1.0000
  F   F26       1.0  0.68195  0.34476  0.94686  1.0000
  F   F27       1.0  0.69676  0.85001  0.43387  1.0000
  F   F28       1.0  0.68891  0.84598  0.94561  1.0000
  F   F29       1.0  0.93166  0.32413  0.46630  1.0000
  F   F30       1.0  0.93086  0.33474  0.95569  1.0000
  F   F31       1.0  0.93907  0.83908  0.44586  1.0000
  F   F32       1.0  0.93257  0.84067  0.94922  1.0000
  F   F33       1.0  0.17745  0.37351  0.19567  1.0000
  F   F34       1.0  0.17275  0.37435  0.70135  1.0000
  F   F35       1.0  0.16795  0.86039  0.21070  1.0000
  F   F36       1.0  0.16562  0.87977  0.70150  1.0000
  F   F37       1.0  0.41586  0.35003  0.21221  1.0000
  F   F38       1.0  0.42496  0.38447  0.68767  1.0000
  F   F39       1.0  0.42292  0.88813  0.18325  1.0000
  F   F40       1.0  0.41500  0.87093  0.69492  1.0000
  F   F41       1.0  0.67512  0.38171  0.18263  1.0000
  F   F42       1.0  0.67308  0.38827  0.68434  1.0000
  F   F43       1.0  0.66834  0.88201  0.19841  1.0000
  F   F44       1.0  0.67101  0.86319  0.69237  1.0000
  F   F45       1.0  0.91374  0.35892  0.20917  1.0000
  F   F46       1.0  0.91738  0.37359  0.70156  1.0000
  F   F47       1.0  0.91697  0.85090  0.21169  1.0000
  F   F48       1.0  0.92939  0.87700  0.69117  1.0000
  F   F49       1.0  0.05769  0.13723  0.07312  1.0000
  F   F50       1.0  0.05935  0.15589  0.56043  1.0000
  F   F51       1.0  0.06134  0.66271  0.06068  1.0000
  F   F52       1.0  0.07028  0.65332  0.54773  1.0000
  F   F53       1.0  0.31462  0.15356  0.04733  1.0000
  F   F54       1.0  0.30894  0.16470  0.55364  1.0000
  F   F55       1.0  0.31161  0.65338  0.05895  1.0000
  F   F56       1.0  0.32125  0.65818  0.54888  1.0000
  F   F57       1.0  0.57316  0.15477  0.03844  1.0000
  F   F58       1.0  0.56743  0.17428  0.53329  1.0000
  F   F59       1.0  0.56922  0.65726  0.04217  1.0000
  F   F60       1.0  0.57084  0.65161  0.54077  1.0000
  F   F61       1.0  0.81324  0.15105  0.05449  1.0000
  F   F62       1.0  0.80658  0.16115  0.56869  1.0000
  F   F63       1.0  0.81633  0.66238  0.05366  1.0000
  F   F64       1.0  0.81774  0.65714  0.54595  1.0000
  F   F65       1.0  0.20613  0.20641  0.20794  1.0000
  F   F66       1.0  0.21156  0.20202  0.71106  1.0000
  F   F67       1.0  0.20519  0.70292  0.22468  1.0000
  F   F68       1.0  0.20039  0.69552  0.72022  1.0000
  F   F69       1.0  0.46106  0.18789  0.20653  1.0000
  F   F70       1.0  0.44365  0.21087  0.71293  1.0000
  F   F71       1.0  0.45538  0.69878  0.20727  1.0000
  F   F72       1.0  0.45006  0.70260  0.71032  1.0000
  F   F73       1.0  0.68947  0.20481  0.21373  1.0000
  F   F74       1.0  0.70901  0.21790  0.71686  1.0000
  F   F75       1.0  0.69884  0.70767  0.22276  1.0000
  F   F76       1.0  0.70770  0.71340  0.70515  1.0000
  F   F77       1.0  0.95300  0.19692  0.22026  1.0000
  F   F78       1.0  0.95124  0.19663  0.71759  1.0000
  F   F79       1.0  0.95620  0.69299  0.20092  1.0000
  F   F80       1.0  0.95451  0.70584  0.70700  1.0000
  F   F81       1.0  0.14881  0.08216  0.05469  1.0000
  F   F82       1.0  0.14963  0.09168  0.54055  1.0000
  F   F83       1.0  0.15175  0.59102  0.03372  1.0000
  F   F84       1.0  0.15054  0.56784  0.54876  1.0000
  F   F85       1.0  0.40081  0.08621  0.04006  1.0000
  F   F86       1.0  0.39840  0.09268  0.52969  1.0000
  F   F87       1.0  0.39829  0.60122  0.03691  1.0000
  F   F88       1.0  0.39760  0.59225  0.53433  1.0000
  F   F89       1.0  0.64916  0.07552  0.02520  1.0000
  F   F90       1.0  0.65271  0.12855  0.52087  1.0000
  F   F91       1.0  0.64975  0.58594  0.04345  1.0000
  F   F92       1.0  0.65061  0.59194  0.56700  1.0000
  F   F93       1.0  0.89575  0.11181  0.05289  1.0000
  F   F94       1.0  0.90445  0.08775  0.52943  1.0000
  F   F95       1.0  0.89789  0.57952  0.04031  1.0000
  F   F96       1.0  0.90124  0.59528  0.53176  1.0000
  F   F97       1.0  0.15114  0.18913  0.13759  1.0000
  F   F98       1.0  0.15724  0.18503  0.63325  1.0000
  F   F99       1.0  0.15552  0.68694  0.12647  1.0000
  F   F100      1.0  0.15352  0.68959  0.61526  1.0000
  F   F101      1.0  0.40587  0.19485  0.11665  1.0000
  F   F102      1.0  0.39754  0.20244  0.59698  1.0000
  F   F103      1.0  0.39979  0.69583  0.12261  1.0000
  F   F104      1.0  0.40416  0.70811  0.61030  1.0000
  F   F105      1.0  0.64928  0.20105  0.09987  1.0000
  F   F106      1.0  0.65382  0.20303  0.63636  1.0000
  F   F107      1.0  0.65211  0.71109  0.11799  1.0000
  F   F108      1.0  0.64779  0.71325  0.63908  1.0000
  F   F109      1.0  0.89430  0.20547  0.15441  1.0000
  F   F110      1.0  0.89616  0.19821  0.63514  1.0000
  F   F111      1.0  0.89354  0.70641  0.12686  1.0000
  F   F112      1.0  0.90698  0.68790  0.62992  1.0000
  F   F113      1.0  0.09885  0.30195  0.37574  1.0000
  F   F114      1.0  0.08920  0.28884  0.90586  1.0000
  F   F115      1.0  0.08983  0.80655  0.37736  1.0000
  F   F116      1.0  0.09968  0.79293  0.87730  1.0000
  F   F117      1.0  0.34564  0.30493  0.37176  1.0000
  F   F118      1.0  0.35567  0.29198  0.86584  1.0000
  F   F119      1.0  0.35063  0.80817  0.37702  1.0000
  F   F120      1.0  0.34431  0.81391  0.88012  1.0000
  F   F121      1.0  0.60211  0.30329  0.35252  1.0000
  F   F122      1.0  0.59860  0.31243  0.86278  1.0000
  F   F123      1.0  0.59698  0.79415  0.37797  1.0000
  F   F124      1.0  0.59928  0.81148  0.85703  1.0000
  F   F125      1.0  0.85158  0.29994  0.39775  1.0000
  F   F126      1.0  0.85013  0.29974  0.88040  1.0000
  F   F127      1.0  0.84495  0.82093  0.39196  1.0000
  F   F128      1.0  0.84831  0.80443  0.85659  1.0000
  F   F129      1.0  0.06841  0.24937  0.13728  1.0000
  F   F130      1.0  0.06950  0.25088  0.63999  1.0000
  F   F131      1.0  0.07215  0.74783  0.13407  1.0000
  F   F132      1.0  0.06345  0.75450  0.62681  1.0000
  F   F133      1.0  0.32058  0.25580  0.12317  1.0000
  F   F134      1.0  0.31029  0.24713  0.65127  1.0000
  F   F135      1.0  0.31624  0.75299  0.13044  1.0000
  F   F136      1.0  0.31561  0.75189  0.64603  1.0000
  F   F137      1.0  0.56147  0.25236  0.13709  1.0000
  F   F138      1.0  0.56548  0.25534  0.63624  1.0000
  F   F139      1.0  0.56755  0.75522  0.13610  1.0000
  F   F140      1.0  0.56591  0.74841  0.63756  1.0000
  F   F141      1.0  0.82171  0.25674  0.11834  1.0000
  F   F142      1.0  0.81999  0.25401  0.63746  1.0000
  F   F143      1.0  0.81300  0.75038  0.14661  1.0000
  F   F144      1.0  0.82003  0.75118  0.63818  1.0000
  F   F145      1.0  0.12290  0.34640  0.13657  1.0000
  F   F146      1.0  0.12903  0.38073  0.59648  1.0000
  F   F147      1.0  0.12660  0.86659  0.10764  1.0000
  F   F148      1.0  0.12674  0.86844  0.60683  1.0000
  F   F149      1.0  0.37687  0.36284  0.10615  1.0000
  F   F150      1.0  0.37778  0.37291  0.60947  1.0000
  F   F151      1.0  0.36979  0.85890  0.12207  1.0000
  F   F152      1.0  0.37305  0.87556  0.59649  1.0000
  F   F153      1.0  0.62128  0.36961  0.12075  1.0000
  F   F154      1.0  0.62713  0.39356  0.58978  1.0000
  F   F155      1.0  0.62764  0.88851  0.09372  1.0000
  F   F156      1.0  0.62170  0.89048  0.59415  1.0000
  F   F157      1.0  0.87400  0.38373  0.09775  1.0000
  F   F158      1.0  0.87027  0.36967  0.61365  1.0000
  F   F159      1.0  0.87355  0.87661  0.10303  1.0000
  F   F160      1.0  0.87534  0.85796  0.62019  1.0000
  F   F161      1.0  0.19040  0.24318  0.36056  1.0000
  F   F162      1.0  0.17049  0.23427  0.89023  1.0000
  F   F163      1.0  0.17782  0.74272  0.37991  1.0000
  F   F164      1.0  0.19042  0.75372  0.84884  1.0000
  F   F165      1.0  0.43125  0.23852  0.36622  1.0000
  F   F166      1.0  0.43903  0.24002  0.85740  1.0000
  F   F167      1.0  0.43470  0.75649  0.35194  1.0000
  F   F168      1.0  0.43498  0.75430  0.84963  1.0000
  F   F169      1.0  0.69591  0.25609  0.33454  1.0000
  F   F170      1.0  0.67602  0.24698  0.87403  1.0000
  F   F171      1.0  0.67380  0.73680  0.38717  1.0000
  F   F172      1.0  0.68041  0.74981  0.87772  1.0000
  F   F173      1.0  0.94027  0.25147  0.35033  1.0000
  F   F174      1.0  0.93700  0.24493  0.85792  1.0000
  F   F175      1.0  0.94103  0.75035  0.34371  1.0000
  F   F176      1.0  0.93947  0.75477  0.84788  1.0000
  F   F177      1.0  0.12627  0.13559  0.39047  1.0000
  F   F178      1.0  0.12371  0.10890  0.91341  1.0000
  F   F179      1.0  0.12844  0.62466  0.39404  1.0000
  F   F180      1.0  0.12695  0.62133  0.89490  1.0000
  F   F181      1.0  0.37262  0.14015  0.37873  1.0000
  F   F182      1.0  0.37792  0.11653  0.89410  1.0000
  F   F183      1.0  0.37568  0.64321  0.37582  1.0000
  F   F184      1.0  0.37274  0.62548  0.90147  1.0000
  F   F185      1.0  0.62764  0.10842  0.39931  1.0000
  F   F186      1.0  0.62850  0.14350  0.87038  1.0000
  F   F187      1.0  0.62543  0.61717  0.39710  1.0000
  F   F188      1.0  0.63179  0.64264  0.87320  1.0000
  F   F189      1.0  0.87276  0.14363  0.38332  1.0000
  F   F190      1.0  0.87812  0.12510  0.90852  1.0000
  F   F191      1.0  0.87410  0.62791  0.39397  1.0000
  F   F192      1.0  0.87609  0.63332  0.89136  1.0000
  F   F193      1.0  0.00512  0.35618  0.07737  1.0000
  F   F194      1.0  0.00408  0.33993  0.60446  1.0000
  F   F195      1.0  0.00300  0.84971  0.09362  1.0000
  F   F196      1.0  0.01376  0.85876  0.55967  1.0000
  F   F197      1.0  0.25744  0.36537  0.07367  1.0000
  F   F198      1.0  0.25870  0.36842  0.57381  1.0000
  F   F199      1.0  0.25778  0.86445  0.06561  1.0000
  F   F200      1.0  0.25629  0.86432  0.56365  1.0000
  F   F201      1.0  0.50393  0.36827  0.07883  1.0000
  F   F202      1.0  0.50906  0.35140  0.58114  1.0000
  F   F203      1.0  0.50798  0.86163  0.07447  1.0000
  F   F204      1.0  0.51046  0.85861  0.56986  1.0000
  F   F205      1.0  0.75803  0.35453  0.08536  1.0000
  F   F206      1.0  0.75900  0.36444  0.57567  1.0000
  F   F207      1.0  0.75361  0.86551  0.08172  1.0000
  F   F208      1.0  0.75614  0.85625  0.58645  1.0000
  F   F209      1.0  0.07914  0.48435  0.14639  1.0000
  F   F210      1.0  0.06328  0.48129  0.68708  1.0000
  F   F211      1.0  0.06679  0.97218  0.18315  1.0000
  F   F212      1.0  0.07291  0.98417  0.66956  1.0000
  F   F213      1.0  0.32678  0.47104  0.17595  1.0000
  F   F214      1.0  0.31702  0.48307  0.68789  1.0000
  F   F215      1.0  0.31999  0.99374  0.15868  1.0000
  F   F216      1.0  0.31927  0.97613  0.68420  1.0000
  F   F217      1.0  0.56438  0.49582  0.17074  1.0000
  F   F218      1.0  0.56553  0.48848  0.67514  1.0000
  F   F219      1.0  0.56671  0.98388  0.17765  1.0000
  F   F220      1.0  0.56492  0.99731  0.66694  1.0000
  F   F221      1.0  0.81397  0.48329  0.19873  1.0000
  F   F222      1.0  0.81631  0.48536  0.68772  1.0000
  F   F223      1.0  0.81306  0.97961  0.19379  1.0000
  F   F224      1.0  0.82319  0.98568  0.67453  1.0000
  F   F225      1.0  0.24603  0.12656  0.42347  1.0000
  F   F226      1.0  0.24582  0.15488  0.89535  1.0000
  F   F227      1.0  0.24276  0.64258  0.42348  1.0000
  F   F228      1.0  0.24199  0.62131  0.93677  1.0000
  F   F229      1.0  0.49148  0.14611  0.42115  1.0000
  F   F230      1.0  0.49577  0.13364  0.93891  1.0000
  F   F231      1.0  0.49355  0.63876  0.42343  1.0000
  F   F232      1.0  0.49155  0.64033  0.94024  1.0000
  F   F233      1.0  0.74025  0.13367  0.43808  1.0000
  F   F234      1.0  0.74227  0.14267  0.92931  1.0000
  F   F235      1.0  0.74113  0.64067  0.41562  1.0000
  F   F236      1.0  0.74223  0.62832  0.93755  1.0000
  F   F237      1.0  0.99511  0.15360  0.42026  1.0000
  F   F238      1.0  0.99325  0.11783  0.93104  1.0000
  F   F239      1.0  0.99332  0.61791  0.43361  1.0000
  F   F240      1.0  0.98722  0.64185  0.93464  1.0000
  F   F241      1.0  0.19325  0.01174  0.31197  1.0000
  F   F242      1.0  0.18869  0.00981  0.81238  1.0000
  F   F243      1.0  0.18454  0.50718  0.32613  1.0000
  F   F244      1.0  0.18621  0.50347  0.81761  1.0000
  F   F245      1.0  0.42942  0.01433  0.31960  1.0000
  F   F246      1.0  0.43494  0.00863  0.82458  1.0000
  F   F247      1.0  0.42484  0.51773  0.34287  1.0000
  F   F248      1.0  0.43735  0.50496  0.83687  1.0000
  F   F249      1.0  0.69009  0.00873  0.31355  1.0000
  F   F250      1.0  0.67884  0.02307  0.82867  1.0000
  F   F251      1.0  0.68375  0.52240  0.30129  1.0000
  F   F252      1.0  0.68179  0.51458  0.82054  1.0000
  F   F253      1.0  0.92879  0.02134  0.32871  1.0000
  F   F254      1.0  0.93263  0.02067  0.81345  1.0000
  F   F255      1.0  0.93286  0.51280  0.32399  1.0000
  F   F256      1.0  0.93006  0.51529  0.83128  1.0000
  F   F257      1.0  0.99514  0.23473  0.01024  1.0000
  F   F258      1.0  0.00038  0.26824  0.49481  1.0000
  F   F259      1.0  0.99931  0.76302  0.99569  1.0000
  F   F260      1.0  0.99980  0.74607  0.48955  1.0000
  F   F261      1.0  0.25671  0.26554  0.98234  1.0000
  F   F262      1.0  0.24724  0.25329  0.50014  1.0000
  F   F263      1.0  0.24894  0.73805  0.01456  1.0000
  F   F264      1.0  0.25078  0.74456  0.50631  1.0000
  F   F265      1.0  0.50557  0.25586  0.99657  1.0000
  F   F266      1.0  0.49859  0.25185  0.49182  1.0000
  F   F267      1.0  0.49944  0.76631  0.98379  1.0000
  F   F268      1.0  0.50064  0.74359  0.50792  1.0000
  F   F269      1.0  0.75385  0.25981  0.99367  1.0000
  F   F270      1.0  0.74838  0.26445  0.48575  1.0000
  F   F271      1.0  0.75301  0.76204  0.99903  1.0000
  F   F272      1.0  0.75207  0.74446  0.50422  1.0000
  F   F273      1.0  0.12976  0.99445  0.24983  1.0000
  F   F274      1.0  0.11844  0.99803  0.76210  1.0000
  F   F275      1.0  0.12362  0.49030  0.25419  1.0000
  F   F276      1.0  0.11664  0.48214  0.76984  1.0000
  F   F277      1.0  0.37404  0.00690  0.25250  1.0000
  F   F278      1.0  0.38306  0.99945  0.72700  1.0000
  F   F279      1.0  0.37871  0.50267  0.24390  1.0000
  F   F280      1.0  0.38644  0.52043  0.73309  1.0000
  F   F281      1.0  0.62997  0.00975  0.24086  1.0000
  F   F282      1.0  0.63158  0.00840  0.73177  1.0000
  F   F283      1.0  0.62263  0.49884  0.24962  1.0000
  F   F284      1.0  0.62367  0.50650  0.76027  1.0000
  F   F285      1.0  0.87688  0.99432  0.24512  1.0000
  F   F286      1.0  0.87807  0.99950  0.73944  1.0000
  F   F287      1.0  0.88303  0.51047  0.23842  1.0000
  F   F288      1.0  0.87499  0.50081  0.75310  1.0000
  F   F289      1.0  0.04392  0.02359  0.01565  1.0000
  F   F290      1.0  0.04264  0.03284  0.51918  1.0000
  F   F291      1.0  0.04061  0.54416  0.02061  1.0000
  F   F292      1.0  0.04685  0.52425  0.52425  1.0000
  F   F293      1.0  0.28175  0.04295  0.02012  1.0000
  F   F294      1.0  0.29547  0.03614  0.52378  1.0000
  F   F295      1.0  0.29159  0.53034  0.02219  1.0000
  F   F296      1.0  0.29103  0.53349  0.52622  1.0000
  F   F297      1.0  0.54075  0.03560  0.01699  1.0000
  F   F298      1.0  0.54243  0.03958  0.51213  1.0000
  F   F299      1.0  0.54819  0.53320  0.01184  1.0000
  F   F300      1.0  0.54331  0.52500  0.51232  1.0000
  F   F301      1.0  0.79152  0.02439  0.02073  1.0000
  F   F302      1.0  0.79052  0.03089  0.54022  1.0000
  F   F303      1.0  0.79431  0.53635  0.03676  1.0000
  F   F304      1.0  0.77882  0.52782  0.54354  1.0000
  F   F305      1.0  0.23735  0.42127  0.21794  1.0000
  F   F306      1.0  0.23392  0.38584  0.74203  1.0000
  F   F307      1.0  0.23781  0.89147  0.22473  1.0000
  F   F308      1.0  0.23983  0.90404  0.71824  1.0000
  F   F309      1.0  0.47838  0.42068  0.22454  1.0000
  F   F310      1.0  0.48401  0.40738  0.73421  1.0000
  F   F311      1.0  0.48952  0.91076  0.22750  1.0000
  F   F312      1.0  0.48319  0.91857  0.71298  1.0000
  F   F313      1.0  0.73893  0.40373  0.23368  1.0000
  F   F314      1.0  0.73632  0.40434  0.73124  1.0000
  F   F315      1.0  0.73980  0.88390  0.24357  1.0000
  F   F316      1.0  0.72993  0.91773  0.73303  1.0000
  F   F317      1.0  0.98491  0.42090  0.21473  1.0000
  F   F318      1.0  0.98076  0.42093  0.72207  1.0000
  F   F319      1.0  0.98046  0.92401  0.22692  1.0000
  F   F320      1.0  0.98756  0.92384  0.72273  1.0000
  F   F321      1.0  0.21131  0.45956  0.48007  1.0000
  F   F322      1.0  0.20789  0.46712  0.96993  1.0000
  F   F323      1.0  0.20413  0.96792  0.48094  1.0000
  F   F324      1.0  0.20603  0.97428  0.97431  1.0000
  F   F325      1.0  0.46214  0.47391  0.47964  1.0000
  F   F326      1.0  0.44948  0.46721  0.99183  1.0000
  F   F327      1.0  0.45153  0.97182  0.48118  1.0000
  F   F328      1.0  0.44616  0.96434  0.98821  1.0000
  F   F329      1.0  0.71161  0.46659  0.46265  1.0000
  F   F330      1.0  0.71179  0.46422  0.97643  1.0000
  F   F331      1.0  0.70370  0.97960  0.47764  1.0000
  F   F332      1.0  0.71509  0.97605  0.96787  1.0000
  F   F333      1.0  0.95374  0.45582  0.49458  1.0000
  F   F334      1.0  0.95686  0.45899  0.98305  1.0000
  F   F335      1.0  0.96081  0.97288  0.46835  1.0000
  F   F336      1.0  0.95359  0.97013  0.98311  1.0000
  F   F337      1.0  0.01822  0.09351  0.27235  1.0000
  F   F338      1.0  0.01609  0.06455  0.78580  1.0000
  F   F339      1.0  0.01758  0.57064  0.28388  1.0000
  F   F340      1.0  0.01105  0.59698  0.77576  1.0000
  F   F341      1.0  0.26848  0.08837  0.26482  1.0000
  F   F342      1.0  0.26313  0.07900  0.77257  1.0000
  F   F343      1.0  0.26594  0.57922  0.26452  1.0000
  F   F344      1.0  0.26696  0.60625  0.76325  1.0000
  F   F345      1.0  0.51708  0.08007  0.28391  1.0000
  F   F346      1.0  0.51771  0.10308  0.76672  1.0000
  F   F347      1.0  0.51408  0.60370  0.26755  1.0000
  F   F348      1.0  0.51261  0.59837  0.78174  1.0000
  F   F349      1.0  0.76203  0.10831  0.25945  1.0000
  F   F350      1.0  0.76442  0.08584  0.76657  1.0000
  F   F351      1.0  0.76132  0.58053  0.26408  1.0000
  F   F352      1.0  0.76202  0.58704  0.77528  1.0000
  F   F353      1.0  0.09786  0.40303  0.46586  1.0000
  F   F354      1.0  0.09737  0.40737  0.96895  1.0000
  F   F355      1.0  0.10177  0.92267  0.46130  1.0000
  F   F356      1.0  0.09789  0.90060  0.96934  1.0000
  F   F357      1.0  0.35024  0.39971  0.46656  1.0000
  F   F358      1.0  0.35745  0.41117  0.94540  1.0000
  F   F359      1.0  0.35220  0.91845  0.44558  1.0000
  F   F360      1.0  0.34662  0.92235  0.95446  1.0000
  F   F361      1.0  0.59729  0.40528  0.46145  1.0000
  F   F362      1.0  0.59793  0.40666  0.97546  1.0000
  F   F363      1.0  0.60365  0.89702  0.45973  1.0000
  F   F364      1.0  0.60092  0.89968  0.95906  1.0000
  F   F365      1.0  0.84845  0.41486  0.45706  1.0000
  F   F366      1.0  0.84558  0.42408  0.94941  1.0000
  F   F367      1.0  0.85038  0.93349  0.47113  1.0000
  F   F368      1.0  0.84907  0.90837  0.96418  1.0000
  F   F369      1.0  0.04635  0.30283  0.28231  1.0000
  F   F370      1.0  0.04211  0.29708  0.79988  1.0000
  F   F371      1.0  0.03906  0.79166  0.28052  1.0000
  F   F372      1.0  0.05228  0.79506  0.77671  1.0000
  F   F373      1.0  0.29297  0.30176  0.28721  1.0000
  F   F374      1.0  0.30016  0.30141  0.78603  1.0000
  F   F375      1.0  0.29721  0.80406  0.29188  1.0000
  F   F376      1.0  0.29846  0.78859  0.79260  1.0000
  F   F377      1.0  0.53976  0.30581  0.28618  1.0000
  F   F378      1.0  0.54801  0.29558  0.78167  1.0000
  F   F379      1.0  0.55279  0.79560  0.27010  1.0000
  F   F380      1.0  0.54171  0.80128  0.77954  1.0000
  F   F381      1.0  0.80410  0.29152  0.29190  1.0000
  F   F382      1.0  0.79716  0.29342  0.79860  1.0000
  F   F383      1.0  0.81258  0.78585  0.29092  1.0000
  F   F384      1.0  0.78942  0.78849  0.78822  1.0000
