data_image0
_chemical_formula_structural       Hf96F384
_chemical_formula_sum              "Hf96 F384"
_cell_length_a       31.0601
_cell_length_b       15.5312
_cell_length_c       15.511
_cell_angle_alpha    63.342
_cell_angle_beta     63.342
_cell_angle_gamma    80.1625

_space_group_name_H-M_alt    "P 1"
_space_group_IT_number       1

loop_
  _space_group_symop_operation_xyz
  'x, y, z'

loop_
  _atom_site_type_symbol
  _atom_site_label
  _atom_site_symmetry_multiplicity
  _atom_site_fract_x
  _atom_site_fract_y
  _atom_site_fract_z
  _atom_site_occupancy
  Hf  Hf1       1.0  0.19427  0.10442  0.38041  1.0000
  Hf  Hf2       1.0  0.19709  0.10611  0.88110  1.0000
  Hf  Hf3       1.0  0.19364  0.61138  0.38014  1.0000
  Hf  Hf4       1.0  0.19467  0.59834  0.87863  1.0000
  Hf  Hf5       1.0  0.44652  0.09734  0.37611  1.0000
  Hf  Hf6       1.0  0.44919  0.09878  0.88447  1.0000
  Hf  Hf7       1.0  0.44494  0.59251  0.38289  1.0000
  Hf  Hf8       1.0  0.44580  0.60272  0.87458  1.0000
  Hf  Hf9       1.0  0.69860  0.10421  0.37128  1.0000
  Hf  Hf10      1.0  0.69906  0.10766  0.87574  1.0000
  Hf  Hf11      1.0  0.69156  0.60958  0.38016  1.0000
  Hf  Hf12      1.0  0.69944  0.62099  0.87033  1.0000
  Hf  Hf13      1.0  0.94874  0.10392  0.37614  1.0000
  Hf  Hf14      1.0  0.94834  0.12028  0.86062  1.0000
  Hf  Hf15      1.0  0.95070  0.61251  0.36429  1.0000
  Hf  Hf16      1.0  0.94479  0.61077  0.87620  1.0000
  Hf  Hf17      1.0  0.05280  0.39286  0.12544  1.0000
  Hf  Hf18      1.0  0.05700  0.38782  0.63214  1.0000
  Hf  Hf19      1.0  0.05365  0.88714  0.12814  1.0000
  Hf  Hf20      1.0  0.05167  0.89476  0.62466  1.0000
  Hf  Hf21      1.0  0.30081  0.39358  0.12186  1.0000
  Hf  Hf22      1.0  0.30899  0.38800  0.61212  1.0000
  Hf  Hf23      1.0  0.30224  0.88252  0.13336  1.0000
  Hf  Hf24      1.0  0.29859  0.88183  0.63487  1.0000
  Hf  Hf25      1.0  0.55235  0.39543  0.11953  1.0000
  Hf  Hf26      1.0  0.55581  0.38663  0.62183  1.0000
  Hf  Hf27      1.0  0.55099  0.89215  0.12652  1.0000
  Hf  Hf28      1.0  0.55480  0.90386  0.62301  1.0000
  Hf  Hf29      1.0  0.80179  0.39914  0.12174  1.0000
  Hf  Hf30      1.0  0.80546  0.40019  0.62235  1.0000
  Hf  Hf31      1.0  0.80013  0.89258  0.12698  1.0000
  Hf  Hf32      1.0  0.80526  0.90131  0.61287  1.0000
  Hf  Hf33      1.0  0.05311  0.19267  0.42083  1.0000
  Hf  Hf34      1.0  0.05427  0.17180  0.92262  1.0000
  Hf  Hf35      1.0  0.05476  0.67505  0.42184  1.0000
  Hf  Hf36      1.0  0.05337  0.68005  0.91855  1.0000
  Hf  Hf37      1.0  0.30813  0.18296  0.41558  1.0000
  Hf  Hf38      1.0  0.31206  0.17079  0.91689  1.0000
  Hf  Hf39      1.0  0.30204  0.66840  0.42407  1.0000
  Hf  Hf40      1.0  0.30800  0.68357  0.91631  1.0000
  Hf  Hf41      1.0  0.55790  0.18787  0.40668  1.0000
  Hf  Hf42      1.0  0.55789  0.17773  0.91240  1.0000
  Hf  Hf43      1.0  0.55362  0.68395  0.41935  1.0000
  Hf  Hf44      1.0  0.55615  0.68488  0.91705  1.0000
  Hf  Hf45      1.0  0.80975  0.19014  0.40264  1.0000
  Hf  Hf46      1.0  0.80709  0.18736  0.91517  1.0000
  Hf  Hf47      1.0  0.80471  0.68452  0.41483  1.0000
  Hf  Hf48      1.0  0.80346  0.68569  0.92802  1.0000
  Hf  Hf49      1.0  0.16146  0.39174  0.33196  1.0000
  Hf  Hf50      1.0  0.15792  0.38599  0.83441  1.0000
  Hf  Hf51      1.0  0.15908  0.88959  0.33480  1.0000
  Hf  Hf52      1.0  0.15475  0.88518  0.83901  1.0000
  Hf  Hf53      1.0  0.41121  0.38166  0.33440  1.0000
  Hf  Hf54      1.0  0.40803  0.38827  0.83435  1.0000
  Hf  Hf55      1.0  0.40913  0.88553  0.32803  1.0000
  Hf  Hf56      1.0  0.40996  0.88615  0.83361  1.0000
  Hf  Hf57      1.0  0.66049  0.38449  0.33918  1.0000
  Hf  Hf58      1.0  0.66048  0.39076  0.82972  1.0000
  Hf  Hf59      1.0  0.65997  0.89918  0.33024  1.0000
  Hf  Hf60      1.0  0.65878  0.89335  0.83113  1.0000
  Hf  Hf61      1.0  0.91264  0.38758  0.32765  1.0000
  Hf  Hf62      1.0  0.90620  0.38575  0.84419  1.0000
  Hf  Hf63      1.0  0.91177  0.89126  0.32238  1.0000
  Hf  Hf64      1.0  0.90892  0.89684  0.82648  1.0000
  Hf  Hf65      1.0  0.19424  0.32081  0.08125  1.0000
  Hf  Hf66      1.0  0.19427  0.30513  0.58654  1.0000
  Hf  Hf67      1.0  0.19204  0.81581  0.08923  1.0000
  Hf  Hf68      1.0  0.19462  0.80582  0.58531  1.0000
  Hf  Hf69      1.0  0.44404  0.31565  0.08288  1.0000
  Hf  Hf70      1.0  0.44542  0.31430  0.58593  1.0000
  Hf  Hf71      1.0  0.44387  0.80112  0.09257  1.0000
  Hf  Hf72      1.0  0.44639  0.81886  0.57936  1.0000
  Hf  Hf73      1.0  0.69311  0.31746  0.08828  1.0000
  Hf  Hf74      1.0  0.69760  0.31999  0.58293  1.0000
  Hf  Hf75      1.0  0.69218  0.82393  0.08525  1.0000
  Hf  Hf76      1.0  0.69328  0.81636  0.58642  1.0000
  Hf  Hf77      1.0  0.94402  0.30883  0.09052  1.0000
  Hf  Hf78      1.0  0.94621  0.33758  0.57617  1.0000
  Hf  Hf79      1.0  0.94383  0.82502  0.07781  1.0000
  Hf  Hf80      1.0  0.94188  0.81996  0.58848  1.0000
  Hf  Hf81      1.0  0.08901  0.11426  0.16776  1.0000
  Hf  Hf82      1.0  0.08935  0.10683  0.66621  1.0000
  Hf  Hf83      1.0  0.09426  0.61427  0.16295  1.0000
  Hf  Hf84      1.0  0.09133  0.61135  0.66733  1.0000
  Hf  Hf85      1.0  0.33981  0.11538  0.16604  1.0000
  Hf  Hf86      1.0  0.34183  0.10682  0.66190  1.0000
  Hf  Hf87      1.0  0.33856  0.60095  0.18342  1.0000
  Hf  Hf88      1.0  0.33857  0.60466  0.67122  1.0000
  Hf  Hf89      1.0  0.59173  0.11496  0.16391  1.0000
  Hf  Hf90      1.0  0.59661  0.11847  0.65571  1.0000
  Hf  Hf91      1.0  0.59376  0.61471  0.16535  1.0000
  Hf  Hf92      1.0  0.58854  0.61378  0.66719  1.0000
  Hf  Hf93      1.0  0.84382  0.11818  0.15864  1.0000
  Hf  Hf94      1.0  0.84160  0.11674  0.66061  1.0000
  Hf  Hf95      1.0  0.84011  0.61244  0.16758  1.0000
  Hf  Hf96      1.0  0.83940  0.61620  0.66861  1.0000
  F   F1        1.0  0.07988  0.13438  0.29678  1.0000
  F   F2        1.0  0.08236  0.12672  0.80379  1.0000
  F   F3        1.0  0.08188  0.65388  0.28841  1.0000
  F   F4        1.0  0.07256  0.61668  0.81167  1.0000
  F   F5        1.0  0.32585  0.10404  0.31291  1.0000
  F   F6        1.0  0.33611  0.12125  0.80341  1.0000
  F   F7        1.0  0.32876  0.62787  0.30818  1.0000
  F   F8        1.0  0.32811  0.64724  0.78807  1.0000
  F   F9        1.0  0.58860  0.13798  0.28487  1.0000
  F   F10       1.0  0.57319  0.12345  0.80685  1.0000
  F   F11       1.0  0.58207  0.64047  0.30013  1.0000
  F   F12       1.0  0.57920  0.62466  0.80594  1.0000
  F   F13       1.0  0.83333  0.14821  0.28867  1.0000
  F   F14       1.0  0.82553  0.13152  0.80207  1.0000
  F   F15       1.0  0.82862  0.62777  0.29736  1.0000
  F   F16       1.0  0.82596  0.62566  0.81038  1.0000
  F   F17       1.0  0.18526  0.33912  0.44998  1.0000
  F   F18       1.0  0.17830  0.33899  0.95626  1.0000
  F   F19       1.0  0.18447  0.83437  0.45648  1.0000
  F   F20       1.0  0.17875  0.82865  0.95385  1.0000
  F   F21       1.0  0.44471  0.33570  0.44761  1.0000
  F   F22       1.0  0.43184  0.33979  0.94697  1.0000
  F   F23       1.0  0.43519  0.85662  0.44263  1.0000
  F   F24       1.0  0.43093  0.83417  0.95285  1.0000
  F   F25       1.0  0.69540  0.34138  0.44206  1.0000
  F   F26       1.0  0.67814  0.34543  0.95189  1.0000
  F   F27       1.0  0.68822  0.83540  0.45054  1.0000
  F   F28       1.0  0.68665  0.85043  0.94039  1.0000
  F   F29       1.0  0.93858  0.33996  0.43942  1.0000
  F   F30       1.0  0.92845  0.33213  0.95808  1.0000
  F   F31       1.0  0.92727  0.83820  0.45744  1.0000
  F   F32       1.0  0.93702  0.85299  0.94144  1.0000
  F   F33       1.0  0.17073  0.39054  0.19240  1.0000
  F   F34       1.0  0.16806  0.34449  0.71170  1.0000
  F   F35       1.0  0.17249  0.87917  0.18870  1.0000
  F   F36       1.0  0.16444  0.86623  0.69367  1.0000
  F   F37       1.0  0.41439  0.36797  0.21001  1.0000
  F   F38       1.0  0.42204  0.37619  0.69360  1.0000
  F   F39       1.0  0.42065  0.86534  0.20037  1.0000
  F   F40       1.0  0.42389  0.88540  0.69344  1.0000
  F   F41       1.0  0.66861  0.37668  0.20400  1.0000
  F   F42       1.0  0.67191  0.38295  0.68805  1.0000
  F   F43       1.0  0.66489  0.86470  0.21041  1.0000
  F   F44       1.0  0.67146  0.88019  0.69181  1.0000
  F   F45       1.0  0.92568  0.38115  0.18902  1.0000
  F   F46       1.0  0.92778  0.38571  0.68528  1.0000
  F   F47       1.0  0.91243  0.87165  0.19954  1.0000
  F   F48       1.0  0.91648  0.86940  0.70010  1.0000
  F   F49       1.0  0.06236  0.15457  0.05579  1.0000
  F   F50       1.0  0.05200  0.16485  0.56162  1.0000
  F   F51       1.0  0.06797  0.66268  0.04404  1.0000
  F   F52       1.0  0.05999  0.65571  0.56000  1.0000
  F   F53       1.0  0.31080  0.15520  0.05751  1.0000
  F   F54       1.0  0.31114  0.14791  0.55263  1.0000
  F   F55       1.0  0.31809  0.65764  0.05044  1.0000
  F   F56       1.0  0.31291  0.65782  0.54833  1.0000
  F   F57       1.0  0.55604  0.15661  0.05820  1.0000
  F   F58       1.0  0.57117  0.16159  0.54990  1.0000
  F   F59       1.0  0.57056  0.65320  0.04765  1.0000
  F   F60       1.0  0.55729  0.64616  0.56235  1.0000
  F   F61       1.0  0.80824  0.15656  0.05316  1.0000
  F   F62       1.0  0.81699  0.16677  0.54616  1.0000
  F   F63       1.0  0.81539  0.66148  0.05479  1.0000
  F   F64       1.0  0.81351  0.66075  0.54961  1.0000
  F   F65       1.0  0.19217  0.20719  0.21293  1.0000
  F   F66       1.0  0.19778  0.18299  0.71336  1.0000
  F   F67       1.0  0.19956  0.70179  0.21508  1.0000
  F   F68       1.0  0.20638  0.68115  0.71988  1.0000
  F   F69       1.0  0.45701  0.20498  0.20231  1.0000
  F   F70       1.0  0.44600  0.20722  0.71276  1.0000
  F   F71       1.0  0.45456  0.69118  0.22380  1.0000
  F   F72       1.0  0.44637  0.70322  0.70823  1.0000
  F   F73       1.0  0.71199  0.20624  0.20675  1.0000
  F   F74       1.0  0.70189  0.20527  0.71583  1.0000
  F   F75       1.0  0.69796  0.69990  0.21157  1.0000
  F   F76       1.0  0.70643  0.71330  0.71589  1.0000
  F   F77       1.0  0.95803  0.20758  0.21082  1.0000
  F   F78       1.0  0.95097  0.21092  0.70270  1.0000
  F   F79       1.0  0.95391  0.70974  0.20178  1.0000
  F   F80       1.0  0.95782  0.70622  0.70887  1.0000
  F   F81       1.0  0.14678  0.08059  0.02901  1.0000
  F   F82       1.0  0.14065  0.08250  0.54579  1.0000
  F   F83       1.0  0.15153  0.59860  0.03433  1.0000
  F   F84       1.0  0.14689  0.60460  0.53791  1.0000
  F   F85       1.0  0.40204  0.09830  0.04442  1.0000
  F   F86       1.0  0.39920  0.07610  0.53474  1.0000
  F   F87       1.0  0.39838  0.58666  0.04093  1.0000
  F   F88       1.0  0.40056  0.58208  0.54438  1.0000
  F   F89       1.0  0.64259  0.10206  0.03532  1.0000
  F   F90       1.0  0.66031  0.09366  0.53417  1.0000
  F   F91       1.0  0.64835  0.59820  0.03839  1.0000
  F   F92       1.0  0.64929  0.61024  0.54996  1.0000
  F   F93       1.0  0.89173  0.10932  0.02410  1.0000
  F   F94       1.0  0.90067  0.10781  0.52942  1.0000
  F   F95       1.0  0.89725  0.59609  0.03918  1.0000
  F   F96       1.0  0.90152  0.59891  0.52608  1.0000
  F   F97       1.0  0.14903  0.19227  0.10850  1.0000
  F   F98       1.0  0.15054  0.18036  0.62508  1.0000
  F   F99       1.0  0.15149  0.68597  0.13600  1.0000
  F   F100      1.0  0.14567  0.69600  0.63651  1.0000
  F   F101      1.0  0.39604  0.19117  0.14870  1.0000
  F   F102      1.0  0.40188  0.19247  0.61745  1.0000
  F   F103      1.0  0.40573  0.68229  0.13071  1.0000
  F   F104      1.0  0.39978  0.69748  0.61880  1.0000
  F   F105      1.0  0.66443  0.19089  0.11490  1.0000
  F   F106      1.0  0.64856  0.20689  0.62537  1.0000
  F   F107      1.0  0.65145  0.70488  0.12304  1.0000
  F   F108      1.0  0.65037  0.71169  0.64630  1.0000
  F   F109      1.0  0.91016  0.18945  0.12809  1.0000
  F   F110      1.0  0.89314  0.21447  0.61860  1.0000
  F   F111      1.0  0.90332  0.71711  0.11334  1.0000
  F   F112      1.0  0.90222  0.69406  0.63721  1.0000
  F   F113      1.0  0.10013  0.30739  0.36997  1.0000
  F   F114      1.0  0.09848  0.31633  0.87827  1.0000
  F   F115      1.0  0.10074  0.79937  0.36194  1.0000
  F   F116      1.0  0.08570  0.81440  0.88575  1.0000
  F   F117      1.0  0.34353  0.29494  0.39403  1.0000
  F   F118      1.0  0.35126  0.29200  0.88816  1.0000
  F   F119      1.0  0.34702  0.77897  0.35986  1.0000
  F   F120      1.0  0.35369  0.79613  0.86512  1.0000
  F   F121      1.0  0.59127  0.30555  0.38402  1.0000
  F   F122      1.0  0.60278  0.30096  0.87860  1.0000
  F   F123      1.0  0.59135  0.80927  0.37373  1.0000
  F   F124      1.0  0.59965  0.80680  0.86833  1.0000
  F   F125      1.0  0.85690  0.31339  0.35508  1.0000
  F   F126      1.0  0.84691  0.31246  0.88110  1.0000
  F   F127      1.0  0.84672  0.80042  0.37496  1.0000
  F   F128      1.0  0.85075  0.81924  0.86538  1.0000
  F   F129      1.0  0.06677  0.25276  0.13371  1.0000
  F   F130      1.0  0.07089  0.25214  0.62991  1.0000
  F   F131      1.0  0.06929  0.76462  0.11864  1.0000
  F   F132      1.0  0.06302  0.74565  0.64822  1.0000
  F   F133      1.0  0.30873  0.24766  0.14918  1.0000
  F   F134      1.0  0.30972  0.24852  0.65246  1.0000
  F   F135      1.0  0.31697  0.74536  0.13586  1.0000
  F   F136      1.0  0.30873  0.73880  0.64696  1.0000
  F   F137      1.0  0.56476  0.24841  0.14334  1.0000
  F   F138      1.0  0.56962  0.25506  0.63462  1.0000
  F   F139      1.0  0.57173  0.75010  0.13487  1.0000
  F   F140      1.0  0.56945  0.75261  0.63041  1.0000
  F   F141      1.0  0.81827  0.25244  0.12865  1.0000
  F   F142      1.0  0.80946  0.25408  0.64067  1.0000
  F   F143      1.0  0.82219  0.75719  0.12552  1.0000
  F   F144      1.0  0.81632  0.74965  0.63204  1.0000
  F   F145      1.0  0.12269  0.35612  0.11948  1.0000
  F   F146      1.0  0.12424  0.35689  0.61297  1.0000
  F   F147      1.0  0.12295  0.86553  0.11491  1.0000
  F   F148      1.0  0.11805  0.87833  0.59781  1.0000
  F   F149      1.0  0.37135  0.37127  0.11668  1.0000
  F   F150      1.0  0.38135  0.37492  0.59750  1.0000
  F   F151      1.0  0.37138  0.84693  0.12799  1.0000
  F   F152      1.0  0.37494  0.86412  0.61321  1.0000
  F   F153      1.0  0.62043  0.34928  0.13123  1.0000
  F   F154      1.0  0.62781  0.36567  0.60940  1.0000
  F   F155      1.0  0.62129  0.87245  0.11433  1.0000
  F   F156      1.0  0.61956  0.88247  0.61091  1.0000
  F   F157      1.0  0.86939  0.35769  0.11830  1.0000
  F   F158      1.0  0.87392  0.39680  0.59949  1.0000
  F   F159      1.0  0.87250  0.89424  0.09301  1.0000
  F   F160      1.0  0.86907  0.86562  0.61265  1.0000
  F   F161      1.0  0.18278  0.25697  0.34830  1.0000
  F   F162      1.0  0.19330  0.24283  0.86077  1.0000
  F   F163      1.0  0.19072  0.75067  0.35261  1.0000
  F   F164      1.0  0.18386  0.74528  0.85278  1.0000
  F   F165      1.0  0.44367  0.23620  0.35736  1.0000
  F   F166      1.0  0.43240  0.23659  0.86222  1.0000
  F   F167      1.0  0.43007  0.74964  0.36051  1.0000
  F   F168      1.0  0.43662  0.74344  0.84488  1.0000
  F   F169      1.0  0.68115  0.24566  0.36097  1.0000
  F   F170      1.0  0.68860  0.25686  0.84963  1.0000
  F   F171      1.0  0.67923  0.75665  0.35772  1.0000
  F   F172      1.0  0.68086  0.75468  0.86005  1.0000
  F   F173      1.0  0.94685  0.25289  0.34128  1.0000
  F   F174      1.0  0.92819  0.24779  0.86173  1.0000
  F   F175      1.0  0.94050  0.75727  0.34988  1.0000
  F   F176      1.0  0.93591  0.75816  0.85248  1.0000
  F   F177      1.0  0.12509  0.13540  0.38641  1.0000
  F   F178      1.0  0.12596  0.14628  0.88594  1.0000
  F   F179      1.0  0.12617  0.61283  0.39803  1.0000
  F   F180      1.0  0.12493  0.63734  0.87841  1.0000
  F   F181      1.0  0.37810  0.14407  0.37616  1.0000
  F   F182      1.0  0.37530  0.10463  0.91727  1.0000
  F   F183      1.0  0.37588  0.60038  0.40638  1.0000
  F   F184      1.0  0.37325  0.61991  0.89911  1.0000
  F   F185      1.0  0.62949  0.11615  0.39718  1.0000
  F   F186      1.0  0.62409  0.12168  0.90202  1.0000
  F   F187      1.0  0.61920  0.62126  0.41742  1.0000
  F   F188      1.0  0.62516  0.63558  0.88349  1.0000
  F   F189      1.0  0.87826  0.13708  0.38752  1.0000
  F   F190      1.0  0.87404  0.15336  0.86955  1.0000
  F   F191      1.0  0.87665  0.64189  0.37259  1.0000
  F   F192      1.0  0.87559  0.63918  0.89152  1.0000
  F   F193      1.0  0.01118  0.36553  0.06848  1.0000
  F   F194      1.0  0.01333  0.36183  0.58325  1.0000
  F   F195      1.0  0.99795  0.85915  0.09764  1.0000
  F   F196      1.0  0.01267  0.85046  0.57433  1.0000
  F   F197      1.0  0.25285  0.36800  0.07825  1.0000
  F   F198      1.0  0.25641  0.35705  0.56544  1.0000
  F   F199      1.0  0.25280  0.84975  0.09567  1.0000
  F   F200      1.0  0.25684  0.85103  0.58071  1.0000
  F   F201      1.0  0.50023  0.36070  0.08687  1.0000
  F   F202      1.0  0.51114  0.35805  0.56706  1.0000
  F   F203      1.0  0.50752  0.86473  0.06533  1.0000
  F   F204      1.0  0.50785  0.86194  0.57722  1.0000
  F   F205      1.0  0.75461  0.36610  0.08079  1.0000
  F   F206      1.0  0.76329  0.36967  0.55716  1.0000
  F   F207      1.0  0.75368  0.86834  0.07480  1.0000
  F   F208      1.0  0.75828  0.87257  0.56866  1.0000
  F   F209      1.0  0.07514  0.47583  0.17253  1.0000
  F   F210      1.0  0.07104  0.48190  0.68350  1.0000
  F   F211      1.0  0.07226  0.98076  0.18346  1.0000
  F   F212      1.0  0.05594  0.99385  0.69040  1.0000
  F   F213      1.0  0.32078  0.48182  0.18728  1.0000
  F   F214      1.0  0.32172  0.48297  0.65834  1.0000
  F   F215      1.0  0.32052  0.98093  0.17624  1.0000
  F   F216      1.0  0.32329  0.98122  0.67199  1.0000
  F   F217      1.0  0.57034  0.47618  0.17659  1.0000
  F   F218      1.0  0.57568  0.49067  0.65275  1.0000
  F   F219      1.0  0.56777  0.98524  0.18557  1.0000
  F   F220      1.0  0.56989  0.98590  0.67353  1.0000
  F   F221      1.0  0.81724  0.49518  0.17091  1.0000
  F   F222      1.0  0.82014  0.49012  0.67765  1.0000
  F   F223      1.0  0.81960  0.99278  0.17526  1.0000
  F   F224      1.0  0.82402  0.98840  0.65956  1.0000
  F   F225      1.0  0.23525  0.13009  0.44233  1.0000
  F   F226      1.0  0.24473  0.13811  0.94047  1.0000
  F   F227      1.0  0.23671  0.62863  0.44782  1.0000
  F   F228      1.0  0.24526  0.63794  0.90471  1.0000
  F   F229      1.0  0.49653  0.13546  0.42077  1.0000
  F   F230      1.0  0.49233  0.13286  0.94196  1.0000
  F   F231      1.0  0.49097  0.65535  0.41143  1.0000
  F   F232      1.0  0.49367  0.64071  0.90940  1.0000
  F   F233      1.0  0.75245  0.14762  0.40282  1.0000
  F   F234      1.0  0.74067  0.13666  0.92899  1.0000
  F   F235      1.0  0.74001  0.64367  0.42682  1.0000
  F   F236      1.0  0.73496  0.64264  0.93760  1.0000
  F   F237      1.0  0.99210  0.12467  0.43598  1.0000
  F   F238      1.0  0.98739  0.14144  0.93215  1.0000
  F   F239      1.0  0.99230  0.63958  0.42276  1.0000
  F   F240      1.0  0.98490  0.63330  0.93670  1.0000
  F   F241      1.0  0.18220  0.00718  0.34357  1.0000
  F   F242      1.0  0.18165  0.00421  0.82503  1.0000
  F   F243      1.0  0.18947  0.51603  0.31870  1.0000
  F   F244      1.0  0.17841  0.50698  0.82016  1.0000
  F   F245      1.0  0.42603  0.01739  0.32465  1.0000
  F   F246      1.0  0.43073  0.01682  0.82489  1.0000
  F   F247      1.0  0.43662  0.50813  0.31811  1.0000
  F   F248      1.0  0.42700  0.51653  0.82279  1.0000
  F   F249      1.0  0.68801  0.01799  0.31859  1.0000
  F   F250      1.0  0.68279  0.01694  0.82975  1.0000
  F   F251      1.0  0.67977  0.50695  0.34014  1.0000
  F   F252      1.0  0.68383  0.52026  0.81943  1.0000
  F   F253      1.0  0.93313  0.01899  0.31622  1.0000
  F   F254      1.0  0.93033  0.02729  0.82249  1.0000
  F   F255      1.0  0.93143  0.51212  0.33472  1.0000
  F   F256      1.0  0.93165  0.52731  0.81994  1.0000
  F   F257      1.0  0.00229  0.26944  0.98053  1.0000
  F   F258      1.0  0.00138  0.26174  0.50007  1.0000
  F   F259      1.0  0.00109  0.75928  0.99286  1.0000
  F   F260      1.0  0.99918  0.75011  0.49709  1.0000
  F   F261      1.0  0.24912  0.26381  0.99329  1.0000
  F   F262      1.0  0.25640  0.24562  0.49996  1.0000
  F   F263      1.0  0.24960  0.74033  0.00590  1.0000
  F   F264      1.0  0.24836  0.74332  0.50720  1.0000
  F   F265      1.0  0.50008  0.26334  0.98729  1.0000
  F   F266      1.0  0.49964  0.22163  0.52820  1.0000
  F   F267      1.0  0.49965  0.74461  0.99437  1.0000
  F   F268      1.0  0.49613  0.75181  0.49427  1.0000
  F   F269      1.0  0.74970  0.26956  0.98860  1.0000
  F   F270      1.0  0.75125  0.23544  0.50077  1.0000
  F   F271      1.0  0.74597  0.74372  0.01027  1.0000
  F   F272      1.0  0.75055  0.75097  0.50067  1.0000
  F   F273      1.0  0.13303  0.00677  0.23074  1.0000
  F   F274      1.0  0.12366  0.99565  0.74671  1.0000
  F   F275      1.0  0.11619  0.51094  0.27556  1.0000
  F   F276      1.0  0.13382  0.51097  0.73315  1.0000
  F   F277      1.0  0.36572  0.97895  0.26223  1.0000
  F   F278      1.0  0.37393  0.99987  0.75777  1.0000
  F   F279      1.0  0.37824  0.49864  0.26609  1.0000
  F   F280      1.0  0.36614  0.49492  0.76859  1.0000
  F   F281      1.0  0.62798  0.01169  0.24697  1.0000
  F   F282      1.0  0.62752  0.00903  0.74650  1.0000
  F   F283      1.0  0.61478  0.49331  0.26842  1.0000
  F   F284      1.0  0.62129  0.50459  0.74628  1.0000
  F   F285      1.0  0.87820  0.01249  0.24907  1.0000
  F   F286      1.0  0.88470  0.01780  0.73797  1.0000
  F   F287      1.0  0.88644  0.51284  0.23043  1.0000
  F   F288      1.0  0.87652  0.49938  0.75029  1.0000
  F   F289      1.0  0.04312  0.02252  0.02496  1.0000
  F   F290      1.0  0.03736  0.03280  0.53257  1.0000
  F   F291      1.0  0.04291  0.53654  0.01680  1.0000
  F   F292      1.0  0.04713  0.52425  0.52130  1.0000
  F   F293      1.0  0.29273  0.02353  0.03463  1.0000
  F   F294      1.0  0.29842  0.01322  0.52075  1.0000
  F   F295      1.0  0.28561  0.52941  0.03136  1.0000
  F   F296      1.0  0.29323  0.51741  0.52501  1.0000
  F   F297      1.0  0.54268  0.02521  0.01763  1.0000
  F   F298      1.0  0.54465  0.03871  0.52889  1.0000
  F   F299      1.0  0.54078  0.53446  0.02724  1.0000
  F   F300      1.0  0.54307  0.53099  0.51199  1.0000
  F   F301      1.0  0.79397  0.03300  0.01472  1.0000
  F   F302      1.0  0.79101  0.04426  0.52534  1.0000
  F   F303      1.0  0.78652  0.54151  0.02382  1.0000
  F   F304      1.0  0.79852  0.53791  0.51635  1.0000
  F   F305      1.0  0.23850  0.40825  0.24094  1.0000
  F   F306      1.0  0.23459  0.40108  0.71626  1.0000
  F   F307      1.0  0.23308  0.91656  0.23351  1.0000
  F   F308      1.0  0.23026  0.91804  0.72307  1.0000
  F   F309      1.0  0.48457  0.40364  0.22428  1.0000
  F   F310      1.0  0.48628  0.42420  0.71290  1.0000
  F   F311      1.0  0.48450  0.91722  0.21574  1.0000
  F   F312      1.0  0.48317  0.91401  0.73561  1.0000
  F   F313      1.0  0.73504  0.41774  0.22712  1.0000
  F   F314      1.0  0.74185  0.41193  0.73034  1.0000
  F   F315      1.0  0.73075  0.91763  0.23291  1.0000
  F   F316      1.0  0.73707  0.91798  0.72468  1.0000
  F   F317      1.0  0.98485  0.44082  0.21542  1.0000
  F   F318      1.0  0.98814  0.40880  0.74047  1.0000
  F   F319      1.0  0.98128  0.93247  0.21376  1.0000
  F   F320      1.0  0.97895  0.91297  0.72107  1.0000
  F   F321      1.0  0.19934  0.47667  0.49226  1.0000
  F   F322      1.0  0.20225  0.47126  0.97875  1.0000
  F   F323      1.0  0.21036  0.96403  0.48367  1.0000
  F   F324      1.0  0.21725  0.95310  0.97122  1.0000
  F   F325      1.0  0.46556  0.45944  0.46829  1.0000
  F   F326      1.0  0.46298  0.46776  0.96819  1.0000
  F   F327      1.0  0.46067  0.97250  0.48342  1.0000
  F   F328      1.0  0.44991  0.95974  0.98965  1.0000
  F   F329      1.0  0.70531  0.49056  0.47500  1.0000
  F   F330      1.0  0.69939  0.47491  0.98246  1.0000
  F   F331      1.0  0.70747  0.97197  0.47522  1.0000
  F   F332      1.0  0.70127  0.96963  0.98843  1.0000
  F   F333      1.0  0.96075  0.47468  0.46721  1.0000
  F   F334      1.0  0.94630  0.46236  0.99036  1.0000
  F   F335      1.0  0.95428  0.95839  0.48353  1.0000
  F   F336      1.0  0.95772  0.97387  0.97419  1.0000
  F   F337      1.0  0.01369  0.09069  0.26636  1.0000
  F   F338      1.0  0.01300  0.09995  0.77148  1.0000
  F   F339      1.0  0.02140  0.59279  0.25622  1.0000
  F   F340      1.0  0.01434  0.58090  0.76767  1.0000
  F   F341      1.0  0.25914  0.10668  0.26781  1.0000
  F   F342      1.0  0.26649  0.08405  0.78210  1.0000
  F   F343      1.0  0.26351  0.59783  0.27755  1.0000
  F   F344      1.0  0.27114  0.57241  0.76174  1.0000
  F   F345      1.0  0.51683  0.08344  0.26431  1.0000
  F   F346      1.0  0.50917  0.10275  0.77050  1.0000
  F   F347      1.0  0.52004  0.57649  0.27554  1.0000
  F   F348      1.0  0.51340  0.58832  0.76400  1.0000
  F   F349      1.0  0.77069  0.08545  0.27102  1.0000
  F   F350      1.0  0.76666  0.07952  0.77862  1.0000
  F   F351      1.0  0.76541  0.58004  0.27649  1.0000
  F   F352      1.0  0.76681  0.59087  0.76837  1.0000
  F   F353      1.0  0.10111  0.40829  0.45594  1.0000
  F   F354      1.0  0.09817  0.42259  0.96781  1.0000
  F   F355      1.0  0.09999  0.91200  0.45121  1.0000
  F   F356      1.0  0.09946  0.91342  0.96348  1.0000
  F   F357      1.0  0.34982  0.39080  0.46018  1.0000
  F   F358      1.0  0.34503  0.39653  0.97255  1.0000
  F   F359      1.0  0.34990  0.87047  0.45753  1.0000
  F   F360      1.0  0.34960  0.88456  0.97324  1.0000
  F   F361      1.0  0.60395  0.40971  0.46384  1.0000
  F   F362      1.0  0.59760  0.40634  0.97431  1.0000
  F   F363      1.0  0.60483  0.92166  0.45818  1.0000
  F   F364      1.0  0.60246  0.91149  0.95367  1.0000
  F   F365      1.0  0.85673  0.40827  0.44876  1.0000
  F   F366      1.0  0.84895  0.42603  0.95348  1.0000
  F   F367      1.0  0.84493  0.91489  0.46485  1.0000
  F   F368      1.0  0.84949  0.92575  0.95046  1.0000
  F   F369      1.0  0.03674  0.29378  0.29418  1.0000
  F   F370      1.0  0.05223  0.29084  0.78649  1.0000
  F   F371      1.0  0.03924  0.79837  0.28608  1.0000
  F   F372      1.0  0.05466  0.79714  0.78213  1.0000
  F   F373      1.0  0.30022  0.28883  0.28871  1.0000
  F   F374      1.0  0.31077  0.29389  0.77553  1.0000
  F   F375      1.0  0.28476  0.78797  0.29064  1.0000
  F   F376      1.0  0.29470  0.80581  0.78975  1.0000
  F   F377      1.0  0.53747  0.29327  0.29893  1.0000
  F   F378      1.0  0.54652  0.28737  0.79105  1.0000
  F   F379      1.0  0.53986  0.80078  0.29249  1.0000
  F   F380      1.0  0.54634  0.79304  0.78944  1.0000
  F   F381      1.0  0.79421  0.31475  0.27992  1.0000
  F   F382      1.0  0.80510  0.30234  0.78499  1.0000
  F   F383      1.0  0.79411  0.80588  0.29119  1.0000
  F   F384      1.0  0.79532  0.79608  0.79934  1.0000
