data_image0
_chemical_formula_structural       Hf96F384
_chemical_formula_sum              "Hf96 F384"
_cell_length_a       31.0449
_cell_length_b       15.5151
_cell_length_c       15.51
_cell_angle_alpha    63.342
_cell_angle_beta     63.342
_cell_angle_gamma    80.1625

_space_group_name_H-M_alt    "P 1"
_space_group_IT_number       1

loop_
  _space_group_symop_operation_xyz
  'x, y, z'

loop_
  _atom_site_type_symbol
  _atom_site_label
  _atom_site_symmetry_multiplicity
  _atom_site_fract_x
  _atom_site_fract_y
  _atom_site_fract_z
  _atom_site_occupancy
  Hf  Hf1       1.0  0.19690  0.09861  0.38007  1.0000
  Hf  Hf2       1.0  0.19621  0.10854  0.87618  1.0000
  Hf  Hf3       1.0  0.19841  0.61505  0.36971  1.0000
  Hf  Hf4       1.0  0.20034  0.60625  0.87424  1.0000
  Hf  Hf5       1.0  0.44713  0.10899  0.38126  1.0000
  Hf  Hf6       1.0  0.44557  0.09690  0.87702  1.0000
  Hf  Hf7       1.0  0.44536  0.59679  0.38388  1.0000
  Hf  Hf8       1.0  0.45030  0.60615  0.86454  1.0000
  Hf  Hf9       1.0  0.70063  0.11503  0.35775  1.0000
  Hf  Hf10      1.0  0.69796  0.10553  0.87608  1.0000
  Hf  Hf11      1.0  0.69420  0.61239  0.37666  1.0000
  Hf  Hf12      1.0  0.69622  0.60392  0.87537  1.0000
  Hf  Hf13      1.0  0.94384  0.10353  0.38280  1.0000
  Hf  Hf14      1.0  0.94454  0.11197  0.86923  1.0000
  Hf  Hf15      1.0  0.94691  0.60987  0.37490  1.0000
  Hf  Hf16      1.0  0.94397  0.60515  0.88236  1.0000
  Hf  Hf17      1.0  0.05464  0.39342  0.12618  1.0000
  Hf  Hf18      1.0  0.05384  0.38058  0.63578  1.0000
  Hf  Hf19      1.0  0.05583  0.89636  0.11396  1.0000
  Hf  Hf20      1.0  0.05040  0.89354  0.62343  1.0000
  Hf  Hf21      1.0  0.30141  0.38620  0.12871  1.0000
  Hf  Hf22      1.0  0.30593  0.39386  0.62195  1.0000
  Hf  Hf23      1.0  0.30196  0.89269  0.13409  1.0000
  Hf  Hf24      1.0  0.30034  0.88687  0.62562  1.0000
  Hf  Hf25      1.0  0.55334  0.39429  0.12291  1.0000
  Hf  Hf26      1.0  0.55868  0.39569  0.62074  1.0000
  Hf  Hf27      1.0  0.55559  0.88955  0.12740  1.0000
  Hf  Hf28      1.0  0.55071  0.89167  0.62464  1.0000
  Hf  Hf29      1.0  0.80843  0.40502  0.11232  1.0000
  Hf  Hf30      1.0  0.80497  0.39348  0.62486  1.0000
  Hf  Hf31      1.0  0.80013  0.90381  0.12112  1.0000
  Hf  Hf32      1.0  0.80745  0.89724  0.61520  1.0000
  Hf  Hf33      1.0  0.05466  0.17471  0.42630  1.0000
  Hf  Hf34      1.0  0.05588  0.18334  0.92140  1.0000
  Hf  Hf35      1.0  0.05545  0.67486  0.42435  1.0000
  Hf  Hf36      1.0  0.05506  0.67636  0.92779  1.0000
  Hf  Hf37      1.0  0.30698  0.18843  0.41281  1.0000
  Hf  Hf38      1.0  0.30864  0.17982  0.91394  1.0000
  Hf  Hf39      1.0  0.30609  0.67773  0.41839  1.0000
  Hf  Hf40      1.0  0.30458  0.68629  0.91292  1.0000
  Hf  Hf41      1.0  0.56084  0.18990  0.41267  1.0000
  Hf  Hf42      1.0  0.55983  0.17340  0.90909  1.0000
  Hf  Hf43      1.0  0.55627  0.68356  0.41607  1.0000
  Hf  Hf44      1.0  0.55558  0.69063  0.91320  1.0000
  Hf  Hf45      1.0  0.80606  0.18953  0.41624  1.0000
  Hf  Hf46      1.0  0.80574  0.18809  0.91490  1.0000
  Hf  Hf47      1.0  0.80560  0.69122  0.41168  1.0000
  Hf  Hf48      1.0  0.80786  0.68422  0.90737  1.0000
  Hf  Hf49      1.0  0.15880  0.39502  0.32775  1.0000
  Hf  Hf50      1.0  0.15746  0.38947  0.83505  1.0000
  Hf  Hf51      1.0  0.15796  0.89040  0.34062  1.0000
  Hf  Hf52      1.0  0.16127  0.89058  0.83926  1.0000
  Hf  Hf53      1.0  0.40741  0.38580  0.33051  1.0000
  Hf  Hf54      1.0  0.41184  0.38421  0.83336  1.0000
  Hf  Hf55      1.0  0.41153  0.89181  0.32938  1.0000
  Hf  Hf56      1.0  0.41050  0.88220  0.83373  1.0000
  Hf  Hf57      1.0  0.66006  0.39785  0.32887  1.0000
  Hf  Hf58      1.0  0.65851  0.38759  0.83774  1.0000
  Hf  Hf59      1.0  0.65495  0.88682  0.33635  1.0000
  Hf  Hf60      1.0  0.65586  0.88416  0.83387  1.0000
  Hf  Hf61      1.0  0.90732  0.38926  0.33800  1.0000
  Hf  Hf62      1.0  0.91128  0.38316  0.83365  1.0000
  Hf  Hf63      1.0  0.91119  0.89241  0.32716  1.0000
  Hf  Hf64      1.0  0.90653  0.88970  0.83546  1.0000
  Hf  Hf65      1.0  0.19372  0.31311  0.08628  1.0000
  Hf  Hf66      1.0  0.19533  0.32140  0.57905  1.0000
  Hf  Hf67      1.0  0.19205  0.81322  0.09429  1.0000
  Hf  Hf68      1.0  0.18861  0.80696  0.59205  1.0000
  Hf  Hf69      1.0  0.44542  0.31239  0.08119  1.0000
  Hf  Hf70      1.0  0.44806  0.31362  0.58114  1.0000
  Hf  Hf71      1.0  0.43884  0.81336  0.09125  1.0000
  Hf  Hf72      1.0  0.44558  0.82333  0.57391  1.0000
  Hf  Hf73      1.0  0.69150  0.32111  0.09102  1.0000
  Hf  Hf74      1.0  0.69733  0.32699  0.57927  1.0000
  Hf  Hf75      1.0  0.69213  0.81868  0.08179  1.0000
  Hf  Hf76      1.0  0.69357  0.82198  0.57501  1.0000
  Hf  Hf77      1.0  0.94450  0.31791  0.08342  1.0000
  Hf  Hf78      1.0  0.94430  0.31839  0.58324  1.0000
  Hf  Hf79      1.0  0.94330  0.82217  0.07989  1.0000
  Hf  Hf80      1.0  0.94525  0.81368  0.58423  1.0000
  Hf  Hf81      1.0  0.08861  0.11115  0.16940  1.0000
  Hf  Hf82      1.0  0.08844  0.10374  0.67265  1.0000
  Hf  Hf83      1.0  0.09074  0.61425  0.16780  1.0000
  Hf  Hf84      1.0  0.08448  0.60858  0.67417  1.0000
  Hf  Hf85      1.0  0.34482  0.11392  0.16406  1.0000
  Hf  Hf86      1.0  0.33882  0.11042  0.67244  1.0000
  Hf  Hf87      1.0  0.33870  0.61034  0.16564  1.0000
  Hf  Hf88      1.0  0.34543  0.60489  0.66901  1.0000
  Hf  Hf89      1.0  0.59121  0.11622  0.16217  1.0000
  Hf  Hf90      1.0  0.58707  0.10616  0.67042  1.0000
  Hf  Hf91      1.0  0.59035  0.61763  0.16219  1.0000
  Hf  Hf92      1.0  0.58929  0.61147  0.66584  1.0000
  Hf  Hf93      1.0  0.84055  0.11786  0.16292  1.0000
  Hf  Hf94      1.0  0.84200  0.11823  0.66700  1.0000
  Hf  Hf95      1.0  0.83658  0.61449  0.17204  1.0000
  Hf  Hf96      1.0  0.83945  0.60788  0.66782  1.0000
  F   F1        1.0  0.07628  0.12563  0.30534  1.0000
  F   F2        1.0  0.07486  0.12631  0.80378  1.0000
  F   F3        1.0  0.08195  0.61755  0.31571  1.0000
  F   F4        1.0  0.07553  0.61871  0.80899  1.0000
  F   F5        1.0  0.33764  0.14429  0.28652  1.0000
  F   F6        1.0  0.32709  0.12359  0.80595  1.0000
  F   F7        1.0  0.32879  0.63089  0.30791  1.0000
  F   F8        1.0  0.32657  0.62170  0.80602  1.0000
  F   F9        1.0  0.58381  0.14943  0.29015  1.0000
  F   F10       1.0  0.57931  0.10668  0.81251  1.0000
  F   F11       1.0  0.58041  0.64243  0.29118  1.0000
  F   F12       1.0  0.58535  0.64046  0.78960  1.0000
  F   F13       1.0  0.82971  0.14252  0.29704  1.0000
  F   F14       1.0  0.83510  0.14323  0.79541  1.0000
  F   F15       1.0  0.82272  0.61946  0.31689  1.0000
  F   F16       1.0  0.83180  0.62165  0.79747  1.0000
  F   F17       1.0  0.18246  0.32706  0.45439  1.0000
  F   F18       1.0  0.19714  0.35160  0.93365  1.0000
  F   F19       1.0  0.19000  0.84214  0.44574  1.0000
  F   F20       1.0  0.18137  0.82207  0.96278  1.0000
  F   F21       1.0  0.43531  0.32359  0.44904  1.0000
  F   F22       1.0  0.44474  0.34085  0.93629  1.0000
  F   F23       1.0  0.43717  0.85703  0.44119  1.0000
  F   F24       1.0  0.43347  0.84681  0.95352  1.0000
  F   F25       1.0  0.67564  0.33393  0.45773  1.0000
  F   F26       1.0  0.68978  0.33966  0.95637  1.0000
  F   F27       1.0  0.68954  0.86337  0.42681  1.0000
  F   F28       1.0  0.68757  0.84818  0.93658  1.0000
  F   F29       1.0  0.93948  0.35048  0.44170  1.0000
  F   F30       1.0  0.94281  0.33497  0.94073  1.0000
  F   F31       1.0  0.93750  0.83937  0.44574  1.0000
  F   F32       1.0  0.93198  0.84171  0.94428  1.0000
  F   F33       1.0  0.16652  0.35927  0.20785  1.0000
  F   F34       1.0  0.17227  0.36741  0.70192  1.0000
  F   F35       1.0  0.16415  0.84725  0.22199  1.0000
  F   F36       1.0  0.17698  0.85065  0.69680  1.0000
  F   F37       1.0  0.41426  0.36166  0.20393  1.0000
  F   F38       1.0  0.43186  0.36209  0.69953  1.0000
  F   F39       1.0  0.42381  0.87870  0.19054  1.0000
  F   F40       1.0  0.42300  0.87672  0.68945  1.0000
  F   F41       1.0  0.66324  0.39516  0.19255  1.0000
  F   F42       1.0  0.67383  0.38079  0.70084  1.0000
  F   F43       1.0  0.66791  0.86852  0.20176  1.0000
  F   F44       1.0  0.67237  0.87859  0.69197  1.0000
  F   F45       1.0  0.91679  0.37775  0.19698  1.0000
  F   F46       1.0  0.92119  0.36735  0.69605  1.0000
  F   F47       1.0  0.92380  0.87944  0.18607  1.0000
  F   F48       1.0  0.92565  0.88038  0.69285  1.0000
  F   F49       1.0  0.06735  0.15973  0.04969  1.0000
  F   F50       1.0  0.06293  0.15019  0.56189  1.0000
  F   F51       1.0  0.06135  0.66847  0.05648  1.0000
  F   F52       1.0  0.05115  0.63988  0.57192  1.0000
  F   F53       1.0  0.31770  0.14140  0.04796  1.0000
  F   F54       1.0  0.30440  0.15583  0.57290  1.0000
  F   F55       1.0  0.31115  0.66391  0.04969  1.0000
  F   F56       1.0  0.32257  0.65863  0.55149  1.0000
  F   F57       1.0  0.56779  0.15617  0.05118  1.0000
  F   F58       1.0  0.55876  0.16657  0.56321  1.0000
  F   F59       1.0  0.56373  0.65823  0.04855  1.0000
  F   F60       1.0  0.56322  0.67151  0.54572  1.0000
  F   F61       1.0  0.80771  0.15965  0.05690  1.0000
  F   F62       1.0  0.81951  0.16727  0.54806  1.0000
  F   F63       1.0  0.82009  0.66693  0.04477  1.0000
  F   F64       1.0  0.81112  0.66730  0.54909  1.0000
  F   F65       1.0  0.19694  0.19750  0.21746  1.0000
  F   F66       1.0  0.21015  0.20686  0.72451  1.0000
  F   F67       1.0  0.21259  0.69448  0.21256  1.0000
  F   F68       1.0  0.20590  0.68666  0.70332  1.0000
  F   F69       1.0  0.46366  0.20922  0.18235  1.0000
  F   F70       1.0  0.45926  0.19830  0.70386  1.0000
  F   F71       1.0  0.44463  0.70163  0.22003  1.0000
  F   F72       1.0  0.45325  0.71274  0.70320  1.0000
  F   F73       1.0  0.69619  0.20725  0.21390  1.0000
  F   F74       1.0  0.71095  0.20883  0.71582  1.0000
  F   F75       1.0  0.70120  0.70515  0.21486  1.0000
  F   F76       1.0  0.69799  0.70308  0.69851  1.0000
  F   F77       1.0  0.94928  0.20798  0.21974  1.0000
  F   F78       1.0  0.94697  0.19804  0.71434  1.0000
  F   F79       1.0  0.94796  0.70606  0.21117  1.0000
  F   F80       1.0  0.94595  0.69629  0.71095  1.0000
  F   F81       1.0  0.15290  0.07639  0.04083  1.0000
  F   F82       1.0  0.14755  0.08963  0.54272  1.0000
  F   F83       1.0  0.14383  0.60932  0.03549  1.0000
  F   F84       1.0  0.14219  0.60257  0.54286  1.0000
  F   F85       1.0  0.39646  0.06896  0.03308  1.0000
  F   F86       1.0  0.40214  0.09046  0.54101  1.0000
  F   F87       1.0  0.39309  0.58996  0.03977  1.0000
  F   F88       1.0  0.40113  0.57255  0.55531  1.0000
  F   F89       1.0  0.65489  0.09877  0.04034  1.0000
  F   F90       1.0  0.64855  0.12649  0.54573  1.0000
  F   F91       1.0  0.64962  0.59322  0.04197  1.0000
  F   F92       1.0  0.64910  0.57435  0.54170  1.0000
  F   F93       1.0  0.89832  0.08541  0.03164  1.0000
  F   F94       1.0  0.89721  0.07098  0.55156  1.0000
  F   F95       1.0  0.90259  0.57458  0.05132  1.0000
  F   F96       1.0  0.90294  0.59085  0.53458  1.0000
  F   F97       1.0  0.15382  0.19315  0.11563  1.0000
  F   F98       1.0  0.16005  0.19440  0.64274  1.0000
  F   F99       1.0  0.14907  0.69540  0.14590  1.0000
  F   F100      1.0  0.14478  0.69614  0.64080  1.0000
  F   F101      1.0  0.40767  0.18827  0.11498  1.0000
  F   F102      1.0  0.39708  0.19201  0.63696  1.0000
  F   F103      1.0  0.40271  0.69812  0.11695  1.0000
  F   F104      1.0  0.40398  0.68866  0.62956  1.0000
  F   F105      1.0  0.64566  0.20588  0.11968  1.0000
  F   F106      1.0  0.65428  0.20084  0.64828  1.0000
  F   F107      1.0  0.65177  0.70232  0.12284  1.0000
  F   F108      1.0  0.64738  0.71040  0.59060  1.0000
  F   F109      1.0  0.90576  0.19482  0.11465  1.0000
  F   F110      1.0  0.90231  0.19955  0.60625  1.0000
  F   F111      1.0  0.89351  0.71019  0.12260  1.0000
  F   F112      1.0  0.89711  0.70223  0.62097  1.0000
  F   F113      1.0  0.10309  0.29145  0.38590  1.0000
  F   F114      1.0  0.09663  0.30001  0.85796  1.0000
  F   F115      1.0  0.09842  0.78938  0.40886  1.0000
  F   F116      1.0  0.10861  0.79257  0.87963  1.0000
  F   F117      1.0  0.34560  0.30333  0.38013  1.0000
  F   F118      1.0  0.35424  0.28954  0.87339  1.0000
  F   F119      1.0  0.35017  0.79542  0.36783  1.0000
  F   F120      1.0  0.35245  0.79351  0.85833  1.0000
  F   F121      1.0  0.61081  0.30492  0.35951  1.0000
  F   F122      1.0  0.59961  0.29944  0.87014  1.0000
  F   F123      1.0  0.59673  0.80581  0.36144  1.0000
  F   F124      1.0  0.59843  0.79225  0.87948  1.0000
  F   F125      1.0  0.84870  0.30620  0.37089  1.0000
  F   F126      1.0  0.85268  0.29764  0.89013  1.0000
  F   F127      1.0  0.84685  0.82415  0.36432  1.0000
  F   F128      1.0  0.84782  0.81507  0.85975  1.0000
  F   F129      1.0  0.07574  0.25947  0.12375  1.0000
  F   F130      1.0  0.07765  0.25492  0.62018  1.0000
  F   F131      1.0  0.07257  0.75674  0.14003  1.0000
  F   F132      1.0  0.05755  0.74458  0.65307  1.0000
  F   F133      1.0  0.31851  0.25009  0.11733  1.0000
  F   F134      1.0  0.30886  0.25299  0.65244  1.0000
  F   F135      1.0  0.31807  0.73996  0.14334  1.0000
  F   F136      1.0  0.31520  0.74796  0.65360  1.0000
  F   F137      1.0  0.55594  0.25885  0.14517  1.0000
  F   F138      1.0  0.57284  0.24453  0.64173  1.0000
  F   F139      1.0  0.55862  0.75445  0.13929  1.0000
  F   F140      1.0  0.55026  0.74765  0.66221  1.0000
  F   F141      1.0  0.81605  0.25991  0.14440  1.0000
  F   F142      1.0  0.81047  0.24910  0.65419  1.0000
  F   F143      1.0  0.80877  0.76209  0.14434  1.0000
  F   F144      1.0  0.81935  0.75725  0.62938  1.0000
  F   F145      1.0  0.12359  0.36696  0.11094  1.0000
  F   F146      1.0  0.12496  0.37499  0.61754  1.0000
  F   F147      1.0  0.12905  0.88501  0.10054  1.0000
  F   F148      1.0  0.12059  0.86509  0.61095  1.0000
  F   F149      1.0  0.37123  0.35396  0.11692  1.0000
  F   F150      1.0  0.37852  0.38332  0.60088  1.0000
  F   F151      1.0  0.36980  0.86050  0.12242  1.0000
  F   F152      1.0  0.37345  0.88093  0.59692  1.0000
  F   F153      1.0  0.62068  0.37960  0.11032  1.0000
  F   F154      1.0  0.62793  0.39045  0.60129  1.0000
  F   F155      1.0  0.62724  0.88623  0.08151  1.0000
  F   F156      1.0  0.62141  0.86602  0.61654  1.0000
  F   F157      1.0  0.87726  0.37516  0.10161  1.0000
  F   F158      1.0  0.87516  0.34864  0.61697  1.0000
  F   F159      1.0  0.87224  0.87312  0.11067  1.0000
  F   F160      1.0  0.87739  0.87270  0.60593  1.0000
  F   F161      1.0  0.18427  0.23018  0.36838  1.0000
  F   F162      1.0  0.17012  0.24316  0.89163  1.0000
  F   F163      1.0  0.18944  0.74771  0.35768  1.0000
  F   F164      1.0  0.19517  0.74253  0.84924  1.0000
  F   F165      1.0  0.44180  0.25360  0.34154  1.0000
  F   F166      1.0  0.42903  0.23259  0.87529  1.0000
  F   F167      1.0  0.43567  0.74140  0.36630  1.0000
  F   F168      1.0  0.43365  0.74302  0.85774  1.0000
  F   F169      1.0  0.69855  0.25603  0.33437  1.0000
  F   F170      1.0  0.68056  0.25437  0.85869  1.0000
  F   F171      1.0  0.66909  0.73998  0.38418  1.0000
  F   F172      1.0  0.68348  0.74754  0.86676  1.0000
  F   F173      1.0  0.92944  0.24573  0.37619  1.0000
  F   F174      1.0  0.93974  0.25314  0.83755  1.0000
  F   F175      1.0  0.92420  0.74364  0.37430  1.0000
  F   F176      1.0  0.93356  0.73860  0.86271  1.0000
  F   F177      1.0  0.12004  0.11578  0.40120  1.0000
  F   F178      1.0  0.12675  0.13002  0.88564  1.0000
  F   F179      1.0  0.12457  0.63461  0.39233  1.0000
  F   F180      1.0  0.12700  0.63242  0.89231  1.0000
  F   F181      1.0  0.37971  0.14262  0.39641  1.0000
  F   F182      1.0  0.37813  0.12942  0.87115  1.0000
  F   F183      1.0  0.37713  0.62895  0.39069  1.0000
  F   F184      1.0  0.37707  0.62850  0.89147  1.0000
  F   F185      1.0  0.62900  0.12841  0.39193  1.0000
  F   F186      1.0  0.62938  0.12433  0.89728  1.0000
  F   F187      1.0  0.62340  0.62146  0.38993  1.0000
  F   F188      1.0  0.62942  0.63864  0.88489  1.0000
  F   F189      1.0  0.87078  0.12217  0.40709  1.0000
  F   F190      1.0  0.87129  0.12550  0.90583  1.0000
  F   F191      1.0  0.87366  0.63373  0.37905  1.0000
  F   F192      1.0  0.87267  0.62998  0.88403  1.0000
  F   F193      1.0  0.00904  0.34399  0.08774  1.0000
  F   F194      1.0  0.00535  0.33939  0.59138  1.0000
  F   F195      1.0  0.00907  0.85331  0.07573  1.0000
  F   F196      1.0  0.00929  0.86110  0.56463  1.0000
  F   F197      1.0  0.25556  0.35651  0.07334  1.0000
  F   F198      1.0  0.26050  0.37172  0.55692  1.0000
  F   F199      1.0  0.25384  0.84807  0.11001  1.0000
  F   F200      1.0  0.25934  0.85808  0.57258  1.0000
  F   F201      1.0  0.50933  0.37289  0.05238  1.0000
  F   F202      1.0  0.51354  0.36254  0.57196  1.0000
  F   F203      1.0  0.50644  0.85647  0.07715  1.0000
  F   F204      1.0  0.51259  0.86230  0.56901  1.0000
  F   F205      1.0  0.75272  0.37126  0.07764  1.0000
  F   F206      1.0  0.76089  0.37533  0.56560  1.0000
  F   F207      1.0  0.75179  0.87549  0.06911  1.0000
  F   F208      1.0  0.75885  0.87921  0.54917  1.0000
  F   F209      1.0  0.07556  0.48414  0.17558  1.0000
  F   F210      1.0  0.05775  0.48518  0.69036  1.0000
  F   F211      1.0  0.06071  0.98466  0.19212  1.0000
  F   F212      1.0  0.07233  0.98622  0.66628  1.0000
  F   F213      1.0  0.31463  0.48665  0.17702  1.0000
  F   F214      1.0  0.31605  0.48121  0.68928  1.0000
  F   F215      1.0  0.31762  0.98046  0.19346  1.0000
  F   F216      1.0  0.31976  0.98911  0.66964  1.0000
  F   F217      1.0  0.56440  0.48648  0.19067  1.0000
  F   F218      1.0  0.56954  0.48960  0.66962  1.0000
  F   F219      1.0  0.57165  0.98329  0.16632  1.0000
  F   F220      1.0  0.56623  0.99299  0.65748  1.0000
  F   F221      1.0  0.82295  0.48730  0.16355  1.0000
  F   F222      1.0  0.82901  0.47660  0.66729  1.0000
  F   F223      1.0  0.82076  0.98704  0.16234  1.0000
  F   F224      1.0  0.81743  0.98098  0.67617  1.0000
  F   F225      1.0  0.24914  0.12712  0.42827  1.0000
  F   F226      1.0  0.23835  0.12865  0.93321  1.0000
  F   F227      1.0  0.24044  0.63075  0.43190  1.0000
  F   F228      1.0  0.24260  0.63879  0.93000  1.0000
  F   F229      1.0  0.49358  0.13988  0.43152  1.0000
  F   F230      1.0  0.49877  0.13021  0.91275  1.0000
  F   F231      1.0  0.49063  0.62267  0.43513  1.0000
  F   F232      1.0  0.49521  0.64682  0.90582  1.0000
  F   F233      1.0  0.73995  0.12924  0.42329  1.0000
  F   F234      1.0  0.74804  0.15423  0.90856  1.0000
  F   F235      1.0  0.73935  0.63725  0.43317  1.0000
  F   F236      1.0  0.74546  0.64437  0.91554  1.0000
  F   F237      1.0  0.99046  0.12673  0.44004  1.0000
  F   F238      1.0  0.98793  0.14300  0.91329  1.0000
  F   F239      1.0  0.98929  0.64968  0.42096  1.0000
  F   F240      1.0  0.99737  0.62291  0.92839  1.0000
  F   F241      1.0  0.17940  0.01624  0.33185  1.0000
  F   F242      1.0  0.18768  0.00669  0.83920  1.0000
  F   F243      1.0  0.17777  0.51948  0.32132  1.0000
  F   F244      1.0  0.17825  0.50824  0.83309  1.0000
  F   F245      1.0  0.43196  0.02477  0.32639  1.0000
  F   F246      1.0  0.42997  0.01166  0.81678  1.0000
  F   F247      1.0  0.42964  0.50102  0.33041  1.0000
  F   F248      1.0  0.43046  0.51935  0.81620  1.0000
  F   F249      1.0  0.67757  0.02346  0.31425  1.0000
  F   F250      1.0  0.68355  0.01943  0.79887  1.0000
  F   F251      1.0  0.68127  0.51640  0.32318  1.0000
  F   F252      1.0  0.68317  0.51553  0.82484  1.0000
  F   F253      1.0  0.93289  0.02633  0.31549  1.0000
  F   F254      1.0  0.92821  0.01815  0.81830  1.0000
  F   F255      1.0  0.92621  0.52200  0.33013  1.0000
  F   F256      1.0  0.93224  0.50562  0.84491  1.0000
  F   F257      1.0  0.99975  0.23486  0.01124  1.0000
  F   F258      1.0  0.99249  0.23953  0.51731  1.0000
  F   F259      1.0  0.99714  0.75434  0.99386  1.0000
  F   F260      1.0  0.99914  0.75747  0.49779  1.0000
  F   F261      1.0  0.25562  0.24363  0.00132  1.0000
  F   F262      1.0  0.25349  0.26361  0.48118  1.0000
  F   F263      1.0  0.25054  0.76526  0.99453  1.0000
  F   F264      1.0  0.24411  0.73321  0.51385  1.0000
  F   F265      1.0  0.50580  0.24567  0.98046  1.0000
  F   F266      1.0  0.50577  0.26776  0.48272  1.0000
  F   F267      1.0  0.49925  0.74161  0.00944  1.0000
  F   F268      1.0  0.49525  0.74363  0.49430  1.0000
  F   F269      1.0  0.74718  0.25024  0.00793  1.0000
  F   F270      1.0  0.75261  0.26802  0.48856  1.0000
  F   F271      1.0  0.74833  0.74415  0.01055  1.0000
  F   F272      1.0  0.74788  0.77055  0.48407  1.0000
  F   F273      1.0  0.12860  0.99340  0.23697  1.0000
  F   F274      1.0  0.12763  0.99082  0.74203  1.0000
  F   F275      1.0  0.12752  0.50065  0.23652  1.0000
  F   F276      1.0  0.12242  0.49512  0.75377  1.0000
  F   F277      1.0  0.38340  0.00411  0.24151  1.0000
  F   F278      1.0  0.36650  0.99383  0.76300  1.0000
  F   F279      1.0  0.38013  0.51241  0.23853  1.0000
  F   F280      1.0  0.37306  0.48135  0.76107  1.0000
  F   F281      1.0  0.61532  0.99991  0.26390  1.0000
  F   F282      1.0  0.62144  0.98312  0.74989  1.0000
  F   F283      1.0  0.62217  0.50973  0.25618  1.0000
  F   F284      1.0  0.61963  0.50268  0.75955  1.0000
  F   F285      1.0  0.87331  0.00370  0.24597  1.0000
  F   F286      1.0  0.87150  0.99977  0.76132  1.0000
  F   F287      1.0  0.87460  0.51128  0.24705  1.0000
  F   F288      1.0  0.87945  0.49385  0.74533  1.0000
  F   F289      1.0  0.04378  0.02928  0.03008  1.0000
  F   F290      1.0  0.03688  0.02841  0.53728  1.0000
  F   F291      1.0  0.04653  0.52093  0.01834  1.0000
  F   F292      1.0  0.03801  0.52405  0.53319  1.0000
  F   F293      1.0  0.29668  0.02032  0.01686  1.0000
  F   F294      1.0  0.29859  0.02914  0.51941  1.0000
  F   F295      1.0  0.29831  0.51868  0.01405  1.0000
  F   F296      1.0  0.29637  0.53052  0.50990  1.0000
  F   F297      1.0  0.54443  0.02847  0.01994  1.0000
  F   F298      1.0  0.54766  0.03661  0.51102  1.0000
  F   F299      1.0  0.54370  0.53287  0.01657  1.0000
  F   F300      1.0  0.54123  0.53606  0.52887  1.0000
  F   F301      1.0  0.78188  0.04183  0.02165  1.0000
  F   F302      1.0  0.79143  0.03736  0.51721  1.0000
  F   F303      1.0  0.78851  0.54123  0.02562  1.0000
  F   F304      1.0  0.79161  0.52385  0.53323  1.0000
  F   F305      1.0  0.23422  0.41292  0.23681  1.0000
  F   F306      1.0  0.23502  0.41497  0.72069  1.0000
  F   F307      1.0  0.23081  0.91938  0.23704  1.0000
  F   F308      1.0  0.23178  0.92295  0.72218  1.0000
  F   F309      1.0  0.48339  0.40765  0.22234  1.0000
  F   F310      1.0  0.49018  0.40814  0.73527  1.0000
  F   F311      1.0  0.48661  0.92023  0.21691  1.0000
  F   F312      1.0  0.48484  0.90682  0.73245  1.0000
  F   F313      1.0  0.73636  0.42544  0.22151  1.0000
  F   F314      1.0  0.73585  0.40155  0.74124  1.0000
  F   F315      1.0  0.73353  0.90964  0.22722  1.0000
  F   F316      1.0  0.73685  0.89381  0.72691  1.0000
  F   F317      1.0  0.98408  0.42128  0.22639  1.0000
  F   F318      1.0  0.98520  0.40374  0.72767  1.0000
  F   F319      1.0  0.98820  0.89341  0.23389  1.0000
  F   F320      1.0  0.98836  0.89808  0.73581  1.0000
  F   F321      1.0  0.19758  0.48004  0.47369  1.0000
  F   F322      1.0  0.19872  0.47964  0.99291  1.0000
  F   F323      1.0  0.20877  0.96216  0.48012  1.0000
  F   F324      1.0  0.21418  0.95361  0.98711  1.0000
  F   F325      1.0  0.46172  0.46106  0.48526  1.0000
  F   F326      1.0  0.44972  0.46908  0.98056  1.0000
  F   F327      1.0  0.46553  0.96659  0.48025  1.0000
  F   F328      1.0  0.45594  0.95931  0.98021  1.0000
  F   F329      1.0  0.70884  0.47722  0.46847  1.0000
  F   F330      1.0  0.70841  0.47490  0.97940  1.0000
  F   F331      1.0  0.69455  0.98395  0.47363  1.0000
  F   F332      1.0  0.70649  0.97457  0.97376  1.0000
  F   F333      1.0  0.96250  0.46691  0.47656  1.0000
  F   F334      1.0  0.97061  0.45704  0.97758  1.0000
  F   F335      1.0  0.96424  0.96518  0.46247  1.0000
  F   F336      1.0  0.95923  0.96403  0.96992  1.0000
  F   F337      1.0  0.01138  0.11195  0.27046  1.0000
  F   F338      1.0  0.01269  0.09538  0.76731  1.0000
  F   F339      1.0  0.01672  0.59604  0.25517  1.0000
  F   F340      1.0  0.00924  0.59450  0.77666  1.0000
  F   F341      1.0  0.26566  0.09449  0.26823  1.0000
  F   F342      1.0  0.26363  0.08021  0.78971  1.0000
  F   F343      1.0  0.26646  0.57650  0.28626  1.0000
  F   F344      1.0  0.26604  0.58034  0.78287  1.0000
  F   F345      1.0  0.51852  0.08773  0.27828  1.0000
  F   F346      1.0  0.51276  0.06825  0.78103  1.0000
  F   F347      1.0  0.51066  0.59889  0.26526  1.0000
  F   F348      1.0  0.51520  0.57395  0.76040  1.0000
  F   F349      1.0  0.76911  0.07360  0.27603  1.0000
  F   F350      1.0  0.76608  0.08016  0.77485  1.0000
  F   F351      1.0  0.76433  0.58274  0.27783  1.0000
  F   F352      1.0  0.76448  0.59631  0.75663  1.0000
  F   F353      1.0  0.09996  0.42154  0.46085  1.0000
  F   F354      1.0  0.10494  0.39387  0.96402  1.0000
  F   F355      1.0  0.10316  0.91490  0.46814  1.0000
  F   F356      1.0  0.10050  0.91993  0.95740  1.0000
  F   F357      1.0  0.35218  0.40107  0.46870  1.0000
  F   F358      1.0  0.35095  0.39479  0.96173  1.0000
  F   F359      1.0  0.35584  0.91167  0.44744  1.0000
  F   F360      1.0  0.35209  0.88624  0.96609  1.0000
  F   F361      1.0  0.60126  0.41110  0.46080  1.0000
  F   F362      1.0  0.60102  0.41392  0.97108  1.0000
  F   F363      1.0  0.59752  0.89711  0.46446  1.0000
  F   F364      1.0  0.60291  0.90643  0.95237  1.0000
  F   F365      1.0  0.85399  0.39377  0.46755  1.0000
  F   F366      1.0  0.85188  0.43289  0.95299  1.0000
  F   F367      1.0  0.85837  0.92811  0.44377  1.0000
  F   F368      1.0  0.84324  0.91289  0.96767  1.0000
  F   F369      1.0  0.04948  0.29771  0.28838  1.0000
  F   F370      1.0  0.04097  0.30137  0.79614  1.0000
  F   F371      1.0  0.05350  0.79783  0.30155  1.0000
  F   F372      1.0  0.05552  0.78574  0.79507  1.0000
  F   F373      1.0  0.29796  0.29439  0.27751  1.0000
  F   F374      1.0  0.30402  0.29554  0.79043  1.0000
  F   F375      1.0  0.28818  0.80211  0.29017  1.0000
  F   F376      1.0  0.29127  0.80490  0.77932  1.0000
  F   F377      1.0  0.54491  0.30498  0.28742  1.0000
  F   F378      1.0  0.55470  0.28774  0.78160  1.0000
  F   F379      1.0  0.54018  0.79495  0.29559  1.0000
  F   F380      1.0  0.54847  0.80402  0.78803  1.0000
  F   F381      1.0  0.79784  0.31133  0.28527  1.0000
  F   F382      1.0  0.81082  0.29736  0.78094  1.0000
  F   F383      1.0  0.79238  0.79715  0.28983  1.0000
  F   F384      1.0  0.79790  0.79044  0.77739  1.0000
