data_image0
_chemical_formula_structural       Hf96F384
_chemical_formula_sum              "Hf96 F384"
_cell_length_a       31.0271
_cell_length_b       15.5135
_cell_length_c       15.5081
_cell_angle_alpha    63.342
_cell_angle_beta     63.342
_cell_angle_gamma    80.1625

_space_group_name_H-M_alt    "P 1"
_space_group_IT_number       1

loop_
  _space_group_symop_operation_xyz
  'x, y, z'

loop_
  _atom_site_type_symbol
  _atom_site_label
  _atom_site_symmetry_multiplicity
  _atom_site_fract_x
  _atom_site_fract_y
  _atom_site_fract_z
  _atom_site_occupancy
  Hf  Hf1       1.0  0.19347  0.11290  0.37479  1.0000
  Hf  Hf2       1.0  0.19762  0.10958  0.87891  1.0000
  Hf  Hf3       1.0  0.19481  0.61265  0.36664  1.0000
  Hf  Hf4       1.0  0.19556  0.61539  0.87039  1.0000
  Hf  Hf5       1.0  0.44939  0.10712  0.36886  1.0000
  Hf  Hf6       1.0  0.44649  0.10106  0.87784  1.0000
  Hf  Hf7       1.0  0.44818  0.59977  0.37449  1.0000
  Hf  Hf8       1.0  0.44710  0.60871  0.87276  1.0000
  Hf  Hf9       1.0  0.69249  0.10724  0.37961  1.0000
  Hf  Hf10      1.0  0.69655  0.10796  0.86749  1.0000
  Hf  Hf11      1.0  0.69956  0.60549  0.37730  1.0000
  Hf  Hf12      1.0  0.69661  0.60497  0.87749  1.0000
  Hf  Hf13      1.0  0.94759  0.11135  0.37398  1.0000
  Hf  Hf14      1.0  0.95053  0.11229  0.86603  1.0000
  Hf  Hf15      1.0  0.94417  0.59724  0.38432  1.0000
  Hf  Hf16      1.0  0.94571  0.61743  0.86858  1.0000
  Hf  Hf17      1.0  0.05282  0.39215  0.12462  1.0000
  Hf  Hf18      1.0  0.05608  0.39701  0.61715  1.0000
  Hf  Hf19      1.0  0.05226  0.89980  0.12465  1.0000
  Hf  Hf20      1.0  0.05281  0.89479  0.62407  1.0000
  Hf  Hf21      1.0  0.30102  0.38900  0.12296  1.0000
  Hf  Hf22      1.0  0.30659  0.39805  0.61766  1.0000
  Hf  Hf23      1.0  0.30340  0.89311  0.12185  1.0000
  Hf  Hf24      1.0  0.30316  0.89342  0.62179  1.0000
  Hf  Hf25      1.0  0.55354  0.39112  0.12836  1.0000
  Hf  Hf26      1.0  0.55410  0.38894  0.62700  1.0000
  Hf  Hf27      1.0  0.54960  0.89084  0.13151  1.0000
  Hf  Hf28      1.0  0.55141  0.88293  0.63821  1.0000
  Hf  Hf29      1.0  0.80641  0.39256  0.11990  1.0000
  Hf  Hf30      1.0  0.80421  0.39364  0.62906  1.0000
  Hf  Hf31      1.0  0.80521  0.89769  0.11769  1.0000
  Hf  Hf32      1.0  0.80426  0.89855  0.61724  1.0000
  Hf  Hf33      1.0  0.05842  0.18972  0.41103  1.0000
  Hf  Hf34      1.0  0.05888  0.19478  0.91229  1.0000
  Hf  Hf35      1.0  0.05507  0.68181  0.41489  1.0000
  Hf  Hf36      1.0  0.05268  0.68832  0.91717  1.0000
  Hf  Hf37      1.0  0.30576  0.18364  0.41956  1.0000
  Hf  Hf38      1.0  0.30822  0.17764  0.91319  1.0000
  Hf  Hf39      1.0  0.30911  0.68605  0.41279  1.0000
  Hf  Hf40      1.0  0.30502  0.67955  0.91676  1.0000
  Hf  Hf41      1.0  0.55447  0.17679  0.42306  1.0000
  Hf  Hf42      1.0  0.55460  0.17392  0.92915  1.0000
  Hf  Hf43      1.0  0.55985  0.68635  0.41466  1.0000
  Hf  Hf44      1.0  0.55636  0.67784  0.91957  1.0000
  Hf  Hf45      1.0  0.80898  0.18354  0.41402  1.0000
  Hf  Hf46      1.0  0.80882  0.19141  0.90576  1.0000
  Hf  Hf47      1.0  0.80498  0.68128  0.42493  1.0000
  Hf  Hf48      1.0  0.80537  0.68146  0.92002  1.0000
  Hf  Hf49      1.0  0.15777  0.39482  0.32508  1.0000
  Hf  Hf50      1.0  0.16038  0.39146  0.83405  1.0000
  Hf  Hf51      1.0  0.15237  0.89033  0.33507  1.0000
  Hf  Hf52      1.0  0.15850  0.89040  0.83250  1.0000
  Hf  Hf53      1.0  0.40942  0.38414  0.33274  1.0000
  Hf  Hf54      1.0  0.41118  0.38668  0.83542  1.0000
  Hf  Hf55      1.0  0.40780  0.88515  0.33367  1.0000
  Hf  Hf56      1.0  0.40707  0.88268  0.83617  1.0000
  Hf  Hf57      1.0  0.65900  0.39099  0.33301  1.0000
  Hf  Hf58      1.0  0.66046  0.37908  0.83794  1.0000
  Hf  Hf59      1.0  0.66356  0.88676  0.33344  1.0000
  Hf  Hf60      1.0  0.65735  0.88308  0.83595  1.0000
  Hf  Hf61      1.0  0.90749  0.38850  0.33521  1.0000
  Hf  Hf62      1.0  0.91124  0.38596  0.83596  1.0000
  Hf  Hf63      1.0  0.90677  0.88661  0.33398  1.0000
  Hf  Hf64      1.0  0.90779  0.88857  0.83276  1.0000
  Hf  Hf65      1.0  0.19579  0.31802  0.07939  1.0000
  Hf  Hf66      1.0  0.19440  0.31488  0.58233  1.0000
  Hf  Hf67      1.0  0.19257  0.81787  0.08261  1.0000
  Hf  Hf68      1.0  0.19500  0.81391  0.58390  1.0000
  Hf  Hf69      1.0  0.44386  0.31678  0.07986  1.0000
  Hf  Hf70      1.0  0.44452  0.31909  0.58627  1.0000
  Hf  Hf71      1.0  0.44376  0.80894  0.08351  1.0000
  Hf  Hf72      1.0  0.44416  0.81600  0.58438  1.0000
  Hf  Hf73      1.0  0.69232  0.31149  0.09048  1.0000
  Hf  Hf74      1.0  0.69446  0.31821  0.58576  1.0000
  Hf  Hf75      1.0  0.69237  0.81830  0.08019  1.0000
  Hf  Hf76      1.0  0.69341  0.81884  0.58369  1.0000
  Hf  Hf77      1.0  0.94485  0.31745  0.08038  1.0000
  Hf  Hf78      1.0  0.94517  0.31680  0.58320  1.0000
  Hf  Hf79      1.0  0.94167  0.82185  0.08493  1.0000
  Hf  Hf80      1.0  0.94237  0.81929  0.58315  1.0000
  Hf  Hf81      1.0  0.09228  0.11875  0.15795  1.0000
  Hf  Hf82      1.0  0.09645  0.11482  0.66377  1.0000
  Hf  Hf83      1.0  0.08702  0.62534  0.15495  1.0000
  Hf  Hf84      1.0  0.09257  0.61614  0.66107  1.0000
  Hf  Hf85      1.0  0.33934  0.11270  0.16943  1.0000
  Hf  Hf86      1.0  0.34462  0.10880  0.66274  1.0000
  Hf  Hf87      1.0  0.33805  0.60922  0.16487  1.0000
  Hf  Hf88      1.0  0.34418  0.61588  0.66418  1.0000
  Hf  Hf89      1.0  0.59365  0.10753  0.16947  1.0000
  Hf  Hf90      1.0  0.58935  0.10772  0.66929  1.0000
  Hf  Hf91      1.0  0.58885  0.60939  0.17158  1.0000
  Hf  Hf92      1.0  0.59083  0.60369  0.67294  1.0000
  Hf  Hf93      1.0  0.84086  0.11391  0.16269  1.0000
  Hf  Hf94      1.0  0.84235  0.11309  0.66658  1.0000
  Hf  Hf95      1.0  0.84005  0.60944  0.17316  1.0000
  Hf  Hf96      1.0  0.83981  0.60102  0.67725  1.0000
  F   F1        1.0  0.07944  0.13939  0.30595  1.0000
  F   F2        1.0  0.07614  0.13815  0.80207  1.0000
  F   F3        1.0  0.07352  0.61606  0.30043  1.0000
  F   F4        1.0  0.07384  0.63677  0.80533  1.0000
  F   F5        1.0  0.32672  0.14061  0.30787  1.0000
  F   F6        1.0  0.33710  0.11996  0.80024  1.0000
  F   F7        1.0  0.33409  0.62769  0.30257  1.0000
  F   F8        1.0  0.33037  0.64300  0.79452  1.0000
  F   F9        1.0  0.58281  0.11866  0.30732  1.0000
  F   F10       1.0  0.57881  0.13131  0.79947  1.0000
  F   F11       1.0  0.58011  0.63160  0.30328  1.0000
  F   F12       1.0  0.58200  0.62765  0.80087  1.0000
  F   F13       1.0  0.82648  0.12386  0.30629  1.0000
  F   F14       1.0  0.83711  0.13644  0.79662  1.0000
  F   F15       1.0  0.83589  0.62700  0.29917  1.0000
  F   F16       1.0  0.82714  0.62093  0.80974  1.0000
  F   F17       1.0  0.18329  0.35179  0.43515  1.0000
  F   F18       1.0  0.18980  0.35231  0.94253  1.0000
  F   F19       1.0  0.17931  0.83464  0.44891  1.0000
  F   F20       1.0  0.18423  0.84792  0.94857  1.0000
  F   F21       1.0  0.43634  0.33761  0.44759  1.0000
  F   F22       1.0  0.43978  0.34257  0.94471  1.0000
  F   F23       1.0  0.43313  0.83580  0.45015  1.0000
  F   F24       1.0  0.42894  0.83297  0.95299  1.0000
  F   F25       1.0  0.68656  0.34212  0.45354  1.0000
  F   F26       1.0  0.68339  0.33042  0.95219  1.0000
  F   F27       1.0  0.69743  0.84744  0.44102  1.0000
  F   F28       1.0  0.68889  0.84468  0.94366  1.0000
  F   F29       1.0  0.93853  0.34912  0.44448  1.0000
  F   F30       1.0  0.94480  0.34325  0.94121  1.0000
  F   F31       1.0  0.93693  0.82774  0.44338  1.0000
  F   F32       1.0  0.92230  0.82927  0.96007  1.0000
  F   F33       1.0  0.16703  0.37233  0.18650  1.0000
  F   F34       1.0  0.17443  0.37631  0.70107  1.0000
  F   F35       1.0  0.16767  0.86929  0.19813  1.0000
  F   F36       1.0  0.16589  0.85530  0.70757  1.0000
  F   F37       1.0  0.42347  0.37038  0.18508  1.0000
  F   F38       1.0  0.42714  0.38846  0.69213  1.0000
  F   F39       1.0  0.41082  0.84849  0.21524  1.0000
  F   F40       1.0  0.42638  0.87560  0.69623  1.0000
  F   F41       1.0  0.67016  0.38916  0.19462  1.0000
  F   F42       1.0  0.66799  0.35660  0.70733  1.0000
  F   F43       1.0  0.67154  0.87369  0.19270  1.0000
  F   F44       1.0  0.66859  0.87098  0.69597  1.0000
  F   F45       1.0  0.91792  0.37102  0.19188  1.0000
  F   F46       1.0  0.92101  0.37569  0.68756  1.0000
  F   F47       1.0  0.91572  0.87209  0.19855  1.0000
  F   F48       1.0  0.91944  0.86178  0.70532  1.0000
  F   F49       1.0  0.06470  0.16526  0.05514  1.0000
  F   F50       1.0  0.07548  0.17428  0.53625  1.0000
  F   F51       1.0  0.05920  0.66330  0.05017  1.0000
  F   F52       1.0  0.06538  0.65436  0.55301  1.0000
  F   F53       1.0  0.31226  0.15236  0.05715  1.0000
  F   F54       1.0  0.31109  0.16084  0.56451  1.0000
  F   F55       1.0  0.31028  0.66189  0.04827  1.0000
  F   F56       1.0  0.31213  0.64873  0.56420  1.0000
  F   F57       1.0  0.55933  0.14873  0.07135  1.0000
  F   F58       1.0  0.55763  0.15002  0.56003  1.0000
  F   F59       1.0  0.56249  0.66205  0.05366  1.0000
  F   F60       1.0  0.56615  0.66376  0.54958  1.0000
  F   F61       1.0  0.81671  0.16816  0.05018  1.0000
  F   F62       1.0  0.81381  0.16106  0.54810  1.0000
  F   F63       1.0  0.81188  0.64598  0.06050  1.0000
  F   F64       1.0  0.81652  0.66291  0.56258  1.0000
  F   F65       1.0  0.20177  0.20489  0.20969  1.0000
  F   F66       1.0  0.20647  0.21260  0.72255  1.0000
  F   F67       1.0  0.20097  0.69497  0.20240  1.0000
  F   F68       1.0  0.21120  0.70517  0.69506  1.0000
  F   F69       1.0  0.45410  0.19879  0.21339  1.0000
  F   F70       1.0  0.45103  0.20798  0.71837  1.0000
  F   F71       1.0  0.46441  0.68883  0.20608  1.0000
  F   F72       1.0  0.45382  0.69125  0.71272  1.0000
  F   F73       1.0  0.70046  0.20372  0.21631  1.0000
  F   F74       1.0  0.71325  0.19470  0.71351  1.0000
  F   F75       1.0  0.70836  0.69884  0.22982  1.0000
  F   F76       1.0  0.70704  0.69489  0.71168  1.0000
  F   F77       1.0  0.95158  0.20631  0.22546  1.0000
  F   F78       1.0  0.95037  0.20103  0.71313  1.0000
  F   F79       1.0  0.94810  0.70027  0.20812  1.0000
  F   F80       1.0  0.96251  0.70773  0.70129  1.0000
  F   F81       1.0  0.14658  0.09399  0.03997  1.0000
  F   F82       1.0  0.15651  0.08786  0.53423  1.0000
  F   F83       1.0  0.14445  0.59866  0.02889  1.0000
  F   F84       1.0  0.14908  0.60310  0.53202  1.0000
  F   F85       1.0  0.40360  0.08152  0.04725  1.0000
  F   F86       1.0  0.40460  0.10424  0.52823  1.0000
  F   F87       1.0  0.39896  0.58565  0.03574  1.0000
  F   F88       1.0  0.40280  0.59623  0.53373  1.0000
  F   F89       1.0  0.64826  0.09189  0.04166  1.0000
  F   F90       1.0  0.64596  0.10069  0.54486  1.0000
  F   F91       1.0  0.64348  0.59256  0.04646  1.0000
  F   F92       1.0  0.65265  0.59034  0.54355  1.0000
  F   F93       1.0  0.90111  0.08840  0.04581  1.0000
  F   F94       1.0  0.89799  0.07939  0.53742  1.0000
  F   F95       1.0  0.89811  0.59416  0.03377  1.0000
  F   F96       1.0  0.89678  0.57261  0.54791  1.0000
  F   F97       1.0  0.15079  0.20686  0.10745  1.0000
  F   F98       1.0  0.16118  0.18927  0.63144  1.0000
  F   F99       1.0  0.14835  0.70259  0.11469  1.0000
  F   F100      1.0  0.14980  0.70166  0.62583  1.0000
  F   F101      1.0  0.39662  0.19635  0.12991  1.0000
  F   F102      1.0  0.40160  0.19973  0.62600  1.0000
  F   F103      1.0  0.39605  0.70076  0.14170  1.0000
  F   F104      1.0  0.40790  0.68550  0.62173  1.0000
  F   F105      1.0  0.65631  0.18946  0.12996  1.0000
  F   F106      1.0  0.65269  0.19579  0.64155  1.0000
  F   F107      1.0  0.64922  0.70073  0.11917  1.0000
  F   F108      1.0  0.65037  0.70919  0.62218  1.0000
  F   F109      1.0  0.90131  0.20580  0.12249  1.0000
  F   F110      1.0  0.89927  0.20339  0.61333  1.0000
  F   F111      1.0  0.90129  0.68900  0.12448  1.0000
  F   F112      1.0  0.89372  0.69568  0.62908  1.0000
  F   F113      1.0  0.09749  0.31085  0.36782  1.0000
  F   F114      1.0  0.09446  0.30606  0.87953  1.0000
  F   F115      1.0  0.09630  0.80941  0.36999  1.0000
  F   F116      1.0  0.09920  0.79827  0.88834  1.0000
  F   F117      1.0  0.35038  0.29941  0.36387  1.0000
  F   F118      1.0  0.35662  0.29403  0.87788  1.0000
  F   F119      1.0  0.35031  0.80110  0.39280  1.0000
  F   F120      1.0  0.35195  0.79665  0.86518  1.0000
  F   F121      1.0  0.60064  0.29825  0.38236  1.0000
  F   F122      1.0  0.59335  0.28931  0.88229  1.0000
  F   F123      1.0  0.60054  0.80214  0.37338  1.0000
  F   F124      1.0  0.59937  0.79968  0.86867  1.0000
  F   F125      1.0  0.84901  0.30724  0.37425  1.0000
  F   F126      1.0  0.85061  0.30832  0.85574  1.0000
  F   F127      1.0  0.84607  0.79703  0.38812  1.0000
  F   F128      1.0  0.84398  0.82647  0.87281  1.0000
  F   F129      1.0  0.06210  0.25406  0.16066  1.0000
  F   F130      1.0  0.07790  0.25722  0.63001  1.0000
  F   F131      1.0  0.06110  0.75789  0.14547  1.0000
  F   F132      1.0  0.06135  0.75360  0.62931  1.0000
  F   F133      1.0  0.30791  0.25286  0.14724  1.0000
  F   F134      1.0  0.32359  0.25901  0.62815  1.0000
  F   F135      1.0  0.30728  0.75174  0.15366  1.0000
  F   F136      1.0  0.32931  0.75808  0.61110  1.0000
  F   F137      1.0  0.56891  0.24590  0.14712  1.0000
  F   F138      1.0  0.56479  0.25249  0.62583  1.0000
  F   F139      1.0  0.55652  0.75056  0.15370  1.0000
  F   F140      1.0  0.56002  0.73843  0.65925  1.0000
  F   F141      1.0  0.80870  0.24144  0.15041  1.0000
  F   F142      1.0  0.81388  0.24452  0.64628  1.0000
  F   F143      1.0  0.80707  0.74992  0.15586  1.0000
  F   F144      1.0  0.80222  0.75342  0.65788  1.0000
  F   F145      1.0  0.12418  0.38469  0.09688  1.0000
  F   F146      1.0  0.12629  0.36277  0.61887  1.0000
  F   F147      1.0  0.12011  0.89145  0.11068  1.0000
  F   F148      1.0  0.12452  0.86854  0.60909  1.0000
  F   F149      1.0  0.37502  0.37591  0.09747  1.0000
  F   F150      1.0  0.37541  0.37358  0.61154  1.0000
  F   F151      1.0  0.37374  0.87365  0.09667  1.0000
  F   F152      1.0  0.37824  0.87898  0.60978  1.0000
  F   F153      1.0  0.62246  0.35641  0.12287  1.0000
  F   F154      1.0  0.62238  0.37988  0.61285  1.0000
  F   F155      1.0  0.62413  0.86854  0.09604  1.0000
  F   F156      1.0  0.62033  0.86574  0.61536  1.0000
  F   F157      1.0  0.87381  0.37481  0.09518  1.0000
  F   F158      1.0  0.87511  0.36226  0.61924  1.0000
  F   F159      1.0  0.87215  0.86337  0.11965  1.0000
  F   F160      1.0  0.87509  0.87747  0.60390  1.0000
  F   F161      1.0  0.18147  0.25263  0.35560  1.0000
  F   F162      1.0  0.17940  0.25105  0.87332  1.0000
  F   F163      1.0  0.18214  0.75333  0.35187  1.0000
  F   F164      1.0  0.18785  0.76110  0.85201  1.0000
  F   F165      1.0  0.44147  0.25467  0.33728  1.0000
  F   F166      1.0  0.44249  0.24862  0.85712  1.0000
  F   F167      1.0  0.43785  0.73823  0.35629  1.0000
  F   F168      1.0  0.44115  0.74538  0.85635  1.0000
  F   F169      1.0  0.67886  0.25042  0.35689  1.0000
  F   F170      1.0  0.67601  0.23630  0.87575  1.0000
  F   F171      1.0  0.67841  0.73854  0.38184  1.0000
  F   F172      1.0  0.68634  0.74869  0.85063  1.0000
  F   F173      1.0  0.93309  0.25156  0.37177  1.0000
  F   F174      1.0  0.93448  0.25027  0.85706  1.0000
  F   F175      1.0  0.93393  0.73788  0.35922  1.0000
  F   F176      1.0  0.94593  0.75498  0.85158  1.0000
  F   F177      1.0  0.12914  0.12769  0.38589  1.0000
  F   F178      1.0  0.12674  0.13518  0.88913  1.0000
  F   F179      1.0  0.11773  0.61759  0.39294  1.0000
  F   F180      1.0  0.12505  0.64660  0.88182  1.0000
  F   F181      1.0  0.37035  0.12242  0.41681  1.0000
  F   F182      1.0  0.37285  0.12955  0.90264  1.0000
  F   F183      1.0  0.37818  0.64446  0.38585  1.0000
  F   F184      1.0  0.37511  0.63341  0.89580  1.0000
  F   F185      1.0  0.62498  0.12308  0.39210  1.0000
  F   F186      1.0  0.62413  0.11696  0.88473  1.0000
  F   F187      1.0  0.62297  0.61707  0.40427  1.0000
  F   F188      1.0  0.62798  0.62399  0.88799  1.0000
  F   F189      1.0  0.87591  0.13037  0.39067  1.0000
  F   F190      1.0  0.87742  0.12248  0.90264  1.0000
  F   F191      1.0  0.87123  0.61753  0.41474  1.0000
  F   F192      1.0  0.87845  0.65747  0.86309  1.0000
  F   F193      1.0  0.00915  0.35750  0.06970  1.0000
  F   F194      1.0  0.01162  0.34355  0.58807  1.0000
  F   F195      1.0  0.00311  0.85870  0.08364  1.0000
  F   F196      1.0  0.00447  0.87272  0.58321  1.0000
  F   F197      1.0  0.25540  0.36269  0.08278  1.0000
  F   F198      1.0  0.26029  0.37802  0.56922  1.0000
  F   F199      1.0  0.25174  0.85926  0.08368  1.0000
  F   F200      1.0  0.26286  0.85290  0.57033  1.0000
  F   F201      1.0  0.51053  0.35864  0.06776  1.0000
  F   F202      1.0  0.50716  0.36084  0.57909  1.0000
  F   F203      1.0  0.50009  0.84829  0.09687  1.0000
  F   F204      1.0  0.51082  0.85630  0.58171  1.0000
  F   F205      1.0  0.75412  0.36854  0.07143  1.0000
  F   F206      1.0  0.75888  0.35304  0.57316  1.0000
  F   F207      1.0  0.75910  0.87430  0.05229  1.0000
  F   F208      1.0  0.75417  0.87854  0.55740  1.0000
  F   F209      1.0  0.06748  0.49124  0.18649  1.0000
  F   F210      1.0  0.07312  0.49154  0.66217  1.0000
  F   F211      1.0  0.06195  0.99688  0.17986  1.0000
  F   F212      1.0  0.07252  0.98874  0.68102  1.0000
  F   F213      1.0  0.31273  0.49733  0.16257  1.0000
  F   F214      1.0  0.32140  0.48840  0.67327  1.0000
  F   F215      1.0  0.31812  0.99325  0.16168  1.0000
  F   F216      1.0  0.32258  0.99311  0.65136  1.0000
  F   F217      1.0  0.57023  0.47966  0.16898  1.0000
  F   F218      1.0  0.57090  0.47534  0.69233  1.0000
  F   F219      1.0  0.56911  0.97890  0.18748  1.0000
  F   F220      1.0  0.56516  0.98824  0.67190  1.0000
  F   F221      1.0  0.82148  0.47595  0.17189  1.0000
  F   F222      1.0  0.81782  0.47890  0.68259  1.0000
  F   F223      1.0  0.81592  0.98686  0.17464  1.0000
  F   F224      1.0  0.82129  0.98508  0.67261  1.0000
  F   F225      1.0  0.23585  0.14695  0.42422  1.0000
  F   F226      1.0  0.24334  0.14389  0.92710  1.0000
  F   F227      1.0  0.24314  0.64288  0.40442  1.0000
  F   F228      1.0  0.23946  0.63767  0.93960  1.0000
  F   F229      1.0  0.49191  0.13578  0.43146  1.0000
  F   F230      1.0  0.49019  0.12422  0.93724  1.0000
  F   F231      1.0  0.49654  0.63687  0.41999  1.0000
  F   F232      1.0  0.49073  0.62731  0.92739  1.0000
  F   F233      1.0  0.73959  0.15652  0.41115  1.0000
  F   F234      1.0  0.74585  0.13421  0.92146  1.0000
  F   F235      1.0  0.74898  0.61371  0.42632  1.0000
  F   F236      1.0  0.73735  0.63467  0.93418  1.0000
  F   F237      1.0  0.99634  0.13271  0.42287  1.0000
  F   F238      1.0  0.99232  0.14586  0.91524  1.0000
  F   F239      1.0  0.98905  0.63628  0.42759  1.0000
  F   F240      1.0  0.99372  0.63121  0.94027  1.0000
  F   F241      1.0  0.18092  0.00785  0.32224  1.0000
  F   F242      1.0  0.17718  0.01759  0.83191  1.0000
  F   F243      1.0  0.17785  0.52552  0.32382  1.0000
  F   F244      1.0  0.17482  0.52369  0.81720  1.0000
  F   F245      1.0  0.43010  0.01261  0.32841  1.0000
  F   F246      1.0  0.42559  0.01325  0.83568  1.0000
  F   F247      1.0  0.43123  0.50769  0.32193  1.0000
  F   F248      1.0  0.42902  0.51619  0.83170  1.0000
  F   F249      1.0  0.68380  0.01352  0.32493  1.0000
  F   F250      1.0  0.68491  0.00863  0.81996  1.0000
  F   F251      1.0  0.68937  0.51271  0.31668  1.0000
  F   F252      1.0  0.68950  0.50669  0.81265  1.0000
  F   F253      1.0  0.92493  0.00833  0.35072  1.0000
  F   F254      1.0  0.93442  0.00600  0.83634  1.0000
  F   F255      1.0  0.92440  0.52088  0.32702  1.0000
  F   F256      1.0  0.92253  0.51057  0.85049  1.0000
  F   F257      1.0  0.99871  0.23347  0.01501  1.0000
  F   F258      1.0  0.99807  0.23515  0.51266  1.0000
  F   F259      1.0  0.99792  0.76644  0.99067  1.0000
  F   F260      1.0  0.00567  0.75805  0.49665  1.0000
  F   F261      1.0  0.25479  0.25740  0.00436  1.0000
  F   F262      1.0  0.25378  0.26915  0.49387  1.0000
  F   F263      1.0  0.25236  0.76564  0.98754  1.0000
  F   F264      1.0  0.24873  0.75374  0.49286  1.0000
  F   F265      1.0  0.50063  0.24040  0.00708  1.0000
  F   F266      1.0  0.50156  0.24756  0.50199  1.0000
  F   F267      1.0  0.49941  0.74648  0.99993  1.0000
  F   F268      1.0  0.50097  0.75987  0.48533  1.0000
  F   F269      1.0  0.74802  0.24846  0.99897  1.0000
  F   F270      1.0  0.74887  0.24127  0.51042  1.0000
  F   F271      1.0  0.74938  0.73760  0.01411  1.0000
  F   F272      1.0  0.74635  0.72609  0.53245  1.0000
  F   F273      1.0  0.12873  0.01457  0.23538  1.0000
  F   F274      1.0  0.13340  0.00444  0.73445  1.0000
  F   F275      1.0  0.13666  0.50659  0.22491  1.0000
  F   F276      1.0  0.12113  0.50051  0.75576  1.0000
  F   F277      1.0  0.37261  0.99623  0.25574  1.0000
  F   F278      1.0  0.37445  0.99429  0.74133  1.0000
  F   F279      1.0  0.36903  0.49420  0.25428  1.0000
  F   F280      1.0  0.36359  0.49225  0.77165  1.0000
  F   F281      1.0  0.62616  0.99026  0.26095  1.0000
  F   F282      1.0  0.62524  0.00252  0.74989  1.0000
  F   F283      1.0  0.61828  0.50801  0.25979  1.0000
  F   F284      1.0  0.62695  0.49684  0.74555  1.0000
  F   F285      1.0  0.88178  0.00967  0.23741  1.0000
  F   F286      1.0  0.88700  0.01192  0.73238  1.0000
  F   F287      1.0  0.87164  0.49435  0.25744  1.0000
  F   F288      1.0  0.87500  0.49364  0.74979  1.0000
  F   F289      1.0  0.04053  0.03754  0.02104  1.0000
  F   F290      1.0  0.04261  0.03976  0.54100  1.0000
  F   F291      1.0  0.04982  0.52486  0.02089  1.0000
  F   F292      1.0  0.03305  0.53177  0.52831  1.0000
  F   F293      1.0  0.29849  0.03366  0.01177  1.0000
  F   F294      1.0  0.28920  0.03832  0.51279  1.0000
  F   F295      1.0  0.29176  0.53569  0.01515  1.0000
  F   F296      1.0  0.30038  0.53311  0.50284  1.0000
  F   F297      1.0  0.54351  0.02876  0.01775  1.0000
  F   F298      1.0  0.54312  0.01289  0.53495  1.0000
  F   F299      1.0  0.54133  0.53759  0.02538  1.0000
  F   F300      1.0  0.54380  0.52710  0.53671  1.0000
  F   F301      1.0  0.79370  0.03634  0.02196  1.0000
  F   F302      1.0  0.79275  0.03598  0.51301  1.0000
  F   F303      1.0  0.79747  0.52247  0.01549  1.0000
  F   F304      1.0  0.78667  0.52927  0.53904  1.0000
  F   F305      1.0  0.22870  0.41948  0.22374  1.0000
  F   F306      1.0  0.23922  0.41448  0.72491  1.0000
  F   F307      1.0  0.23429  0.89751  0.23978  1.0000
  F   F308      1.0  0.23505  0.92490  0.72147  1.0000
  F   F309      1.0  0.48683  0.40969  0.22088  1.0000
  F   F310      1.0  0.48841  0.42269  0.72740  1.0000
  F   F311      1.0  0.48136  0.92647  0.21675  1.0000
  F   F312      1.0  0.48645  0.91290  0.73623  1.0000
  F   F313      1.0  0.73611  0.41061  0.22721  1.0000
  F   F314      1.0  0.73239  0.40815  0.72074  1.0000
  F   F315      1.0  0.73634  0.91622  0.22695  1.0000
  F   F316      1.0  0.73738  0.91367  0.71243  1.0000
  F   F317      1.0  0.98362  0.42416  0.20403  1.0000
  F   F318      1.0  0.98364  0.41714  0.72596  1.0000
  F   F319      1.0  0.97947  0.92309  0.23052  1.0000
  F   F320      1.0  0.98511  0.90840  0.73484  1.0000
  F   F321      1.0  0.20860  0.46032  0.46584  1.0000
  F   F322      1.0  0.21043  0.47909  0.96779  1.0000
  F   F323      1.0  0.20481  0.96607  0.47832  1.0000
  F   F324      1.0  0.20453  0.97072  0.98301  1.0000
  F   F325      1.0  0.45359  0.46603  0.48660  1.0000
  F   F326      1.0  0.45710  0.46593  0.98341  1.0000
  F   F327      1.0  0.46020  0.96406  0.47958  1.0000
  F   F328      1.0  0.46012  0.94693  0.98166  1.0000
  F   F329      1.0  0.70843  0.46371  0.48857  1.0000
  F   F330      1.0  0.70248  0.45955  0.97791  1.0000
  F   F331      1.0  0.69781  0.97894  0.49040  1.0000
  F   F332      1.0  0.70510  0.97820  0.97562  1.0000
  F   F333      1.0  0.96354  0.46844  0.48430  1.0000
  F   F334      1.0  0.95217  0.48188  0.98245  1.0000
  F   F335      1.0  0.96488  0.96855  0.47728  1.0000
  F   F336      1.0  0.95575  0.97266  0.97489  1.0000
  F   F337      1.0  0.01975  0.09482  0.27536  1.0000
  F   F338      1.0  0.02170  0.09996  0.74961  1.0000
  F   F339      1.0  0.00839  0.60056  0.25530  1.0000
  F   F340      1.0  0.01065  0.58365  0.77605  1.0000
  F   F341      1.0  0.26672  0.08974  0.28093  1.0000
  F   F342      1.0  0.26661  0.08735  0.77839  1.0000
  F   F343      1.0  0.26241  0.59472  0.25688  1.0000
  F   F344      1.0  0.26591  0.59482  0.77697  1.0000
  F   F345      1.0  0.51624  0.08972  0.26837  1.0000
  F   F346      1.0  0.50697  0.07188  0.78159  1.0000
  F   F347      1.0  0.51278  0.55224  0.30089  1.0000
  F   F348      1.0  0.51422  0.57354  0.77330  1.0000
  F   F349      1.0  0.75969  0.08114  0.28502  1.0000
  F   F350      1.0  0.77001  0.07491  0.78360  1.0000
  F   F351      1.0  0.76577  0.57831  0.27361  1.0000
  F   F352      1.0  0.76481  0.57283  0.78504  1.0000
  F   F353      1.0  0.09912  0.41412  0.46070  1.0000
  F   F354      1.0  0.10381  0.38624  0.97239  1.0000
  F   F355      1.0  0.09419  0.91834  0.45976  1.0000
  F   F356      1.0  0.09759  0.91568  0.95724  1.0000
  F   F357      1.0  0.35430  0.40414  0.45007  1.0000
  F   F358      1.0  0.35001  0.39821  0.96589  1.0000
  F   F359      1.0  0.35261  0.92814  0.45563  1.0000
  F   F360      1.0  0.34780  0.89578  0.95962  1.0000
  F   F361      1.0  0.60522  0.41773  0.45296  1.0000
  F   F362      1.0  0.60380  0.40915  0.97179  1.0000
  F   F363      1.0  0.61206  0.90140  0.45727  1.0000
  F   F364      1.0  0.60058  0.87915  0.96233  1.0000
  F   F365      1.0  0.84769  0.40996  0.47241  1.0000
  F   F366      1.0  0.84972  0.38937  0.96260  1.0000
  F   F367      1.0  0.84579  0.90760  0.45858  1.0000
  F   F368      1.0  0.85043  0.91991  0.96532  1.0000
  F   F369      1.0  0.04269  0.30949  0.29138  1.0000
  F   F370      1.0  0.04247  0.30484  0.79632  1.0000
  F   F371      1.0  0.04612  0.79730  0.28805  1.0000
  F   F372      1.0  0.04520  0.80400  0.78782  1.0000
  F   F373      1.0  0.28907  0.30513  0.28398  1.0000
  F   F374      1.0  0.30149  0.29448  0.78879  1.0000
  F   F375      1.0  0.30950  0.80208  0.28682  1.0000
  F   F376      1.0  0.28998  0.79111  0.77252  1.0000
  F   F377      1.0  0.54768  0.28997  0.29215  1.0000
  F   F378      1.0  0.53780  0.29028  0.78691  1.0000
  F   F379      1.0  0.54350  0.81180  0.28788  1.0000
  F   F380      1.0  0.53853  0.78563  0.81008  1.0000
  F   F381      1.0  0.79999  0.30001  0.29017  1.0000
  F   F382      1.0  0.79474  0.29731  0.78903  1.0000
  F   F383      1.0  0.79609  0.78929  0.30862  1.0000
  F   F384      1.0  0.79622  0.78980  0.80182  1.0000
