data_image0
_chemical_formula_structural       Hf96F384
_chemical_formula_sum              "Hf96 F384"
_cell_length_a       31.0147
_cell_length_b       15.5071
_cell_length_c       15.5018
_cell_angle_alpha    63.342
_cell_angle_beta     63.342
_cell_angle_gamma    80.1625

_space_group_name_H-M_alt    "P 1"
_space_group_IT_number       1

loop_
  _space_group_symop_operation_xyz
  'x, y, z'

loop_
  _atom_site_type_symbol
  _atom_site_label
  _atom_site_symmetry_multiplicity
  _atom_site_fract_x
  _atom_site_fract_y
  _atom_site_fract_z
  _atom_site_occupancy
  Hf  Hf1       1.0  0.19788  0.10616  0.37450  1.0000
  Hf  Hf2       1.0  0.19748  0.10425  0.87853  1.0000
  Hf  Hf3       1.0  0.19815  0.60434  0.38147  1.0000
  Hf  Hf4       1.0  0.19508  0.60538  0.87609  1.0000
  Hf  Hf5       1.0  0.44639  0.10828  0.37092  1.0000
  Hf  Hf6       1.0  0.44815  0.10794  0.87059  1.0000
  Hf  Hf7       1.0  0.44554  0.60810  0.36846  1.0000
  Hf  Hf8       1.0  0.44648  0.60797  0.87376  1.0000
  Hf  Hf9       1.0  0.69531  0.11206  0.36872  1.0000
  Hf  Hf10      1.0  0.69586  0.10295  0.87735  1.0000
  Hf  Hf11      1.0  0.69574  0.61041  0.37720  1.0000
  Hf  Hf12      1.0  0.69498  0.60711  0.87164  1.0000
  Hf  Hf13      1.0  0.94357  0.11064  0.37805  1.0000
  Hf  Hf14      1.0  0.94533  0.10889  0.88041  1.0000
  Hf  Hf15      1.0  0.94678  0.60671  0.38411  1.0000
  Hf  Hf16      1.0  0.94480  0.60426  0.87131  1.0000
  Hf  Hf17      1.0  0.05580  0.38963  0.12164  1.0000
  Hf  Hf18      1.0  0.05451  0.38666  0.62687  1.0000
  Hf  Hf19      1.0  0.05249  0.89217  0.13262  1.0000
  Hf  Hf20      1.0  0.05571  0.88722  0.62877  1.0000
  Hf  Hf21      1.0  0.30927  0.40130  0.11522  1.0000
  Hf  Hf22      1.0  0.30464  0.39607  0.61592  1.0000
  Hf  Hf23      1.0  0.30490  0.89210  0.12740  1.0000
  Hf  Hf24      1.0  0.30191  0.89250  0.63091  1.0000
  Hf  Hf25      1.0  0.55528  0.39458  0.12082  1.0000
  Hf  Hf26      1.0  0.55171  0.38786  0.62570  1.0000
  Hf  Hf27      1.0  0.55172  0.89439  0.13402  1.0000
  Hf  Hf28      1.0  0.55245  0.89799  0.61582  1.0000
  Hf  Hf29      1.0  0.80226  0.39605  0.12518  1.0000
  Hf  Hf30      1.0  0.80382  0.39424  0.62802  1.0000
  Hf  Hf31      1.0  0.80838  0.89655  0.11068  1.0000
  Hf  Hf32      1.0  0.80514  0.90711  0.61367  1.0000
  Hf  Hf33      1.0  0.05368  0.17504  0.42531  1.0000
  Hf  Hf34      1.0  0.05689  0.18422  0.91783  1.0000
  Hf  Hf35      1.0  0.05786  0.68270  0.41559  1.0000
  Hf  Hf36      1.0  0.05261  0.67667  0.92272  1.0000
  Hf  Hf37      1.0  0.30975  0.18485  0.40577  1.0000
  Hf  Hf38      1.0  0.30622  0.18923  0.91185  1.0000
  Hf  Hf39      1.0  0.30136  0.68379  0.42861  1.0000
  Hf  Hf40      1.0  0.30485  0.68371  0.91879  1.0000
  Hf  Hf41      1.0  0.55635  0.18225  0.41784  1.0000
  Hf  Hf42      1.0  0.55741  0.18032  0.91860  1.0000
  Hf  Hf43      1.0  0.55706  0.68245  0.41368  1.0000
  Hf  Hf44      1.0  0.55445  0.68213  0.91407  1.0000
  Hf  Hf45      1.0  0.80411  0.18662  0.41772  1.0000
  Hf  Hf46      1.0  0.80705  0.18717  0.91376  1.0000
  Hf  Hf47      1.0  0.80600  0.68168  0.42051  1.0000
  Hf  Hf48      1.0  0.80545  0.68688  0.91286  1.0000
  Hf  Hf49      1.0  0.16198  0.38544  0.33364  1.0000
  Hf  Hf50      1.0  0.15962  0.38154  0.83587  1.0000
  Hf  Hf51      1.0  0.15933  0.88356  0.33777  1.0000
  Hf  Hf52      1.0  0.15748  0.88067  0.83848  1.0000
  Hf  Hf53      1.0  0.40700  0.38238  0.33414  1.0000
  Hf  Hf54      1.0  0.41122  0.39609  0.82276  1.0000
  Hf  Hf55      1.0  0.40769  0.88629  0.34481  1.0000
  Hf  Hf56      1.0  0.40525  0.88556  0.84064  1.0000
  Hf  Hf57      1.0  0.65666  0.38921  0.33266  1.0000
  Hf  Hf58      1.0  0.65859  0.38384  0.82838  1.0000
  Hf  Hf59      1.0  0.65860  0.89471  0.32759  1.0000
  Hf  Hf60      1.0  0.65928  0.88655  0.83449  1.0000
  Hf  Hf61      1.0  0.90917  0.39517  0.33080  1.0000
  Hf  Hf62      1.0  0.90980  0.37872  0.83127  1.0000
  Hf  Hf63      1.0  0.91007  0.89100  0.32311  1.0000
  Hf  Hf64      1.0  0.91083  0.88630  0.82773  1.0000
  Hf  Hf65      1.0  0.19484  0.31466  0.08238  1.0000
  Hf  Hf66      1.0  0.19477  0.30531  0.59003  1.0000
  Hf  Hf67      1.0  0.19320  0.81433  0.08148  1.0000
  Hf  Hf68      1.0  0.19112  0.81644  0.59902  1.0000
  Hf  Hf69      1.0  0.44517  0.32621  0.07273  1.0000
  Hf  Hf70      1.0  0.44316  0.32024  0.58195  1.0000
  Hf  Hf71      1.0  0.44001  0.81884  0.09176  1.0000
  Hf  Hf72      1.0  0.44510  0.81409  0.58596  1.0000
  Hf  Hf73      1.0  0.69728  0.32665  0.06943  1.0000
  Hf  Hf74      1.0  0.69446  0.32444  0.57594  1.0000
  Hf  Hf75      1.0  0.69436  0.82061  0.08377  1.0000
  Hf  Hf76      1.0  0.69175  0.82009  0.58154  1.0000
  Hf  Hf77      1.0  0.94247  0.32166  0.08895  1.0000
  Hf  Hf78      1.0  0.94633  0.31726  0.57687  1.0000
  Hf  Hf79      1.0  0.94699  0.81375  0.08253  1.0000
  Hf  Hf80      1.0  0.94632  0.81819  0.57837  1.0000
  Hf  Hf81      1.0  0.09001  0.11038  0.17411  1.0000
  Hf  Hf82      1.0  0.09150  0.10285  0.67377  1.0000
  Hf  Hf83      1.0  0.09128  0.60828  0.16776  1.0000
  Hf  Hf84      1.0  0.09170  0.59900  0.67761  1.0000
  Hf  Hf85      1.0  0.34211  0.11743  0.15648  1.0000
  Hf  Hf86      1.0  0.34083  0.11094  0.66802  1.0000
  Hf  Hf87      1.0  0.34178  0.61332  0.16684  1.0000
  Hf  Hf88      1.0  0.34066  0.61026  0.66427  1.0000
  Hf  Hf89      1.0  0.59196  0.11786  0.16737  1.0000
  Hf  Hf90      1.0  0.59094  0.11511  0.66284  1.0000
  Hf  Hf91      1.0  0.59121  0.61492  0.15817  1.0000
  Hf  Hf92      1.0  0.58911  0.61307  0.66188  1.0000
  Hf  Hf93      1.0  0.84224  0.11048  0.16826  1.0000
  Hf  Hf94      1.0  0.84341  0.11811  0.66250  1.0000
  Hf  Hf95      1.0  0.83857  0.61221  0.16256  1.0000
  Hf  Hf96      1.0  0.83862  0.61752  0.67011  1.0000
  F   F1        1.0  0.07426  0.11169  0.32048  1.0000
  F   F2        1.0  0.08767  0.13372  0.79909  1.0000
  F   F3        1.0  0.08422  0.63603  0.29735  1.0000
  F   F4        1.0  0.06735  0.60387  0.82722  1.0000
  F   F5        1.0  0.32620  0.12936  0.30052  1.0000
  F   F6        1.0  0.32629  0.12631  0.81487  1.0000
  F   F7        1.0  0.31915  0.63019  0.30948  1.0000
  F   F8        1.0  0.33016  0.63483  0.79743  1.0000
  F   F9        1.0  0.58034  0.12584  0.30679  1.0000
  F   F10       1.0  0.58425  0.13948  0.79731  1.0000
  F   F11       1.0  0.58136  0.63269  0.30160  1.0000
  F   F12       1.0  0.58181  0.62834  0.80010  1.0000
  F   F13       1.0  0.82255  0.11791  0.31215  1.0000
  F   F14       1.0  0.83891  0.13816  0.78934  1.0000
  F   F15       1.0  0.82141  0.61659  0.31814  1.0000
  F   F16       1.0  0.82576  0.61797  0.81138  1.0000
  F   F17       1.0  0.18759  0.33941  0.44631  1.0000
  F   F18       1.0  0.18420  0.33212  0.94890  1.0000
  F   F19       1.0  0.18178  0.83011  0.45842  1.0000
  F   F20       1.0  0.19300  0.83842  0.93887  1.0000
  F   F21       1.0  0.43461  0.32842  0.44561  1.0000
  F   F22       1.0  0.44067  0.34296  0.93122  1.0000
  F   F23       1.0  0.44065  0.84399  0.44276  1.0000
  F   F24       1.0  0.42991  0.83628  0.96243  1.0000
  F   F25       1.0  0.68313  0.33661  0.45101  1.0000
  F   F26       1.0  0.69101  0.34757  0.93151  1.0000
  F   F27       1.0  0.69087  0.85427  0.43032  1.0000
  F   F28       1.0  0.69237  0.84163  0.93982  1.0000
  F   F29       1.0  0.94510  0.35808  0.43456  1.0000
  F   F30       1.0  0.93368  0.34116  0.94994  1.0000
  F   F31       1.0  0.93597  0.84331  0.44785  1.0000
  F   F32       1.0  0.94028  0.83553  0.94711  1.0000
  F   F33       1.0  0.17022  0.37423  0.19061  1.0000
  F   F34       1.0  0.16862  0.36311  0.70091  1.0000
  F   F35       1.0  0.17200  0.86925  0.20802  1.0000
  F   F36       1.0  0.17075  0.89490  0.69315  1.0000
  F   F37       1.0  0.42229  0.37369  0.18600  1.0000
  F   F38       1.0  0.41782  0.37263  0.69685  1.0000
  F   F39       1.0  0.41068  0.85758  0.21893  1.0000
  F   F40       1.0  0.42331  0.87229  0.69789  1.0000
  F   F41       1.0  0.66926  0.36358  0.19579  1.0000
  F   F42       1.0  0.67198  0.37424  0.69202  1.0000
  F   F43       1.0  0.68038  0.89511  0.17162  1.0000
  F   F44       1.0  0.67202  0.86526  0.69989  1.0000
  F   F45       1.0  0.91461  0.36217  0.21161  1.0000
  F   F46       1.0  0.92487  0.37650  0.68985  1.0000
  F   F47       1.0  0.91978  0.86685  0.19500  1.0000
  F   F48       1.0  0.92517  0.87219  0.69422  1.0000
  F   F49       1.0  0.06584  0.15171  0.05785  1.0000
  F   F50       1.0  0.06331  0.15036  0.56149  1.0000
  F   F51       1.0  0.07135  0.64559  0.04725  1.0000
  F   F52       1.0  0.06328  0.63947  0.57214  1.0000
  F   F53       1.0  0.31990  0.15993  0.04351  1.0000
  F   F54       1.0  0.31569  0.16114  0.54859  1.0000
  F   F55       1.0  0.31907  0.66384  0.05031  1.0000
  F   F56       1.0  0.30820  0.65029  0.56346  1.0000
  F   F57       1.0  0.56962  0.15362  0.05031  1.0000
  F   F58       1.0  0.56066  0.15922  0.55830  1.0000
  F   F59       1.0  0.55807  0.65872  0.05310  1.0000
  F   F60       1.0  0.56117  0.65112  0.55608  1.0000
  F   F61       1.0  0.81447  0.15565  0.05255  1.0000
  F   F62       1.0  0.81789  0.16714  0.54332  1.0000
  F   F63       1.0  0.81056  0.64904  0.05769  1.0000
  F   F64       1.0  0.81040  0.65455  0.56371  1.0000
  F   F65       1.0  0.20309  0.19326  0.21561  1.0000
  F   F66       1.0  0.19981  0.19158  0.72022  1.0000
  F   F67       1.0  0.19838  0.69785  0.20545  1.0000
  F   F68       1.0  0.21078  0.69631  0.71776  1.0000
  F   F69       1.0  0.45172  0.20301  0.20580  1.0000
  F   F70       1.0  0.46079  0.21505  0.69389  1.0000
  F   F71       1.0  0.45548  0.70753  0.21147  1.0000
  F   F72       1.0  0.45293  0.70409  0.71925  1.0000
  F   F73       1.0  0.70007  0.19872  0.21554  1.0000
  F   F74       1.0  0.70560  0.21114  0.71161  1.0000
  F   F75       1.0  0.70073  0.70197  0.22139  1.0000
  F   F76       1.0  0.69963  0.70843  0.70172  1.0000
  F   F77       1.0  0.94948  0.20098  0.21541  1.0000
  F   F78       1.0  0.94983  0.19850  0.71205  1.0000
  F   F79       1.0  0.95358  0.70144  0.21734  1.0000
  F   F80       1.0  0.95230  0.70254  0.70732  1.0000
  F   F81       1.0  0.14291  0.08482  0.04392  1.0000
  F   F82       1.0  0.14845  0.09334  0.54048  1.0000
  F   F83       1.0  0.15104  0.59130  0.03614  1.0000
  F   F84       1.0  0.14946  0.59251  0.54828  1.0000
  F   F85       1.0  0.40044  0.08767  0.03941  1.0000
  F   F86       1.0  0.39440  0.08597  0.55128  1.0000
  F   F87       1.0  0.39862  0.60120  0.03147  1.0000
  F   F88       1.0  0.39696  0.58452  0.53432  1.0000
  F   F89       1.0  0.64960  0.09114  0.04665  1.0000
  F   F90       1.0  0.65024  0.09852  0.54293  1.0000
  F   F91       1.0  0.65026  0.58617  0.04033  1.0000
  F   F92       1.0  0.64907  0.57771  0.54180  1.0000
  F   F93       1.0  0.90173  0.09931  0.03230  1.0000
  F   F94       1.0  0.89916  0.09403  0.53372  1.0000
  F   F95       1.0  0.90097  0.58977  0.04069  1.0000
  F   F96       1.0  0.89366  0.58770  0.53787  1.0000
  F   F97       1.0  0.14458  0.20527  0.13140  1.0000
  F   F98       1.0  0.15673  0.17818  0.62475  1.0000
  F   F99       1.0  0.14774  0.69780  0.12220  1.0000
  F   F100      1.0  0.15382  0.69134  0.65180  1.0000
  F   F101      1.0  0.40332  0.20259  0.11900  1.0000
  F   F102      1.0  0.39922  0.19606  0.63263  1.0000
  F   F103      1.0  0.40326  0.69439  0.13339  1.0000
  F   F104      1.0  0.40481  0.68811  0.61322  1.0000
  F   F105      1.0  0.65225  0.21261  0.11907  1.0000
  F   F106      1.0  0.65186  0.20359  0.61967  1.0000
  F   F107      1.0  0.65128  0.69680  0.12908  1.0000
  F   F108      1.0  0.64918  0.69907  0.61164  1.0000
  F   F109      1.0  0.90025  0.18737  0.12960  1.0000
  F   F110      1.0  0.90546  0.20098  0.60945  1.0000
  F   F111      1.0  0.89415  0.69495  0.14426  1.0000
  F   F112      1.0  0.90373  0.69474  0.61825  1.0000
  F   F113      1.0  0.09924  0.29742  0.36839  1.0000
  F   F114      1.0  0.09415  0.29963  0.88908  1.0000
  F   F115      1.0  0.09575  0.80492  0.38841  1.0000
  F   F116      1.0  0.09591  0.79782  0.89482  1.0000
  F   F117      1.0  0.34108  0.30511  0.38346  1.0000
  F   F118      1.0  0.34100  0.31098  0.87598  1.0000
  F   F119      1.0  0.34602  0.80138  0.40294  1.0000
  F   F120      1.0  0.34342  0.81050  0.88399  1.0000
  F   F121      1.0  0.59965  0.29418  0.38585  1.0000
  F   F122      1.0  0.60311  0.28800  0.87821  1.0000
  F   F123      1.0  0.60198  0.79975  0.37226  1.0000
  F   F124      1.0  0.60246  0.80075  0.88218  1.0000
  F   F125      1.0  0.83980  0.30649  0.38016  1.0000
  F   F126      1.0  0.85238  0.29914  0.85434  1.0000
  F   F127      1.0  0.85244  0.80135  0.37627  1.0000
  F   F128      1.0  0.85163  0.80798  0.86235  1.0000
  F   F129      1.0  0.06480  0.24945  0.14580  1.0000
  F   F130      1.0  0.05631  0.24172  0.66153  1.0000
  F   F131      1.0  0.05724  0.74439  0.14939  1.0000
  F   F132      1.0  0.07009  0.74498  0.64620  1.0000
  F   F133      1.0  0.32301  0.26432  0.11295  1.0000
  F   F134      1.0  0.31058  0.24415  0.64690  1.0000
  F   F135      1.0  0.31389  0.75483  0.14723  1.0000
  F   F136      1.0  0.32342  0.75533  0.62367  1.0000
  F   F137      1.0  0.56522  0.25055  0.13700  1.0000
  F   F138      1.0  0.56707  0.25370  0.63096  1.0000
  F   F139      1.0  0.56590  0.75010  0.13511  1.0000
  F   F140      1.0  0.55803  0.75133  0.65055  1.0000
  F   F141      1.0  0.80829  0.25838  0.14838  1.0000
  F   F142      1.0  0.81667  0.25601  0.64627  1.0000
  F   F143      1.0  0.82162  0.75002  0.12057  1.0000
  F   F144      1.0  0.81688  0.76334  0.63451  1.0000
  F   F145      1.0  0.12474  0.38915  0.08471  1.0000
  F   F146      1.0  0.12546  0.34980  0.61222  1.0000
  F   F147      1.0  0.12022  0.85362  0.14089  1.0000
  F   F148      1.0  0.12369  0.87100  0.61029  1.0000
  F   F149      1.0  0.37910  0.39373  0.09300  1.0000
  F   F150      1.0  0.37365  0.36128  0.61216  1.0000
  F   F151      1.0  0.37494  0.86478  0.11799  1.0000
  F   F152      1.0  0.37943  0.85885  0.61879  1.0000
  F   F153      1.0  0.62876  0.39104  0.08427  1.0000
  F   F154      1.0  0.61865  0.37122  0.61188  1.0000
  F   F155      1.0  0.62088  0.86072  0.11805  1.0000
  F   F156      1.0  0.62398  0.86677  0.61118  1.0000
  F   F157      1.0  0.87360  0.38437  0.09838  1.0000
  F   F158      1.0  0.87381  0.37522  0.61567  1.0000
  F   F159      1.0  0.87073  0.86976  0.11883  1.0000
  F   F160      1.0  0.87732  0.87082  0.60684  1.0000
  F   F161      1.0  0.18748  0.24887  0.34910  1.0000
  F   F162      1.0  0.18648  0.24563  0.85618  1.0000
  F   F163      1.0  0.19594  0.75146  0.34981  1.0000
  F   F164      1.0  0.18258  0.74992  0.86043  1.0000
  F   F165      1.0  0.42528  0.24883  0.35820  1.0000
  F   F166      1.0  0.43940  0.24987  0.83899  1.0000
  F   F167      1.0  0.43374  0.74444  0.36894  1.0000
  F   F168      1.0  0.43228  0.74805  0.86875  1.0000
  F   F169      1.0  0.68654  0.25297  0.35610  1.0000
  F   F170      1.0  0.68380  0.24286  0.86256  1.0000
  F   F171      1.0  0.68869  0.75892  0.36068  1.0000
  F   F172      1.0  0.68913  0.74672  0.86671  1.0000
  F   F173      1.0  0.92916  0.25668  0.36634  1.0000
  F   F174      1.0  0.93972  0.24951  0.84859  1.0000
  F   F175      1.0  0.93480  0.75383  0.36557  1.0000
  F   F176      1.0  0.93136  0.74536  0.85783  1.0000
  F   F177      1.0  0.12758  0.12574  0.38880  1.0000
  F   F178      1.0  0.12478  0.12519  0.89517  1.0000
  F   F179      1.0  0.12648  0.63403  0.40441  1.0000
  F   F180      1.0  0.12906  0.64289  0.87819  1.0000
  F   F181      1.0  0.37822  0.12089  0.38708  1.0000
  F   F182      1.0  0.37699  0.14271  0.88527  1.0000
  F   F183      1.0  0.37487  0.64913  0.37476  1.0000
  F   F184      1.0  0.37515  0.62526  0.88509  1.0000
  F   F185      1.0  0.62255  0.13063  0.39620  1.0000
  F   F186      1.0  0.62338  0.10845  0.91552  1.0000
  F   F187      1.0  0.62237  0.63845  0.39425  1.0000
  F   F188      1.0  0.62274  0.63963  0.89307  1.0000
  F   F189      1.0  0.87494  0.12893  0.38946  1.0000
  F   F190      1.0  0.87758  0.12010  0.89202  1.0000
  F   F191      1.0  0.87309  0.62899  0.40238  1.0000
  F   F192      1.0  0.87652  0.63158  0.88310  1.0000
  F   F193      1.0  0.00383  0.35943  0.07659  1.0000
  F   F194      1.0  0.00957  0.36101  0.58068  1.0000
  F   F195      1.0  0.01050  0.86647  0.06335  1.0000
  F   F196      1.0  0.01113  0.86774  0.57020  1.0000
  F   F197      1.0  0.26026  0.35826  0.08718  1.0000
  F   F198      1.0  0.24948  0.36734  0.57921  1.0000
  F   F199      1.0  0.25542  0.86480  0.06586  1.0000
  F   F200      1.0  0.25501  0.85837  0.59239  1.0000
  F   F201      1.0  0.50927  0.36462  0.07064  1.0000
  F   F202      1.0  0.50792  0.37226  0.56634  1.0000
  F   F203      1.0  0.50522  0.86718  0.08208  1.0000
  F   F204      1.0  0.50852  0.87785  0.54842  1.0000
  F   F205      1.0  0.75746  0.35809  0.07766  1.0000
  F   F206      1.0  0.75671  0.36485  0.57573  1.0000
  F   F207      1.0  0.76235  0.86440  0.05967  1.0000
  F   F208      1.0  0.75252  0.88248  0.55524  1.0000
  F   F209      1.0  0.07143  0.48139  0.17199  1.0000
  F   F210      1.0  0.07573  0.47076  0.68556  1.0000
  F   F211      1.0  0.06250  0.97483  0.20009  1.0000
  F   F212      1.0  0.06781  0.98267  0.68098  1.0000
  F   F213      1.0  0.32163  0.49074  0.18078  1.0000
  F   F214      1.0  0.32027  0.48198  0.67248  1.0000
  F   F215      1.0  0.31862  0.97210  0.19285  1.0000
  F   F216      1.0  0.31664  0.98325  0.68025  1.0000
  F   F217      1.0  0.56539  0.49040  0.16490  1.0000
  F   F218      1.0  0.56844  0.47923  0.68896  1.0000
  F   F219      1.0  0.56316  0.98324  0.18297  1.0000
  F   F220      1.0  0.57399  0.98346  0.66608  1.0000
  F   F221      1.0  0.81557  0.48312  0.18043  1.0000
  F   F222      1.0  0.81685  0.48988  0.69252  1.0000
  F   F223      1.0  0.81791  0.99178  0.16595  1.0000
  F   F224      1.0  0.82447  0.99658  0.65699  1.0000
  F   F225      1.0  0.24596  0.13986  0.41446  1.0000
  F   F226      1.0  0.23853  0.13364  0.93719  1.0000
  F   F227      1.0  0.23632  0.63618  0.44677  1.0000
  F   F228      1.0  0.24428  0.63588  0.91410  1.0000
  F   F229      1.0  0.48721  0.13895  0.42362  1.0000
  F   F230      1.0  0.49230  0.12868  0.92920  1.0000
  F   F231      1.0  0.49088  0.63650  0.42609  1.0000
  F   F232      1.0  0.49082  0.63771  0.91853  1.0000
  F   F233      1.0  0.73956  0.13351  0.42976  1.0000
  F   F234      1.0  0.74441  0.13714  0.91052  1.0000
  F   F235      1.0  0.73888  0.62272  0.43922  1.0000
  F   F236      1.0  0.74479  0.63425  0.93219  1.0000
  F   F237      1.0  0.98499  0.14580  0.44113  1.0000
  F   F238      1.0  0.99229  0.14055  0.92577  1.0000
  F   F239      1.0  0.99131  0.63174  0.43757  1.0000
  F   F240      1.0  0.98721  0.65871  0.92155  1.0000
  F   F241      1.0  0.18381  0.01317  0.33062  1.0000
  F   F242      1.0  0.17713  0.01669  0.83073  1.0000
  F   F243      1.0  0.17700  0.51071  0.34666  1.0000
  F   F244      1.0  0.17640  0.50991  0.84669  1.0000
  F   F245      1.0  0.43138  0.02115  0.32093  1.0000
  F   F246      1.0  0.43336  0.01286  0.82177  1.0000
  F   F247      1.0  0.43022  0.50975  0.32705  1.0000
  F   F248      1.0  0.43759  0.51837  0.81228  1.0000
  F   F249      1.0  0.68125  0.02798  0.29785  1.0000
  F   F250      1.0  0.68910  0.01636  0.81403  1.0000
  F   F251      1.0  0.68054  0.51238  0.32664  1.0000
  F   F252      1.0  0.67541  0.51644  0.83726  1.0000
  F   F253      1.0  0.93521  0.01803  0.31541  1.0000
  F   F254      1.0  0.92770  0.00502  0.83429  1.0000
  F   F255      1.0  0.93440  0.51640  0.32836  1.0000
  F   F256      1.0  0.92875  0.51125  0.83221  1.0000
  F   F257      1.0  0.99925  0.25078  0.00342  1.0000
  F   F258      1.0  0.00481  0.25572  0.50120  1.0000
  F   F259      1.0  0.99974  0.73666  0.01258  1.0000
  F   F260      1.0  0.00194  0.74963  0.50540  1.0000
  F   F261      1.0  0.24781  0.23862  0.00938  1.0000
  F   F262      1.0  0.25455  0.25211  0.49612  1.0000
  F   F263      1.0  0.25205  0.72698  0.00967  1.0000
  F   F264      1.0  0.25024  0.76802  0.50351  1.0000
  F   F265      1.0  0.49937  0.25848  0.98981  1.0000
  F   F266      1.0  0.50231  0.25678  0.48972  1.0000
  F   F267      1.0  0.50056  0.75444  0.99083  1.0000
  F   F268      1.0  0.50032  0.74508  0.49893  1.0000
  F   F269      1.0  0.74361  0.22824  0.01246  1.0000
  F   F270      1.0  0.74763  0.24709  0.51644  1.0000
  F   F271      1.0  0.74754  0.74702  0.00827  1.0000
  F   F272      1.0  0.74931  0.75369  0.50067  1.0000
  F   F273      1.0  0.12399  0.99953  0.25581  1.0000
  F   F274      1.0  0.11723  0.99172  0.76795  1.0000
  F   F275      1.0  0.12637  0.49859  0.25628  1.0000
  F   F276      1.0  0.12567  0.49808  0.75441  1.0000
  F   F277      1.0  0.37901  0.00962  0.24385  1.0000
  F   F278      1.0  0.37727  0.01104  0.75259  1.0000
  F   F279      1.0  0.37658  0.49394  0.25217  1.0000
  F   F280      1.0  0.37733  0.50967  0.74458  1.0000
  F   F281      1.0  0.61712  0.99317  0.26070  1.0000
  F   F282      1.0  0.62918  0.00233  0.73919  1.0000
  F   F283      1.0  0.62695  0.49710  0.24154  1.0000
  F   F284      1.0  0.62208  0.49419  0.75755  1.0000
  F   F285      1.0  0.86719  0.99029  0.25626  1.0000
  F   F286      1.0  0.87389  0.99580  0.75291  1.0000
  F   F287      1.0  0.87799  0.50144  0.24528  1.0000
  F   F288      1.0  0.88085  0.50119  0.74601  1.0000
  F   F289      1.0  0.04680  0.02212  0.03027  1.0000
  F   F290      1.0  0.03424  0.03169  0.54027  1.0000
  F   F291      1.0  0.03827  0.53194  0.02985  1.0000
  F   F292      1.0  0.04642  0.52261  0.51898  1.0000
  F   F293      1.0  0.29382  0.02972  0.03392  1.0000
  F   F294      1.0  0.30017  0.03161  0.51681  1.0000
  F   F295      1.0  0.29171  0.54078  0.02695  1.0000
  F   F296      1.0  0.29167  0.52712  0.52241  1.0000
  F   F297      1.0  0.54092  0.03281  0.02744  1.0000
  F   F298      1.0  0.53829  0.02807  0.51778  1.0000
  F   F299      1.0  0.54302  0.52768  0.01650  1.0000
  F   F300      1.0  0.54192  0.52882  0.53174  1.0000
  F   F301      1.0  0.79393  0.03086  0.01096  1.0000
  F   F302      1.0  0.78940  0.03804  0.52530  1.0000
  F   F303      1.0  0.79717  0.52470  0.00854  1.0000
  F   F304      1.0  0.79308  0.52820  0.52861  1.0000
  F   F305      1.0  0.23648  0.42439  0.22844  1.0000
  F   F306      1.0  0.23136  0.42102  0.72858  1.0000
  F   F307      1.0  0.23443  0.91327  0.23160  1.0000
  F   F308      1.0  0.23494  0.91941  0.73046  1.0000
  F   F309      1.0  0.48251  0.39298  0.23396  1.0000
  F   F310      1.0  0.48374  0.41209  0.72160  1.0000
  F   F311      1.0  0.48304  0.90784  0.23667  1.0000
  F   F312      1.0  0.48474  0.90044  0.73378  1.0000
  F   F313      1.0  0.73225  0.41385  0.23101  1.0000
  F   F314      1.0  0.73219  0.41438  0.72497  1.0000
  F   F315      1.0  0.74254  0.90271  0.22389  1.0000
  F   F316      1.0  0.73810  0.92721  0.72082  1.0000
  F   F317      1.0  0.98696  0.41672  0.22192  1.0000
  F   F318      1.0  0.98395  0.41797  0.72107  1.0000
  F   F319      1.0  0.98397  0.91925  0.22118  1.0000
  F   F320      1.0  0.98579  0.90540  0.73272  1.0000
  F   F321      1.0  0.19944  0.47111  0.48488  1.0000
  F   F322      1.0  0.21305  0.45990  0.96937  1.0000
  F   F323      1.0  0.20860  0.96477  0.47850  1.0000
  F   F324      1.0  0.20330  0.96072  0.98660  1.0000
  F   F325      1.0  0.45760  0.46523  0.46912  1.0000
  F   F326      1.0  0.46779  0.47568  0.96172  1.0000
  F   F327      1.0  0.45062  0.97375  0.47520  1.0000
  F   F328      1.0  0.45578  0.96937  0.97700  1.0000
  F   F329      1.0  0.71294  0.46789  0.45981  1.0000
  F   F330      1.0  0.71369  0.47511  0.96193  1.0000
  F   F331      1.0  0.69432  0.97830  0.47632  1.0000
  F   F332      1.0  0.71050  0.96743  0.97230  1.0000
  F   F333      1.0  0.96105  0.46510  0.48951  1.0000
  F   F334      1.0  0.96207  0.46418  0.97230  1.0000
  F   F335      1.0  0.95959  0.97498  0.48022  1.0000
  F   F336      1.0  0.94871  0.96863  0.98974  1.0000
  F   F337      1.0  0.01488  0.09683  0.27219  1.0000
  F   F338      1.0  0.01380  0.08793  0.77746  1.0000
  F   F339      1.0  0.01612  0.57945  0.29021  1.0000
  F   F340      1.0  0.00815  0.58795  0.76990  1.0000
  F   F341      1.0  0.26827  0.08311  0.26348  1.0000
  F   F342      1.0  0.26824  0.07522  0.78701  1.0000
  F   F343      1.0  0.26368  0.57926  0.27452  1.0000
  F   F344      1.0  0.26690  0.57873  0.77768  1.0000
  F   F345      1.0  0.51695  0.08701  0.27053  1.0000
  F   F346      1.0  0.51876  0.08101  0.76489  1.0000
  F   F347      1.0  0.51776  0.58654  0.28004  1.0000
  F   F348      1.0  0.51339  0.59130  0.77407  1.0000
  F   F349      1.0  0.76309  0.08933  0.27055  1.0000
  F   F350      1.0  0.76819  0.08070  0.76948  1.0000
  F   F351      1.0  0.76464  0.59653  0.25731  1.0000
  F   F352      1.0  0.76048  0.60549  0.76580  1.0000
  F   F353      1.0  0.10091  0.39557  0.46958  1.0000
  F   F354      1.0  0.09928  0.40599  0.96263  1.0000
  F   F355      1.0  0.10137  0.92396  0.46128  1.0000
  F   F356      1.0  0.10932  0.90641  0.97173  1.0000
  F   F357      1.0  0.34988  0.40892  0.46391  1.0000
  F   F358      1.0  0.35428  0.41121  0.94422  1.0000
  F   F359      1.0  0.35586  0.91589  0.46918  1.0000
  F   F360      1.0  0.35231  0.91153  0.96729  1.0000
  F   F361      1.0  0.59792  0.40494  0.45457  1.0000
  F   F362      1.0  0.59843  0.40150  0.95970  1.0000
  F   F363      1.0  0.60435  0.91484  0.46284  1.0000
  F   F364      1.0  0.60707  0.91352  0.96445  1.0000
  F   F365      1.0  0.85138  0.39889  0.47526  1.0000
  F   F366      1.0  0.85049  0.38144  0.95896  1.0000
  F   F367      1.0  0.84909  0.90720  0.46574  1.0000
  F   F368      1.0  0.85251  0.89662  0.95907  1.0000
  F   F369      1.0  0.04935  0.28735  0.28289  1.0000
  F   F370      1.0  0.04514  0.29621  0.79897  1.0000
  F   F371      1.0  0.03946  0.78318  0.30509  1.0000
  F   F372      1.0  0.05490  0.80116  0.78889  1.0000
  F   F373      1.0  0.29957  0.30028  0.27282  1.0000
  F   F374      1.0  0.28810  0.29526  0.78978  1.0000
  F   F375      1.0  0.30059  0.79712  0.29906  1.0000
  F   F376      1.0  0.29369  0.80157  0.79800  1.0000
  F   F377      1.0  0.55598  0.29259  0.28093  1.0000
  F   F378      1.0  0.54766  0.29141  0.78871  1.0000
  F   F379      1.0  0.53995  0.80185  0.29688  1.0000
  F   F380      1.0  0.54383  0.79905  0.79618  1.0000
  F   F381      1.0  0.79063  0.30330  0.28632  1.0000
  F   F382      1.0  0.79548  0.30663  0.78684  1.0000
  F   F383      1.0  0.79738  0.78707  0.28987  1.0000
  F   F384      1.0  0.79423  0.79377  0.78740  1.0000
