data_image0
_chemical_formula_structural       Hf96F384
_chemical_formula_sum              "Hf96 F384"
_cell_length_a       31.0247
_cell_length_b       15.512
_cell_length_c       15.5041
_cell_angle_alpha    63.342
_cell_angle_beta     63.342
_cell_angle_gamma    80.1625

_space_group_name_H-M_alt    "P 1"
_space_group_IT_number       1

loop_
  _space_group_symop_operation_xyz
  'x, y, z'

loop_
  _atom_site_type_symbol
  _atom_site_label
  _atom_site_symmetry_multiplicity
  _atom_site_fract_x
  _atom_site_fract_y
  _atom_site_fract_z
  _atom_site_occupancy
  Hf  Hf1       1.0  0.19646  0.09754  0.37632  1.0000
  Hf  Hf2       1.0  0.19615  0.09567  0.88898  1.0000
  Hf  Hf3       1.0  0.19763  0.60152  0.37755  1.0000
  Hf  Hf4       1.0  0.19444  0.60133  0.87989  1.0000
  Hf  Hf5       1.0  0.44833  0.10994  0.37028  1.0000
  Hf  Hf6       1.0  0.44526  0.11004  0.88095  1.0000
  Hf  Hf7       1.0  0.44474  0.60935  0.37735  1.0000
  Hf  Hf8       1.0  0.44809  0.61004  0.87605  1.0000
  Hf  Hf9       1.0  0.69768  0.11543  0.36903  1.0000
  Hf  Hf10      1.0  0.69368  0.11295  0.87024  1.0000
  Hf  Hf11      1.0  0.69405  0.60987  0.37156  1.0000
  Hf  Hf12      1.0  0.70076  0.61113  0.86560  1.0000
  Hf  Hf13      1.0  0.94381  0.10038  0.38284  1.0000
  Hf  Hf14      1.0  0.94163  0.10838  0.87900  1.0000
  Hf  Hf15      1.0  0.94441  0.60279  0.37562  1.0000
  Hf  Hf16      1.0  0.94495  0.60633  0.87747  1.0000
  Hf  Hf17      1.0  0.05244  0.38836  0.13040  1.0000
  Hf  Hf18      1.0  0.05849  0.39512  0.61842  1.0000
  Hf  Hf19      1.0  0.05096  0.88576  0.13395  1.0000
  Hf  Hf20      1.0  0.05408  0.88967  0.62616  1.0000
  Hf  Hf21      1.0  0.30805  0.39200  0.12379  1.0000
  Hf  Hf22      1.0  0.30152  0.38727  0.63774  1.0000
  Hf  Hf23      1.0  0.30541  0.89255  0.12571  1.0000
  Hf  Hf24      1.0  0.30567  0.89329  0.62476  1.0000
  Hf  Hf25      1.0  0.55542  0.39823  0.12662  1.0000
  Hf  Hf26      1.0  0.55185  0.40157  0.62122  1.0000
  Hf  Hf27      1.0  0.55302  0.89176  0.12291  1.0000
  Hf  Hf28      1.0  0.55122  0.89627  0.62565  1.0000
  Hf  Hf29      1.0  0.80481  0.40647  0.11527  1.0000
  Hf  Hf30      1.0  0.80385  0.39074  0.62197  1.0000
  Hf  Hf31      1.0  0.80322  0.89822  0.11107  1.0000
  Hf  Hf32      1.0  0.80730  0.89281  0.62355  1.0000
  Hf  Hf33      1.0  0.05906  0.17905  0.41531  1.0000
  Hf  Hf34      1.0  0.05546  0.17234  0.92175  1.0000
  Hf  Hf35      1.0  0.05465  0.67857  0.41915  1.0000
  Hf  Hf36      1.0  0.05842  0.68240  0.91431  1.0000
  Hf  Hf37      1.0  0.30961  0.18954  0.40362  1.0000
  Hf  Hf38      1.0  0.30764  0.18002  0.91715  1.0000
  Hf  Hf39      1.0  0.30322  0.68075  0.42026  1.0000
  Hf  Hf40      1.0  0.30357  0.68078  0.92136  1.0000
  Hf  Hf41      1.0  0.55533  0.18382  0.42130  1.0000
  Hf  Hf42      1.0  0.55290  0.18229  0.92083  1.0000
  Hf  Hf43      1.0  0.55283  0.69076  0.41213  1.0000
  Hf  Hf44      1.0  0.55726  0.68442  0.91236  1.0000
  Hf  Hf45      1.0  0.80595  0.18441  0.41335  1.0000
  Hf  Hf46      1.0  0.80402  0.18717  0.91521  1.0000
  Hf  Hf47      1.0  0.80202  0.68181  0.41710  1.0000
  Hf  Hf48      1.0  0.80758  0.68465  0.91494  1.0000
  Hf  Hf49      1.0  0.15850  0.37513  0.34440  1.0000
  Hf  Hf50      1.0  0.15452  0.38041  0.84310  1.0000
  Hf  Hf51      1.0  0.16043  0.87884  0.33968  1.0000
  Hf  Hf52      1.0  0.16133  0.89009  0.83533  1.0000
  Hf  Hf53      1.0  0.41232  0.38963  0.32633  1.0000
  Hf  Hf54      1.0  0.40661  0.38728  0.83870  1.0000
  Hf  Hf55      1.0  0.40713  0.89271  0.33301  1.0000
  Hf  Hf56      1.0  0.40814  0.89097  0.82803  1.0000
  Hf  Hf57      1.0  0.66089  0.39070  0.32465  1.0000
  Hf  Hf58      1.0  0.65442  0.39377  0.83269  1.0000
  Hf  Hf59      1.0  0.66016  0.89466  0.32911  1.0000
  Hf  Hf60      1.0  0.65916  0.88493  0.83207  1.0000
  Hf  Hf61      1.0  0.90988  0.38768  0.32875  1.0000
  Hf  Hf62      1.0  0.91172  0.39290  0.83015  1.0000
  Hf  Hf63      1.0  0.90647  0.88674  0.33110  1.0000
  Hf  Hf64      1.0  0.90952  0.88835  0.83024  1.0000
  Hf  Hf65      1.0  0.19334  0.30687  0.08982  1.0000
  Hf  Hf66      1.0  0.19778  0.31180  0.58564  1.0000
  Hf  Hf67      1.0  0.19223  0.81499  0.08660  1.0000
  Hf  Hf68      1.0  0.19422  0.81333  0.59107  1.0000
  Hf  Hf69      1.0  0.44349  0.31838  0.09180  1.0000
  Hf  Hf70      1.0  0.44197  0.31837  0.58870  1.0000
  Hf  Hf71      1.0  0.44545  0.81137  0.08607  1.0000
  Hf  Hf72      1.0  0.44507  0.82006  0.58434  1.0000
  Hf  Hf73      1.0  0.69505  0.33100  0.07083  1.0000
  Hf  Hf74      1.0  0.69179  0.33244  0.57864  1.0000
  Hf  Hf75      1.0  0.69225  0.82650  0.08228  1.0000
  Hf  Hf76      1.0  0.69625  0.82632  0.57560  1.0000
  Hf  Hf77      1.0  0.93952  0.31454  0.08924  1.0000
  Hf  Hf78      1.0  0.94353  0.31495  0.58171  1.0000
  Hf  Hf79      1.0  0.94523  0.81224  0.08126  1.0000
  Hf  Hf80      1.0  0.94390  0.80968  0.58438  1.0000
  Hf  Hf81      1.0  0.08718  0.10759  0.17140  1.0000
  Hf  Hf82      1.0  0.08891  0.10265  0.67727  1.0000
  Hf  Hf83      1.0  0.09303  0.60275  0.16832  1.0000
  Hf  Hf84      1.0  0.09253  0.60989  0.66492  1.0000
  Hf  Hf85      1.0  0.34150  0.11037  0.16570  1.0000
  Hf  Hf86      1.0  0.34408  0.11609  0.65854  1.0000
  Hf  Hf87      1.0  0.34443  0.61462  0.16467  1.0000
  Hf  Hf88      1.0  0.34382  0.61530  0.66102  1.0000
  Hf  Hf89      1.0  0.59280  0.11600  0.16804  1.0000
  Hf  Hf90      1.0  0.58918  0.11176  0.67300  1.0000
  Hf  Hf91      1.0  0.59119  0.60693  0.17140  1.0000
  Hf  Hf92      1.0  0.58841  0.62240  0.66483  1.0000
  Hf  Hf93      1.0  0.83859  0.11394  0.16935  1.0000
  Hf  Hf94      1.0  0.84170  0.11048  0.67051  1.0000
  Hf  Hf95      1.0  0.84095  0.61622  0.16238  1.0000
  Hf  Hf96      1.0  0.84504  0.61722  0.65899  1.0000
  F   F1        1.0  0.07826  0.11780  0.30946  1.0000
  F   F2        1.0  0.07585  0.11358  0.81302  1.0000
  F   F3        1.0  0.08152  0.62024  0.30479  1.0000
  F   F4        1.0  0.07688  0.61452  0.80746  1.0000
  F   F5        1.0  0.33709  0.16366  0.27348  1.0000
  F   F6        1.0  0.32937  0.13463  0.79982  1.0000
  F   F7        1.0  0.32307  0.63692  0.30060  1.0000
  F   F8        1.0  0.33449  0.63291  0.79989  1.0000
  F   F9        1.0  0.57520  0.11968  0.30894  1.0000
  F   F10       1.0  0.57401  0.11179  0.81821  1.0000
  F   F11       1.0  0.57725  0.62352  0.30818  1.0000
  F   F12       1.0  0.58143  0.63449  0.80267  1.0000
  F   F13       1.0  0.82224  0.12893  0.30557  1.0000
  F   F14       1.0  0.83422  0.12290  0.80701  1.0000
  F   F15       1.0  0.83541  0.63580  0.29044  1.0000
  F   F16       1.0  0.83102  0.65374  0.78530  1.0000
  F   F17       1.0  0.19033  0.32988  0.44685  1.0000
  F   F18       1.0  0.17802  0.32696  0.96565  1.0000
  F   F19       1.0  0.18828  0.84001  0.44576  1.0000
  F   F20       1.0  0.19066  0.83866  0.94886  1.0000
  F   F21       1.0  0.43841  0.35185  0.44034  1.0000
  F   F22       1.0  0.43352  0.35952  0.95670  1.0000
  F   F23       1.0  0.42850  0.85300  0.44882  1.0000
  F   F24       1.0  0.43607  0.84285  0.93528  1.0000
  F   F25       1.0  0.68192  0.33684  0.44240  1.0000
  F   F26       1.0  0.68315  0.36012  0.93714  1.0000
  F   F27       1.0  0.68994  0.85293  0.44136  1.0000
  F   F28       1.0  0.68935  0.83009  0.94613  1.0000
  F   F29       1.0  0.93932  0.32733  0.45016  1.0000
  F   F30       1.0  0.92487  0.33362  0.96131  1.0000
  F   F31       1.0  0.93298  0.83392  0.45302  1.0000
  F   F32       1.0  0.94685  0.84532  0.93565  1.0000
  F   F33       1.0  0.17074  0.34861  0.20861  1.0000
  F   F34       1.0  0.17452  0.36685  0.69738  1.0000
  F   F35       1.0  0.17304  0.86452  0.20182  1.0000
  F   F36       1.0  0.17411  0.86665  0.69056  1.0000
  F   F37       1.0  0.42287  0.38926  0.18934  1.0000
  F   F38       1.0  0.41318  0.35977  0.71074  1.0000
  F   F39       1.0  0.42254  0.89679  0.18081  1.0000
  F   F40       1.0  0.41752  0.87774  0.69238  1.0000
  F   F41       1.0  0.66439  0.37855  0.19274  1.0000
  F   F42       1.0  0.67530  0.37906  0.69487  1.0000
  F   F43       1.0  0.66596  0.87581  0.19493  1.0000
  F   F44       1.0  0.66846  0.87768  0.69464  1.0000
  F   F45       1.0  0.92530  0.38330  0.19252  1.0000
  F   F46       1.0  0.92216  0.37318  0.69351  1.0000
  F   F47       1.0  0.92242  0.87482  0.19047  1.0000
  F   F48       1.0  0.92198  0.85620  0.70129  1.0000
  F   F49       1.0  0.05380  0.15082  0.06569  1.0000
  F   F50       1.0  0.07541  0.14789  0.55217  1.0000
  F   F51       1.0  0.07700  0.65847  0.04417  1.0000
  F   F52       1.0  0.06757  0.64192  0.55913  1.0000
  F   F53       1.0  0.30695  0.16004  0.05500  1.0000
  F   F54       1.0  0.32369  0.16973  0.54002  1.0000
  F   F55       1.0  0.31576  0.65962  0.05657  1.0000
  F   F56       1.0  0.31513  0.65163  0.56099  1.0000
  F   F57       1.0  0.57443  0.18073  0.03820  1.0000
  F   F58       1.0  0.55886  0.16676  0.55408  1.0000
  F   F59       1.0  0.56250  0.65312  0.06348  1.0000
  F   F60       1.0  0.55639  0.66079  0.55719  1.0000
  F   F61       1.0  0.80783  0.15230  0.05479  1.0000
  F   F62       1.0  0.81956  0.15502  0.55112  1.0000
  F   F63       1.0  0.83237  0.67031  0.02916  1.0000
  F   F64       1.0  0.81601  0.64888  0.54990  1.0000
  F   F65       1.0  0.21032  0.18158  0.21727  1.0000
  F   F66       1.0  0.20153  0.19288  0.71073  1.0000
  F   F67       1.0  0.19711  0.69160  0.21363  1.0000
  F   F68       1.0  0.20685  0.69890  0.72430  1.0000
  F   F69       1.0  0.46020  0.20459  0.21080  1.0000
  F   F70       1.0  0.44161  0.18959  0.73486  1.0000
  F   F71       1.0  0.45689  0.71167  0.21495  1.0000
  F   F72       1.0  0.44975  0.69760  0.70903  1.0000
  F   F73       1.0  0.69697  0.21230  0.19826  1.0000
  F   F74       1.0  0.70642  0.20557  0.71773  1.0000
  F   F75       1.0  0.70988  0.71261  0.22277  1.0000
  F   F76       1.0  0.69649  0.70131  0.70000  1.0000
  F   F77       1.0  0.95770  0.19700  0.21625  1.0000
  F   F78       1.0  0.95294  0.19905  0.71471  1.0000
  F   F79       1.0  0.94805  0.68956  0.20812  1.0000
  F   F80       1.0  0.95066  0.68983  0.71523  1.0000
  F   F81       1.0  0.14720  0.11239  0.04005  1.0000
  F   F82       1.0  0.14895  0.06240  0.53154  1.0000
  F   F83       1.0  0.15265  0.56895  0.04087  1.0000
  F   F84       1.0  0.15138  0.57670  0.55550  1.0000
  F   F85       1.0  0.39527  0.09180  0.04408  1.0000
  F   F86       1.0  0.40028  0.08471  0.53334  1.0000
  F   F87       1.0  0.40065  0.62506  0.02474  1.0000
  F   F88       1.0  0.39540  0.57243  0.53216  1.0000
  F   F89       1.0  0.64533  0.08704  0.04031  1.0000
  F   F90       1.0  0.64137  0.10979  0.52340  1.0000
  F   F91       1.0  0.64819  0.59907  0.02966  1.0000
  F   F92       1.0  0.64360  0.57627  0.53700  1.0000
  F   F93       1.0  0.89857  0.12382  0.03276  1.0000
  F   F94       1.0  0.90446  0.10193  0.53525  1.0000
  F   F95       1.0  0.90581  0.58023  0.03790  1.0000
  F   F96       1.0  0.90290  0.59107  0.53548  1.0000
  F   F97       1.0  0.15019  0.19066  0.14722  1.0000
  F   F98       1.0  0.15042  0.17912  0.60564  1.0000
  F   F99       1.0  0.14548  0.68126  0.12826  1.0000
  F   F100      1.0  0.15224  0.69915  0.63069  1.0000
  F   F101      1.0  0.40799  0.19820  0.11298  1.0000
  F   F102      1.0  0.40278  0.19542  0.60719  1.0000
  F   F103      1.0  0.40415  0.68623  0.13676  1.0000
  F   F104      1.0  0.40259  0.69538  0.60999  1.0000
  F   F105      1.0  0.64609  0.21962  0.09810  1.0000
  F   F106      1.0  0.64582  0.20693  0.63472  1.0000
  F   F107      1.0  0.65091  0.70308  0.14740  1.0000
  F   F108      1.0  0.65189  0.69974  0.60447  1.0000
  F   F109      1.0  0.89868  0.19765  0.13562  1.0000
  F   F110      1.0  0.90259  0.19059  0.63694  1.0000
  F   F111      1.0  0.89947  0.71012  0.10326  1.0000
  F   F112      1.0  0.91204  0.69311  0.60904  1.0000
  F   F113      1.0  0.09276  0.30056  0.39261  1.0000
  F   F114      1.0  0.09678  0.29145  0.87872  1.0000
  F   F115      1.0  0.09828  0.79340  0.37174  1.0000
  F   F116      1.0  0.09799  0.80405  0.86247  1.0000
  F   F117      1.0  0.35115  0.30256  0.35571  1.0000
  F   F118      1.0  0.34851  0.30782  0.87950  1.0000
  F   F119      1.0  0.35347  0.80294  0.36505  1.0000
  F   F120      1.0  0.35135  0.79991  0.86450  1.0000
  F   F121      1.0  0.60515  0.30033  0.38720  1.0000
  F   F122      1.0  0.59606  0.32001  0.86654  1.0000
  F   F123      1.0  0.59726  0.80562  0.36731  1.0000
  F   F124      1.0  0.59997  0.78999  0.88453  1.0000
  F   F125      1.0  0.84872  0.28954  0.38073  1.0000
  F   F126      1.0  0.84940  0.30861  0.89798  1.0000
  F   F127      1.0  0.84365  0.80332  0.37454  1.0000
  F   F128      1.0  0.84355  0.80908  0.86710  1.0000
  F   F129      1.0  0.06582  0.24447  0.13939  1.0000
  F   F130      1.0  0.05581  0.24321  0.65775  1.0000
  F   F131      1.0  0.05897  0.74760  0.15002  1.0000
  F   F132      1.0  0.06759  0.74898  0.63035  1.0000
  F   F133      1.0  0.32216  0.26043  0.12467  1.0000
  F   F134      1.0  0.31448  0.25371  0.64658  1.0000
  F   F135      1.0  0.31541  0.75502  0.13901  1.0000
  F   F136      1.0  0.32133  0.75220  0.63647  1.0000
  F   F137      1.0  0.56317  0.25477  0.15768  1.0000
  F   F138      1.0  0.55923  0.24892  0.66244  1.0000
  F   F139      1.0  0.56379  0.74912  0.14538  1.0000
  F   F140      1.0  0.55927  0.75992  0.65407  1.0000
  F   F141      1.0  0.81463  0.25637  0.13928  1.0000
  F   F142      1.0  0.81284  0.24580  0.64107  1.0000
  F   F143      1.0  0.81253  0.75648  0.13897  1.0000
  F   F144      1.0  0.81925  0.75323  0.62652  1.0000
  F   F145      1.0  0.12182  0.35883  0.11827  1.0000
  F   F146      1.0  0.12525  0.33974  0.62181  1.0000
  F   F147      1.0  0.12178  0.87636  0.10526  1.0000
  F   F148      1.0  0.12081  0.86328  0.62049  1.0000
  F   F149      1.0  0.37760  0.37285  0.11676  1.0000
  F   F150      1.0  0.37199  0.37052  0.59722  1.0000
  F   F151      1.0  0.37695  0.86580  0.10184  1.0000
  F   F152      1.0  0.37439  0.88026  0.61014  1.0000
  F   F153      1.0  0.62395  0.37626  0.11008  1.0000
  F   F154      1.0  0.62178  0.37472  0.61738  1.0000
  F   F155      1.0  0.62694  0.88446  0.07972  1.0000
  F   F156      1.0  0.62156  0.86640  0.60923  1.0000
  F   F157      1.0  0.86961  0.37340  0.12758  1.0000
  F   F158      1.0  0.87591  0.37546  0.59813  1.0000
  F   F159      1.0  0.87285  0.87250  0.11312  1.0000
  F   F160      1.0  0.86990  0.85903  0.62645  1.0000
  F   F161      1.0  0.18678  0.24343  0.36547  1.0000
  F   F162      1.0  0.18819  0.24156  0.85809  1.0000
  F   F163      1.0  0.18756  0.73997  0.36272  1.0000
  F   F164      1.0  0.17738  0.75604  0.87266  1.0000
  F   F165      1.0  0.43163  0.24740  0.36174  1.0000
  F   F166      1.0  0.43725  0.24186  0.87351  1.0000
  F   F167      1.0  0.43187  0.75818  0.36628  1.0000
  F   F168      1.0  0.44326  0.76318  0.83145  1.0000
  F   F169      1.0  0.69714  0.26150  0.32183  1.0000
  F   F170      1.0  0.68448  0.25208  0.86636  1.0000
  F   F171      1.0  0.67985  0.75187  0.37804  1.0000
  F   F172      1.0  0.69212  0.75916  0.83806  1.0000
  F   F173      1.0  0.93283  0.24514  0.35668  1.0000
  F   F174      1.0  0.93717  0.24980  0.85877  1.0000
  F   F175      1.0  0.93277  0.74203  0.36076  1.0000
  F   F176      1.0  0.92572  0.74669  0.87282  1.0000
  F   F177      1.0  0.13054  0.15435  0.36984  1.0000
  F   F178      1.0  0.12845  0.12158  0.89056  1.0000
  F   F179      1.0  0.12618  0.61899  0.40392  1.0000
  F   F180      1.0  0.12589  0.61695  0.88487  1.0000
  F   F181      1.0  0.38248  0.13641  0.36867  1.0000
  F   F182      1.0  0.37511  0.13255  0.90022  1.0000
  F   F183      1.0  0.37370  0.63116  0.38283  1.0000
  F   F184      1.0  0.37587  0.61644  0.90469  1.0000
  F   F185      1.0  0.62760  0.13977  0.37715  1.0000
  F   F186      1.0  0.62545  0.14335  0.87025  1.0000
  F   F187      1.0  0.62726  0.64943  0.37000  1.0000
  F   F188      1.0  0.62950  0.62073  0.88909  1.0000
  F   F189      1.0  0.87538  0.11333  0.39376  1.0000
  F   F190      1.0  0.87299  0.13953  0.89031  1.0000
  F   F191      1.0  0.87478  0.61314  0.39544  1.0000
  F   F192      1.0  0.87459  0.63109  0.87643  1.0000
  F   F193      1.0  0.00403  0.36495  0.06716  1.0000
  F   F194      1.0  0.01033  0.36665  0.57395  1.0000
  F   F195      1.0  0.00804  0.85550  0.07813  1.0000
  F   F196      1.0  0.01048  0.86808  0.56732  1.0000
  F   F197      1.0  0.25667  0.35262  0.08106  1.0000
  F   F198      1.0  0.25953  0.36203  0.57961  1.0000
  F   F199      1.0  0.25545  0.85732  0.07933  1.0000
  F   F200      1.0  0.25759  0.83935  0.59465  1.0000
  F   F201      1.0  0.51116  0.36739  0.07454  1.0000
  F   F202      1.0  0.50206  0.35890  0.58764  1.0000
  F   F203      1.0  0.51038  0.87063  0.05905  1.0000
  F   F204      1.0  0.50886  0.85407  0.57485  1.0000
  F   F205      1.0  0.75805  0.38297  0.06404  1.0000
  F   F206      1.0  0.75639  0.35932  0.57934  1.0000
  F   F207      1.0  0.76122  0.87259  0.05820  1.0000
  F   F208      1.0  0.75715  0.85148  0.57885  1.0000
  F   F209      1.0  0.07136  0.47008  0.17421  1.0000
  F   F210      1.0  0.07410  0.47959  0.67160  1.0000
  F   F211      1.0  0.06582  0.99155  0.17779  1.0000
  F   F212      1.0  0.06050  0.96739  0.70200  1.0000
  F   F213      1.0  0.32607  0.48914  0.15620  1.0000
  F   F214      1.0  0.32104  0.48385  0.67613  1.0000
  F   F215      1.0  0.32562  0.98272  0.16182  1.0000
  F   F216      1.0  0.31814  0.99174  0.67045  1.0000
  F   F217      1.0  0.56669  0.48189  0.18832  1.0000
  F   F218      1.0  0.56104  0.48283  0.68093  1.0000
  F   F219      1.0  0.57226  0.98712  0.18294  1.0000
  F   F220      1.0  0.56363  0.98896  0.67706  1.0000
  F   F221      1.0  0.81521  0.48737  0.18102  1.0000
  F   F222      1.0  0.82193  0.48078  0.67516  1.0000
  F   F223      1.0  0.81549  0.98363  0.17791  1.0000
  F   F224      1.0  0.82137  0.98420  0.66857  1.0000
  F   F225      1.0  0.24654  0.13005  0.41600  1.0000
  F   F226      1.0  0.24402  0.12862  0.92819  1.0000
  F   F227      1.0  0.24235  0.63783  0.42879  1.0000
  F   F228      1.0  0.23836  0.64484  0.92307  1.0000
  F   F229      1.0  0.49274  0.13583  0.42404  1.0000
  F   F230      1.0  0.48788  0.13844  0.95420  1.0000
  F   F231      1.0  0.49541  0.65258  0.40850  1.0000
  F   F232      1.0  0.49284  0.65906  0.92027  1.0000
  F   F233      1.0  0.74012  0.12778  0.43768  1.0000
  F   F234      1.0  0.74254  0.15250  0.91318  1.0000
  F   F235      1.0  0.74001  0.63262  0.43093  1.0000
  F   F236      1.0  0.74357  0.63852  0.92740  1.0000
  F   F237      1.0  0.99172  0.13453  0.42103  1.0000
  F   F238      1.0  0.99443  0.13921  0.92850  1.0000
  F   F239      1.0  0.99127  0.63451  0.43049  1.0000
  F   F240      1.0  0.99235  0.64801  0.91287  1.0000
  F   F241      1.0  0.17901  0.01428  0.32391  1.0000
  F   F242      1.0  0.18798  0.99767  0.83838  1.0000
  F   F243      1.0  0.18288  0.50496  0.32500  1.0000
  F   F244      1.0  0.18356  0.50424  0.82287  1.0000
  F   F245      1.0  0.43521  0.02014  0.31097  1.0000
  F   F246      1.0  0.42791  0.01222  0.82632  1.0000
  F   F247      1.0  0.43718  0.52605  0.31352  1.0000
  F   F248      1.0  0.43828  0.52444  0.81415  1.0000
  F   F249      1.0  0.68421  0.01650  0.32920  1.0000
  F   F250      1.0  0.67455  0.00530  0.83755  1.0000
  F   F251      1.0  0.68157  0.51037  0.33299  1.0000
  F   F252      1.0  0.68200  0.51810  0.80416  1.0000
  F   F253      1.0  0.93323  0.00497  0.33060  1.0000
  F   F254      1.0  0.92810  0.01385  0.83167  1.0000
  F   F255      1.0  0.93666  0.51091  0.31802  1.0000
  F   F256      1.0  0.93359  0.50600  0.83488  1.0000
  F   F257      1.0  0.99688  0.25276  0.99722  1.0000
  F   F258      1.0  0.00148  0.23727  0.50965  1.0000
  F   F259      1.0  0.00467  0.74734  0.99780  1.0000
  F   F260      1.0  0.99929  0.73317  0.51348  1.0000
  F   F261      1.0  0.24571  0.24442  0.99072  1.0000
  F   F262      1.0  0.25819  0.25607  0.49504  1.0000
  F   F263      1.0  0.25006  0.75079  0.00591  1.0000
  F   F264      1.0  0.25424  0.74793  0.50813  1.0000
  F   F265      1.0  0.50368  0.27194  0.99489  1.0000
  F   F266      1.0  0.49932  0.25404  0.50113  1.0000
  F   F267      1.0  0.49790  0.75564  0.99752  1.0000
  F   F268      1.0  0.49782  0.76040  0.48749  1.0000
  F   F269      1.0  0.75111  0.26517  0.98616  1.0000
  F   F270      1.0  0.74916  0.24994  0.49449  1.0000
  F   F271      1.0  0.74952  0.73941  0.00927  1.0000
  F   F272      1.0  0.74752  0.75023  0.49954  1.0000
  F   F273      1.0  0.11888  0.98913  0.26093  1.0000
  F   F274      1.0  0.13581  0.99762  0.73571  1.0000
  F   F275      1.0  0.12953  0.49542  0.24613  1.0000
  F   F276      1.0  0.11823  0.47700  0.76493  1.0000
  F   F277      1.0  0.36677  0.00756  0.26325  1.0000
  F   F278      1.0  0.37668  0.00635  0.73422  1.0000
  F   F279      1.0  0.37080  0.49976  0.25492  1.0000
  F   F280      1.0  0.37585  0.49845  0.76158  1.0000
  F   F281      1.0  0.63495  0.00859  0.23961  1.0000
  F   F282      1.0  0.62494  0.00432  0.73576  1.0000
  F   F283      1.0  0.63218  0.50801  0.24068  1.0000
  F   F284      1.0  0.61969  0.50625  0.74044  1.0000
  F   F285      1.0  0.87711  0.00530  0.24274  1.0000
  F   F286      1.0  0.87914  0.99927  0.74829  1.0000
  F   F287      1.0  0.87935  0.50247  0.24471  1.0000
  F   F288      1.0  0.87020  0.50148  0.76359  1.0000
  F   F289      1.0  0.04077  0.02656  0.03261  1.0000
  F   F290      1.0  0.05110  0.03131  0.52226  1.0000
  F   F291      1.0  0.04095  0.53411  0.02840  1.0000
  F   F292      1.0  0.04614  0.52942  0.51493  1.0000
  F   F293      1.0  0.28974  0.02646  0.02761  1.0000
  F   F294      1.0  0.29724  0.03481  0.51917  1.0000
  F   F295      1.0  0.28920  0.52572  0.02463  1.0000
  F   F296      1.0  0.29650  0.53145  0.51911  1.0000
  F   F297      1.0  0.55132  0.03533  0.01011  1.0000
  F   F298      1.0  0.54457  0.03329  0.51999  1.0000
  F   F299      1.0  0.53769  0.54348  0.02160  1.0000
  F   F300      1.0  0.53534  0.54256  0.52337  1.0000
  F   F301      1.0  0.79055  0.03353  0.01728  1.0000
  F   F302      1.0  0.78904  0.03459  0.52973  1.0000
  F   F303      1.0  0.79422  0.54714  0.02356  1.0000
  F   F304      1.0  0.79439  0.52321  0.50966  1.0000
  F   F305      1.0  0.23488  0.41031  0.23850  1.0000
  F   F306      1.0  0.23187  0.39817  0.74484  1.0000
  F   F307      1.0  0.23526  0.90437  0.23642  1.0000
  F   F308      1.0  0.23854  0.90974  0.72992  1.0000
  F   F309      1.0  0.48769  0.41608  0.22830  1.0000
  F   F310      1.0  0.48001  0.41024  0.72082  1.0000
  F   F311      1.0  0.48938  0.92773  0.20812  1.0000
  F   F312      1.0  0.48446  0.93148  0.70119  1.0000
  F   F313      1.0  0.73168  0.41909  0.21919  1.0000
  F   F314      1.0  0.73732  0.40321  0.72568  1.0000
  F   F315      1.0  0.73406  0.90933  0.21624  1.0000
  F   F316      1.0  0.73816  0.91740  0.72423  1.0000
  F   F317      1.0  0.98379  0.41271  0.23330  1.0000
  F   F318      1.0  0.98526  0.41869  0.72329  1.0000
  F   F319      1.0  0.98384  0.90750  0.23483  1.0000
  F   F320      1.0  0.97877  0.91620  0.72651  1.0000
  F   F321      1.0  0.20095  0.46694  0.48420  1.0000
  F   F322      1.0  0.20663  0.46215  0.96712  1.0000
  F   F323      1.0  0.21425  0.96018  0.47705  1.0000
  F   F324      1.0  0.20252  0.97182  0.00511  1.0000
  F   F325      1.0  0.45717  0.46325  0.48658  1.0000
  F   F326      1.0  0.45259  0.47700  0.98336  1.0000
  F   F327      1.0  0.46591  0.96575  0.46233  1.0000
  F   F328      1.0  0.45707  0.96569  0.97146  1.0000
  F   F329      1.0  0.71224  0.47231  0.47290  1.0000
  F   F330      1.0  0.70934  0.47927  0.97385  1.0000
  F   F331      1.0  0.70926  0.97396  0.47988  1.0000
  F   F332      1.0  0.70762  0.97818  0.97023  1.0000
  F   F333      1.0  0.96701  0.46771  0.45450  1.0000
  F   F334      1.0  0.95534  0.46511  0.98186  1.0000
  F   F335      1.0  0.95294  0.95954  0.49716  1.0000
  F   F336      1.0  0.94249  0.98075  0.99341  1.0000
  F   F337      1.0  0.01392  0.07563  0.28393  1.0000
  F   F338      1.0  0.00929  0.07983  0.78919  1.0000
  F   F339      1.0  0.01410  0.59141  0.26605  1.0000
  F   F340      1.0  0.01491  0.57825  0.77845  1.0000
  F   F341      1.0  0.27158  0.07552  0.27571  1.0000
  F   F342      1.0  0.26539  0.09017  0.77456  1.0000
  F   F343      1.0  0.26358  0.58060  0.28096  1.0000
  F   F344      1.0  0.26785  0.58353  0.77774  1.0000
  F   F345      1.0  0.51831  0.09370  0.25709  1.0000
  F   F346      1.0  0.51543  0.08945  0.77079  1.0000
  F   F347      1.0  0.51594  0.58569  0.27486  1.0000
  F   F348      1.0  0.51372  0.58053  0.78979  1.0000
  F   F349      1.0  0.76362  0.09337  0.25559  1.0000
  F   F350      1.0  0.76649  0.07238  0.77350  1.0000
  F   F351      1.0  0.76846  0.58627  0.26904  1.0000
  F   F352      1.0  0.76896  0.58840  0.76361  1.0000
  F   F353      1.0  0.10544  0.40389  0.46708  1.0000
  F   F354      1.0  0.10055  0.41809  0.96418  1.0000
  F   F355      1.0  0.10101  0.89947  0.45815  1.0000
  F   F356      1.0  0.10085  0.91961  0.93710  1.0000
  F   F357      1.0  0.35569  0.38949  0.45598  1.0000
  F   F358      1.0  0.35391  0.40779  0.97091  1.0000
  F   F359      1.0  0.34316  0.90930  0.46409  1.0000
  F   F360      1.0  0.34803  0.90474  0.96476  1.0000
  F   F361      1.0  0.59691  0.41748  0.46880  1.0000
  F   F362      1.0  0.59824  0.42186  0.95728  1.0000
  F   F363      1.0  0.60142  0.90823  0.45541  1.0000
  F   F364      1.0  0.60239  0.90842  0.94699  1.0000
  F   F365      1.0  0.85115  0.39892  0.46440  1.0000
  F   F366      1.0  0.85203  0.42477  0.96452  1.0000
  F   F367      1.0  0.84814  0.90659  0.46258  1.0000
  F   F368      1.0  0.85440  0.90790  0.95715  1.0000
  F   F369      1.0  0.04679  0.28823  0.28778  1.0000
  F   F370      1.0  0.04519  0.29209  0.80015  1.0000
  F   F371      1.0  0.04825  0.79180  0.28806  1.0000
  F   F372      1.0  0.04283  0.79084  0.78668  1.0000
  F   F373      1.0  0.29156  0.30409  0.29213  1.0000
  F   F374      1.0  0.30151  0.30640  0.78595  1.0000
  F   F375      1.0  0.29746  0.80010  0.28925  1.0000
  F   F376      1.0  0.29321  0.79320  0.80018  1.0000
  F   F377      1.0  0.54647  0.30334  0.29576  1.0000
  F   F378      1.0  0.54363  0.29220  0.79711  1.0000
  F   F379      1.0  0.54715  0.80087  0.27973  1.0000
  F   F380      1.0  0.54734  0.81267  0.79213  1.0000
  F   F381      1.0  0.79181  0.29197  0.29127  1.0000
  F   F382      1.0  0.81186  0.30674  0.78026  1.0000
  F   F383      1.0  0.78946  0.78975  0.29823  1.0000
  F   F384      1.0  0.78733  0.79628  0.79270  1.0000
