data_image0
_chemical_formula_structural       Hf96F384
_chemical_formula_sum              "Hf96 F384"
_cell_length_a       31.021
_cell_length_b       15.5133
_cell_length_c       15.5037
_cell_angle_alpha    63.342
_cell_angle_beta     63.342
_cell_angle_gamma    80.1625

_space_group_name_H-M_alt    "P 1"
_space_group_IT_number       1

loop_
  _space_group_symop_operation_xyz
  'x, y, z'

loop_
  _atom_site_type_symbol
  _atom_site_label
  _atom_site_symmetry_multiplicity
  _atom_site_fract_x
  _atom_site_fract_y
  _atom_site_fract_z
  _atom_site_occupancy
  Hf  Hf1       1.0  0.19739  0.11022  0.37751  1.0000
  Hf  Hf2       1.0  0.19966  0.10612  0.87016  1.0000
  Hf  Hf3       1.0  0.19326  0.60665  0.38358  1.0000
  Hf  Hf4       1.0  0.19573  0.60787  0.88405  1.0000
  Hf  Hf5       1.0  0.44648  0.10478  0.37560  1.0000
  Hf  Hf6       1.0  0.44664  0.10231  0.87731  1.0000
  Hf  Hf7       1.0  0.44708  0.61438  0.37195  1.0000
  Hf  Hf8       1.0  0.44407  0.60652  0.87865  1.0000
  Hf  Hf9       1.0  0.69461  0.10705  0.37482  1.0000
  Hf  Hf10      1.0  0.69566  0.10997  0.87208  1.0000
  Hf  Hf11      1.0  0.69449  0.60640  0.37386  1.0000
  Hf  Hf12      1.0  0.69277  0.60626  0.87243  1.0000
  Hf  Hf13      1.0  0.94835  0.09949  0.37556  1.0000
  Hf  Hf14      1.0  0.94845  0.10158  0.88055  1.0000
  Hf  Hf15      1.0  0.94781  0.60630  0.37334  1.0000
  Hf  Hf16      1.0  0.94569  0.60776  0.87760  1.0000
  Hf  Hf17      1.0  0.05613  0.39637  0.11854  1.0000
  Hf  Hf18      1.0  0.05322  0.38891  0.63337  1.0000
  Hf  Hf19      1.0  0.05264  0.89785  0.12794  1.0000
  Hf  Hf20      1.0  0.04854  0.88921  0.62970  1.0000
  Hf  Hf21      1.0  0.29994  0.38697  0.12579  1.0000
  Hf  Hf22      1.0  0.30504  0.40078  0.62228  1.0000
  Hf  Hf23      1.0  0.30338  0.89030  0.13459  1.0000
  Hf  Hf24      1.0  0.30550  0.89324  0.62074  1.0000
  Hf  Hf25      1.0  0.55385  0.39976  0.11718  1.0000
  Hf  Hf26      1.0  0.55229  0.39546  0.62120  1.0000
  Hf  Hf27      1.0  0.55647  0.89712  0.11882  1.0000
  Hf  Hf28      1.0  0.55546  0.88863  0.62005  1.0000
  Hf  Hf29      1.0  0.80623  0.38957  0.12462  1.0000
  Hf  Hf30      1.0  0.80731  0.38813  0.61907  1.0000
  Hf  Hf31      1.0  0.80286  0.89311  0.12854  1.0000
  Hf  Hf32      1.0  0.80111  0.89523  0.61771  1.0000
  Hf  Hf33      1.0  0.05825  0.18660  0.41114  1.0000
  Hf  Hf34      1.0  0.05857  0.18059  0.91665  1.0000
  Hf  Hf35      1.0  0.05712  0.68107  0.42254  1.0000
  Hf  Hf36      1.0  0.05664  0.68945  0.91131  1.0000
  Hf  Hf37      1.0  0.30735  0.18850  0.41929  1.0000
  Hf  Hf38      1.0  0.30685  0.18543  0.92040  1.0000
  Hf  Hf39      1.0  0.30379  0.68604  0.41859  1.0000
  Hf  Hf40      1.0  0.30498  0.68023  0.91807  1.0000
  Hf  Hf41      1.0  0.55564  0.18497  0.41614  1.0000
  Hf  Hf42      1.0  0.55285  0.17989  0.91557  1.0000
  Hf  Hf43      1.0  0.55594  0.68674  0.41181  1.0000
  Hf  Hf44      1.0  0.55450  0.68938  0.91259  1.0000
  Hf  Hf45      1.0  0.80783  0.18628  0.41291  1.0000
  Hf  Hf46      1.0  0.80703  0.17799  0.91671  1.0000
  Hf  Hf47      1.0  0.80518  0.68184  0.41854  1.0000
  Hf  Hf48      1.0  0.80776  0.67987  0.91690  1.0000
  Hf  Hf49      1.0  0.16109  0.38791  0.33353  1.0000
  Hf  Hf50      1.0  0.16255  0.38819  0.83288  1.0000
  Hf  Hf51      1.0  0.15867  0.88211  0.34548  1.0000
  Hf  Hf52      1.0  0.15867  0.89304  0.83072  1.0000
  Hf  Hf53      1.0  0.40886  0.39082  0.33108  1.0000
  Hf  Hf54      1.0  0.41369  0.39163  0.82728  1.0000
  Hf  Hf55      1.0  0.40541  0.88622  0.33300  1.0000
  Hf  Hf56      1.0  0.40956  0.88956  0.83451  1.0000
  Hf  Hf57      1.0  0.66173  0.38367  0.33073  1.0000
  Hf  Hf58      1.0  0.65657  0.38451  0.83518  1.0000
  Hf  Hf59      1.0  0.65743  0.88555  0.33072  1.0000
  Hf  Hf60      1.0  0.65643  0.89116  0.83444  1.0000
  Hf  Hf61      1.0  0.91282  0.39107  0.32872  1.0000
  Hf  Hf62      1.0  0.91085  0.39356  0.82379  1.0000
  Hf  Hf63      1.0  0.90697  0.88023  0.33758  1.0000
  Hf  Hf64      1.0  0.90296  0.89263  0.84052  1.0000
  Hf  Hf65      1.0  0.19400  0.31469  0.08019  1.0000
  Hf  Hf66      1.0  0.19380  0.32213  0.58542  1.0000
  Hf  Hf67      1.0  0.19502  0.82188  0.08547  1.0000
  Hf  Hf68      1.0  0.19136  0.81124  0.59307  1.0000
  Hf  Hf69      1.0  0.44268  0.31554  0.08540  1.0000
  Hf  Hf70      1.0  0.44403  0.32191  0.57545  1.0000
  Hf  Hf71      1.0  0.44367  0.81234  0.08529  1.0000
  Hf  Hf72      1.0  0.44670  0.82046  0.57415  1.0000
  Hf  Hf73      1.0  0.69166  0.31017  0.08018  1.0000
  Hf  Hf74      1.0  0.69010  0.32198  0.59012  1.0000
  Hf  Hf75      1.0  0.69244  0.81400  0.08271  1.0000
  Hf  Hf76      1.0  0.69281  0.81170  0.58351  1.0000
  Hf  Hf77      1.0  0.94602  0.32672  0.07699  1.0000
  Hf  Hf78      1.0  0.94434  0.30881  0.58761  1.0000
  Hf  Hf79      1.0  0.94187  0.81193  0.08845  1.0000
  Hf  Hf80      1.0  0.94128  0.81354  0.59442  1.0000
  Hf  Hf81      1.0  0.09803  0.11704  0.15744  1.0000
  Hf  Hf82      1.0  0.09063  0.10990  0.66380  1.0000
  Hf  Hf83      1.0  0.09203  0.62171  0.17037  1.0000
  Hf  Hf84      1.0  0.08850  0.60349  0.67345  1.0000
  Hf  Hf85      1.0  0.34148  0.11574  0.16316  1.0000
  Hf  Hf86      1.0  0.34135  0.10843  0.66823  1.0000
  Hf  Hf87      1.0  0.33517  0.60368  0.17961  1.0000
  Hf  Hf88      1.0  0.34564  0.61561  0.66370  1.0000
  Hf  Hf89      1.0  0.59169  0.11669  0.16118  1.0000
  Hf  Hf90      1.0  0.58757  0.11125  0.67611  1.0000
  Hf  Hf91      1.0  0.58928  0.61374  0.16680  1.0000
  Hf  Hf92      1.0  0.59064  0.60723  0.67017  1.0000
  Hf  Hf93      1.0  0.84422  0.11450  0.16310  1.0000
  Hf  Hf94      1.0  0.84097  0.10602  0.66525  1.0000
  Hf  Hf95      1.0  0.83841  0.60918  0.17651  1.0000
  Hf  Hf96      1.0  0.84359  0.61264  0.66264  1.0000
  F   F1        1.0  0.08262  0.13474  0.29692  1.0000
  F   F2        1.0  0.08028  0.12230  0.79968  1.0000
  F   F3        1.0  0.08926  0.63715  0.30191  1.0000
  F   F4        1.0  0.08266  0.61930  0.81003  1.0000
  F   F5        1.0  0.32612  0.13218  0.31332  1.0000
  F   F6        1.0  0.33810  0.15241  0.79513  1.0000
  F   F7        1.0  0.32388  0.63471  0.30535  1.0000
  F   F8        1.0  0.32796  0.62983  0.80196  1.0000
  F   F9        1.0  0.58692  0.14143  0.28463  1.0000
  F   F10       1.0  0.57564  0.11011  0.82021  1.0000
  F   F11       1.0  0.57697  0.61254  0.30912  1.0000
  F   F12       1.0  0.58077  0.62909  0.80197  1.0000
  F   F13       1.0  0.83258  0.13192  0.29800  1.0000
  F   F14       1.0  0.82426  0.10756  0.81665  1.0000
  F   F15       1.0  0.82994  0.63296  0.30438  1.0000
  F   F16       1.0  0.82872  0.63313  0.79722  1.0000
  F   F17       1.0  0.18548  0.35157  0.44285  1.0000
  F   F18       1.0  0.18364  0.33179  0.96035  1.0000
  F   F19       1.0  0.18996  0.83912  0.44255  1.0000
  F   F20       1.0  0.18500  0.84317  0.94148  1.0000
  F   F21       1.0  0.43936  0.34941  0.43813  1.0000
  F   F22       1.0  0.42753  0.31657  0.96278  1.0000
  F   F23       1.0  0.44353  0.85261  0.43197  1.0000
  F   F24       1.0  0.43754  0.83749  0.94332  1.0000
  F   F25       1.0  0.67952  0.33778  0.45718  1.0000
  F   F26       1.0  0.68458  0.33963  0.94453  1.0000
  F   F27       1.0  0.68366  0.83581  0.45064  1.0000
  F   F28       1.0  0.68499  0.83518  0.94630  1.0000
  F   F29       1.0  0.92715  0.33231  0.46608  1.0000
  F   F30       1.0  0.93977  0.35485  0.93794  1.0000
  F   F31       1.0  0.93577  0.84062  0.43679  1.0000
  F   F32       1.0  0.93247  0.83354  0.95275  1.0000
  F   F33       1.0  0.17090  0.37567  0.19755  1.0000
  F   F34       1.0  0.17093  0.36894  0.70291  1.0000
  F   F35       1.0  0.17481  0.87016  0.20436  1.0000
  F   F36       1.0  0.16311  0.87222  0.70044  1.0000
  F   F37       1.0  0.42076  0.36305  0.20615  1.0000
  F   F38       1.0  0.42944  0.38997  0.68368  1.0000
  F   F39       1.0  0.42162  0.87743  0.19662  1.0000
  F   F40       1.0  0.41987  0.86573  0.69749  1.0000
  F   F41       1.0  0.67319  0.37197  0.19467  1.0000
  F   F42       1.0  0.67606  0.37623  0.69718  1.0000
  F   F43       1.0  0.67225  0.86172  0.19236  1.0000
  F   F44       1.0  0.66622  0.86841  0.69653  1.0000
  F   F45       1.0  0.92058  0.37381  0.19683  1.0000
  F   F46       1.0  0.92261  0.36435  0.69842  1.0000
  F   F47       1.0  0.92398  0.87637  0.18629  1.0000
  F   F48       1.0  0.91285  0.86175  0.70660  1.0000
  F   F49       1.0  0.07790  0.17126  0.03779  1.0000
  F   F50       1.0  0.05902  0.15047  0.55624  1.0000
  F   F51       1.0  0.06655  0.66330  0.05587  1.0000
  F   F52       1.0  0.06220  0.65552  0.55748  1.0000
  F   F53       1.0  0.31480  0.16533  0.05273  1.0000
  F   F54       1.0  0.31787  0.15409  0.54998  1.0000
  F   F55       1.0  0.30812  0.65532  0.05021  1.0000
  F   F56       1.0  0.32258  0.67448  0.54035  1.0000
  F   F57       1.0  0.56770  0.15618  0.04645  1.0000
  F   F58       1.0  0.56240  0.15977  0.55053  1.0000
  F   F59       1.0  0.56369  0.67117  0.04337  1.0000
  F   F60       1.0  0.57046  0.67203  0.54082  1.0000
  F   F61       1.0  0.82626  0.16497  0.04344  1.0000
  F   F62       1.0  0.81649  0.15925  0.54027  1.0000
  F   F63       1.0  0.81816  0.65454  0.04990  1.0000
  F   F64       1.0  0.82197  0.66544  0.54245  1.0000
  F   F65       1.0  0.20839  0.19940  0.20849  1.0000
  F   F66       1.0  0.20842  0.20429  0.70781  1.0000
  F   F67       1.0  0.19736  0.70729  0.21722  1.0000
  F   F68       1.0  0.20283  0.70080  0.71629  1.0000
  F   F69       1.0  0.45924  0.20713  0.20187  1.0000
  F   F70       1.0  0.45188  0.20476  0.69739  1.0000
  F   F71       1.0  0.45216  0.70988  0.21737  1.0000
  F   F72       1.0  0.45580  0.69726  0.72041  1.0000
  F   F73       1.0  0.69629  0.18151  0.22690  1.0000
  F   F74       1.0  0.70101  0.21479  0.71089  1.0000
  F   F75       1.0  0.71136  0.69880  0.20343  1.0000
  F   F76       1.0  0.70295  0.70176  0.70215  1.0000
  F   F77       1.0  0.94738  0.20512  0.21292  1.0000
  F   F78       1.0  0.96772  0.21128  0.70327  1.0000
  F   F79       1.0  0.95152  0.69861  0.21532  1.0000
  F   F80       1.0  0.95259  0.69523  0.71046  1.0000
  F   F81       1.0  0.15795  0.08252  0.04393  1.0000
  F   F82       1.0  0.14767  0.09933  0.52997  1.0000
  F   F83       1.0  0.15123  0.59186  0.05006  1.0000
  F   F84       1.0  0.14676  0.58695  0.54986  1.0000
  F   F85       1.0  0.40415  0.10492  0.03318  1.0000
  F   F86       1.0  0.39338  0.08419  0.53911  1.0000
  F   F87       1.0  0.39422  0.57896  0.05676  1.0000
  F   F88       1.0  0.40173  0.60156  0.53780  1.0000
  F   F89       1.0  0.64794  0.08796  0.04180  1.0000
  F   F90       1.0  0.64181  0.11071  0.54523  1.0000
  F   F91       1.0  0.64566  0.59909  0.04113  1.0000
  F   F92       1.0  0.64663  0.58121  0.53280  1.0000
  F   F93       1.0  0.89854  0.07564  0.04249  1.0000
  F   F94       1.0  0.89851  0.07280  0.54669  1.0000
  F   F95       1.0  0.89639  0.58790  0.04168  1.0000
  F   F96       1.0  0.90306  0.59400  0.54227  1.0000
  F   F97       1.0  0.16117  0.19127  0.11139  1.0000
  F   F98       1.0  0.15546  0.20049  0.61707  1.0000
  F   F99       1.0  0.15026  0.70242  0.12667  1.0000
  F   F100      1.0  0.15021  0.69968  0.62398  1.0000
  F   F101      1.0  0.40027  0.18683  0.14766  1.0000
  F   F102      1.0  0.39806  0.20206  0.60486  1.0000
  F   F103      1.0  0.40166  0.69152  0.13131  1.0000
  F   F104      1.0  0.40535  0.70171  0.63746  1.0000
  F   F105      1.0  0.65294  0.19413  0.11663  1.0000
  F   F106      1.0  0.63938  0.19799  0.65771  1.0000
  F   F107      1.0  0.65215  0.69809  0.13217  1.0000
  F   F108      1.0  0.65248  0.69369  0.61415  1.0000
  F   F109      1.0  0.89918  0.21110  0.09863  1.0000
  F   F110      1.0  0.90079  0.18484  0.63508  1.0000
  F   F111      1.0  0.89688  0.69365  0.13091  1.0000
  F   F112      1.0  0.90130  0.68814  0.62413  1.0000
  F   F113      1.0  0.10149  0.29825  0.38571  1.0000
  F   F114      1.0  0.09269  0.30527  0.85917  1.0000
  F   F115      1.0  0.10252  0.78995  0.38259  1.0000
  F   F116      1.0  0.09675  0.79863  0.88067  1.0000
  F   F117      1.0  0.34749  0.30490  0.38735  1.0000
  F   F118      1.0  0.35728  0.29896  0.85758  1.0000
  F   F119      1.0  0.34471  0.81717  0.36771  1.0000
  F   F120      1.0  0.34762  0.81130  0.87697  1.0000
  F   F121      1.0  0.59671  0.29892  0.37383  1.0000
  F   F122      1.0  0.59844  0.30832  0.87868  1.0000
  F   F123      1.0  0.59858  0.80712  0.35760  1.0000
  F   F124      1.0  0.59717  0.80887  0.87805  1.0000
  F   F125      1.0  0.85172  0.29707  0.36982  1.0000
  F   F126      1.0  0.84293  0.29666  0.87358  1.0000
  F   F127      1.0  0.85587  0.79637  0.35075  1.0000
  F   F128      1.0  0.84465  0.81211  0.89246  1.0000
  F   F129      1.0  0.06436  0.25299  0.14353  1.0000
  F   F130      1.0  0.07618  0.25617  0.60741  1.0000
  F   F131      1.0  0.06070  0.75489  0.15799  1.0000
  F   F132      1.0  0.06429  0.75332  0.64084  1.0000
  F   F133      1.0  0.31303  0.25310  0.14437  1.0000
  F   F134      1.0  0.31364  0.25891  0.63660  1.0000
  F   F135      1.0  0.31983  0.75288  0.13917  1.0000
  F   F136      1.0  0.31819  0.75039  0.64631  1.0000
  F   F137      1.0  0.57006  0.25949  0.12800  1.0000
  F   F138      1.0  0.55792  0.24553  0.65726  1.0000
  F   F139      1.0  0.56849  0.75346  0.13837  1.0000
  F   F140      1.0  0.55804  0.73826  0.65651  1.0000
  F   F141      1.0  0.79541  0.25254  0.16321  1.0000
  F   F142      1.0  0.81777  0.24291  0.63093  1.0000
  F   F143      1.0  0.80958  0.74759  0.15420  1.0000
  F   F144      1.0  0.81338  0.76514  0.62998  1.0000
  F   F145      1.0  0.12585  0.35938  0.11061  1.0000
  F   F146      1.0  0.12140  0.37651  0.60977  1.0000
  F   F147      1.0  0.12700  0.86715  0.10617  1.0000
  F   F148      1.0  0.12414  0.88217  0.59686  1.0000
  F   F149      1.0  0.37205  0.35766  0.10833  1.0000
  F   F150      1.0  0.37440  0.35976  0.61633  1.0000
  F   F151      1.0  0.37425  0.86504  0.11529  1.0000
  F   F152      1.0  0.37672  0.87940  0.59579  1.0000
  F   F153      1.0  0.62573  0.37276  0.11047  1.0000
  F   F154      1.0  0.62579  0.37493  0.61415  1.0000
  F   F155      1.0  0.62328  0.87293  0.10186  1.0000
  F   F156      1.0  0.62175  0.86758  0.60584  1.0000
  F   F157      1.0  0.87733  0.38368  0.09077  1.0000
  F   F158      1.0  0.87448  0.35484  0.62513  1.0000
  F   F159      1.0  0.87685  0.86317  0.11115  1.0000
  F   F160      1.0  0.87619  0.87774  0.58793  1.0000
  F   F161      1.0  0.18992  0.25744  0.34944  1.0000
  F   F162      1.0  0.18208  0.24522  0.86247  1.0000
  F   F163      1.0  0.18580  0.74540  0.36415  1.0000
  F   F164      1.0  0.18770  0.74892  0.85917  1.0000
  F   F165      1.0  0.43383  0.25335  0.36025  1.0000
  F   F166      1.0  0.44074  0.24695  0.83569  1.0000
  F   F167      1.0  0.42977  0.75233  0.37190  1.0000
  F   F168      1.0  0.42634  0.74330  0.87460  1.0000
  F   F169      1.0  0.68331  0.24294  0.36528  1.0000
  F   F170      1.0  0.68733  0.24602  0.85925  1.0000
  F   F171      1.0  0.68357  0.74186  0.36514  1.0000
  F   F172      1.0  0.69404  0.74943  0.83609  1.0000
  F   F173      1.0  0.94014  0.25100  0.35254  1.0000
  F   F174      1.0  0.93198  0.25565  0.86938  1.0000
  F   F175      1.0  0.93207  0.73929  0.36421  1.0000
  F   F176      1.0  0.93899  0.74737  0.84233  1.0000
  F   F177      1.0  0.12738  0.13952  0.38631  1.0000
  F   F178      1.0  0.12231  0.11280  0.90913  1.0000
  F   F179      1.0  0.12509  0.63483  0.40306  1.0000
  F   F180      1.0  0.12427  0.64282  0.89199  1.0000
  F   F181      1.0  0.37752  0.12800  0.38759  1.0000
  F   F182      1.0  0.37593  0.12364  0.90021  1.0000
  F   F183      1.0  0.37131  0.63823  0.38449  1.0000
  F   F184      1.0  0.37342  0.62524  0.89509  1.0000
  F   F185      1.0  0.61984  0.12105  0.39984  1.0000
  F   F186      1.0  0.62591  0.13762  0.89063  1.0000
  F   F187      1.0  0.62312  0.63161  0.38580  1.0000
  F   F188      1.0  0.62681  0.65011  0.87430  1.0000
  F   F189      1.0  0.87781  0.11614  0.39981  1.0000
  F   F190      1.0  0.87465  0.11354  0.89551  1.0000
  F   F191      1.0  0.87706  0.61823  0.40113  1.0000
  F   F192      1.0  0.87840  0.63719  0.87840  1.0000
  F   F193      1.0  0.00656  0.36638  0.07740  1.0000
  F   F194      1.0  0.00678  0.37160  0.58089  1.0000
  F   F195      1.0  0.00647  0.86697  0.08352  1.0000
  F   F196      1.0  0.00355  0.85819  0.57938  1.0000
  F   F197      1.0  0.25339  0.36215  0.07913  1.0000
  F   F198      1.0  0.25779  0.37669  0.57560  1.0000
  F   F199      1.0  0.25666  0.87066  0.08724  1.0000
  F   F200      1.0  0.25807  0.84785  0.59285  1.0000
  F   F201      1.0  0.50893  0.37913  0.06636  1.0000
  F   F202      1.0  0.50562  0.37498  0.56818  1.0000
  F   F203      1.0  0.51084  0.85473  0.06042  1.0000
  F   F204      1.0  0.50667  0.85356  0.58303  1.0000
  F   F205      1.0  0.75234  0.36937  0.07084  1.0000
  F   F206      1.0  0.75786  0.36922  0.55696  1.0000
  F   F207      1.0  0.75503  0.87904  0.05987  1.0000
  F   F208      1.0  0.75215  0.86178  0.57631  1.0000
  F   F209      1.0  0.06819  0.48179  0.17165  1.0000
  F   F210      1.0  0.06732  0.47726  0.69459  1.0000
  F   F211      1.0  0.06948  0.98347  0.17770  1.0000
  F   F212      1.0  0.07161  0.98807  0.67008  1.0000
  F   F213      1.0  0.31111  0.48773  0.18385  1.0000
  F   F214      1.0  0.32815  0.49774  0.66290  1.0000
  F   F215      1.0  0.32218  0.99327  0.16898  1.0000
  F   F216      1.0  0.31818  0.97808  0.67829  1.0000
  F   F217      1.0  0.56403  0.49003  0.16976  1.0000
  F   F218      1.0  0.56340  0.48071  0.68103  1.0000
  F   F219      1.0  0.56871  0.97235  0.18978  1.0000
  F   F220      1.0  0.56559  0.97360  0.68655  1.0000
  F   F221      1.0  0.81620  0.48283  0.17905  1.0000
  F   F222      1.0  0.82227  0.48366  0.66614  1.0000
  F   F223      1.0  0.81501  0.98453  0.17721  1.0000
  F   F224      1.0  0.81795  0.97742  0.67720  1.0000
  F   F225      1.0  0.24101  0.14351  0.42827  1.0000
  F   F226      1.0  0.25158  0.14763  0.89168  1.0000
  F   F227      1.0  0.23932  0.63401  0.43936  1.0000
  F   F228      1.0  0.24367  0.64006  0.92266  1.0000
  F   F229      1.0  0.49147  0.13601  0.42337  1.0000
  F   F230      1.0  0.48873  0.13447  0.93522  1.0000
  F   F231      1.0  0.49243  0.62640  0.42598  1.0000
  F   F232      1.0  0.48648  0.63807  0.92677  1.0000
  F   F233      1.0  0.74134  0.13411  0.42354  1.0000
  F   F234      1.0  0.74126  0.14031  0.93224  1.0000
  F   F235      1.0  0.74490  0.64040  0.42542  1.0000
  F   F236      1.0  0.74060  0.64072  0.92841  1.0000
  F   F237      1.0  0.99212  0.13159  0.43065  1.0000
  F   F238      1.0  0.98827  0.13201  0.94024  1.0000
  F   F239      1.0  0.99664  0.63475  0.42152  1.0000
  F   F240      1.0  0.98981  0.65476  0.92748  1.0000
  F   F241      1.0  0.17974  0.01699  0.34367  1.0000
  F   F242      1.0  0.18277  0.02636  0.82398  1.0000
  F   F243      1.0  0.17897  0.51386  0.33103  1.0000
  F   F244      1.0  0.17822  0.51440  0.83159  1.0000
  F   F245      1.0  0.42913  0.01368  0.32852  1.0000
  F   F246      1.0  0.43637  0.01735  0.82229  1.0000
  F   F247      1.0  0.43469  0.51971  0.32471  1.0000
  F   F248      1.0  0.43149  0.50383  0.84002  1.0000
  F   F249      1.0  0.67725  0.00056  0.32931  1.0000
  F   F250      1.0  0.68923  0.01926  0.80192  1.0000
  F   F251      1.0  0.67197  0.51560  0.32713  1.0000
  F   F252      1.0  0.68785  0.51432  0.81575  1.0000
  F   F253      1.0  0.93705  0.01432  0.31770  1.0000
  F   F254      1.0  0.93798  0.00973  0.82458  1.0000
  F   F255      1.0  0.93957  0.51008  0.31112  1.0000
  F   F256      1.0  0.92712  0.51118  0.83766  1.0000
  F   F257      1.0  0.00486  0.24269  0.00350  1.0000
  F   F258      1.0  0.00016  0.25836  0.48854  1.0000
  F   F259      1.0  0.99941  0.74536  0.01196  1.0000
  F   F260      1.0  0.99516  0.73874  0.50637  1.0000
  F   F261      1.0  0.25112  0.25466  0.98709  1.0000
  F   F262      1.0  0.25124  0.26107  0.49830  1.0000
  F   F263      1.0  0.25271  0.77702  0.98246  1.0000
  F   F264      1.0  0.24981  0.75530  0.50614  1.0000
  F   F265      1.0  0.50446  0.24992  0.99976  1.0000
  F   F266      1.0  0.49469  0.24415  0.49283  1.0000
  F   F267      1.0  0.49429  0.73183  0.00382  1.0000
  F   F268      1.0  0.49682  0.73293  0.50699  1.0000
  F   F269      1.0  0.75133  0.25877  0.99118  1.0000
  F   F270      1.0  0.74700  0.24454  0.49503  1.0000
  F   F271      1.0  0.75259  0.74438  0.00407  1.0000
  F   F272      1.0  0.75387  0.76161  0.48541  1.0000
  F   F273      1.0  0.12978  0.99811  0.26074  1.0000
  F   F274      1.0  0.12968  0.00575  0.74731  1.0000
  F   F275      1.0  0.12079  0.50144  0.25139  1.0000
  F   F276      1.0  0.13088  0.50033  0.74616  1.0000
  F   F277      1.0  0.37490  0.00678  0.25079  1.0000
  F   F278      1.0  0.37960  0.01084  0.75033  1.0000
  F   F279      1.0  0.37124  0.49148  0.25158  1.0000
  F   F280      1.0  0.37932  0.50377  0.74373  1.0000
  F   F281      1.0  0.62488  0.99622  0.24682  1.0000
  F   F282      1.0  0.62765  0.00244  0.73919  1.0000
  F   F283      1.0  0.62799  0.49435  0.24769  1.0000
  F   F284      1.0  0.62762  0.49735  0.74635  1.0000
  F   F285      1.0  0.86971  0.99271  0.25315  1.0000
  F   F286      1.0  0.87686  0.00468  0.74452  1.0000
  F   F287      1.0  0.87500  0.50160  0.25040  1.0000
  F   F288      1.0  0.86990  0.49094  0.76053  1.0000
  F   F289      1.0  0.03864  0.03155  0.02754  1.0000
  F   F290      1.0  0.04634  0.02120  0.51258  1.0000
  F   F291      1.0  0.04764  0.53572  0.01351  1.0000
  F   F292      1.0  0.04621  0.52884  0.52668  1.0000
  F   F293      1.0  0.29262  0.03793  0.02270  1.0000
  F   F294      1.0  0.29566  0.03996  0.51899  1.0000
  F   F295      1.0  0.29854  0.52384  0.01568  1.0000
  F   F296      1.0  0.29282  0.53992  0.52671  1.0000
  F   F297      1.0  0.53738  0.02501  0.03158  1.0000
  F   F298      1.0  0.54136  0.01984  0.52854  1.0000
  F   F299      1.0  0.54099  0.53976  0.01967  1.0000
  F   F300      1.0  0.54406  0.53992  0.52707  1.0000
  F   F301      1.0  0.78948  0.03609  0.02991  1.0000
  F   F302      1.0  0.79355  0.03117  0.51647  1.0000
  F   F303      1.0  0.79866  0.53396  0.00993  1.0000
  F   F304      1.0  0.79172  0.52979  0.52746  1.0000
  F   F305      1.0  0.23526  0.42226  0.22861  1.0000
  F   F306      1.0  0.23202  0.42840  0.72352  1.0000
  F   F307      1.0  0.23377  0.92336  0.23307  1.0000
  F   F308      1.0  0.23180  0.92158  0.72036  1.0000
  F   F309      1.0  0.48311  0.42299  0.22203  1.0000
  F   F310      1.0  0.48804  0.42060  0.72645  1.0000
  F   F311      1.0  0.48301  0.91365  0.22475  1.0000
  F   F312      1.0  0.48236  0.90570  0.73384  1.0000
  F   F313      1.0  0.73860  0.39569  0.23132  1.0000
  F   F314      1.0  0.73921  0.40752  0.72014  1.0000
  F   F315      1.0  0.73300  0.90154  0.23035  1.0000
  F   F316      1.0  0.73277  0.92200  0.70957  1.0000
  F   F317      1.0  0.98643  0.41284  0.22402  1.0000
  F   F318      1.0  0.98586  0.41581  0.73239  1.0000
  F   F319      1.0  0.98719  0.89926  0.23529  1.0000
  F   F320      1.0  0.98135  0.91904  0.71957  1.0000
  F   F321      1.0  0.21020  0.46754  0.48441  1.0000
  F   F322      1.0  0.20968  0.46523  0.97484  1.0000
  F   F323      1.0  0.21297  0.97224  0.48451  1.0000
  F   F324      1.0  0.21389  0.97418  0.96787  1.0000
  F   F325      1.0  0.45189  0.47557  0.48151  1.0000
  F   F326      1.0  0.45355  0.45884  0.98085  1.0000
  F   F327      1.0  0.46000  0.96864  0.47203  1.0000
  F   F328      1.0  0.45157  0.96103  0.98684  1.0000
  F   F329      1.0  0.71079  0.47103  0.46146  1.0000
  F   F330      1.0  0.70512  0.47046  0.97550  1.0000
  F   F331      1.0  0.70072  0.97795  0.48167  1.0000
  F   F332      1.0  0.70847  0.97471  0.96384  1.0000
  F   F333      1.0  0.95428  0.46049  0.49008  1.0000
  F   F334      1.0  0.96137  0.47223  0.98395  1.0000
  F   F335      1.0  0.96121  0.96206  0.47189  1.0000
  F   F336      1.0  0.96321  0.97078  0.97214  1.0000
  F   F337      1.0  0.01813  0.09624  0.26266  1.0000
  F   F338      1.0  0.01685  0.09186  0.77450  1.0000
  F   F339      1.0  0.01492  0.58352  0.27599  1.0000
  F   F340      1.0  0.01353  0.58477  0.77874  1.0000
  F   F341      1.0  0.26837  0.08401  0.27055  1.0000
  F   F342      1.0  0.27287  0.06917  0.77455  1.0000
  F   F343      1.0  0.25919  0.59688  0.26204  1.0000
  F   F344      1.0  0.25865  0.59750  0.78258  1.0000
  F   F345      1.0  0.51718  0.08580  0.27164  1.0000
  F   F346      1.0  0.51380  0.07647  0.78404  1.0000
  F   F347      1.0  0.51108  0.58907  0.25769  1.0000
  F   F348      1.0  0.51513  0.57477  0.78959  1.0000
  F   F349      1.0  0.76306  0.08175  0.26203  1.0000
  F   F350      1.0  0.76284  0.09525  0.74837  1.0000
  F   F351      1.0  0.76618  0.58915  0.27042  1.0000
  F   F352      1.0  0.76416  0.58624  0.76871  1.0000
  F   F353      1.0  0.10507  0.41595  0.45531  1.0000
  F   F354      1.0  0.10228  0.39299  0.95953  1.0000
  F   F355      1.0  0.09733  0.89960  0.46332  1.0000
  F   F356      1.0  0.09934  0.90261  0.96109  1.0000
  F   F357      1.0  0.35213  0.42383  0.45065  1.0000
  F   F358      1.0  0.35096  0.39899  0.95645  1.0000
  F   F359      1.0  0.35153  0.90165  0.46540  1.0000
  F   F360      1.0  0.34951  0.91917  0.96261  1.0000
  F   F361      1.0  0.59836  0.39821  0.47700  1.0000
  F   F362      1.0  0.60053  0.42162  0.96084  1.0000
  F   F363      1.0  0.60093  0.89278  0.46408  1.0000
  F   F364      1.0  0.60513  0.93624  0.94801  1.0000
  F   F365      1.0  0.85442  0.41649  0.45055  1.0000
  F   F366      1.0  0.85110  0.38013  0.96426  1.0000
  F   F367      1.0  0.84719  0.89605  0.45629  1.0000
  F   F368      1.0  0.85365  0.92818  0.96587  1.0000
  F   F369      1.0  0.04983  0.29949  0.28037  1.0000
  F   F370      1.0  0.04739  0.28483  0.77507  1.0000
  F   F371      1.0  0.04875  0.80303  0.29742  1.0000
  F   F372      1.0  0.04395  0.79825  0.78559  1.0000
  F   F373      1.0  0.30022  0.30315  0.28537  1.0000
  F   F374      1.0  0.29277  0.31417  0.78064  1.0000
  F   F375      1.0  0.29163  0.79978  0.29172  1.0000
  F   F376      1.0  0.29724  0.79297  0.78304  1.0000
  F   F377      1.0  0.54691  0.30478  0.28107  1.0000
  F   F378      1.0  0.54426  0.29145  0.79459  1.0000
  F   F379      1.0  0.54351  0.78808  0.28722  1.0000
  F   F380      1.0  0.54391  0.79795  0.78826  1.0000
  F   F381      1.0  0.80292  0.31005  0.27686  1.0000
  F   F382      1.0  0.79758  0.29345  0.77170  1.0000
  F   F383      1.0  0.79554  0.79440  0.28901  1.0000
  F   F384      1.0  0.80214  0.79336  0.78500  1.0000
