data_image0
_chemical_formula_structural       Hf96F384
_chemical_formula_sum              "Hf96 F384"
_cell_length_a       31.0287
_cell_length_b       15.5166
_cell_length_c       15.5069
_cell_angle_alpha    63.342
_cell_angle_beta     63.342
_cell_angle_gamma    80.1625

_space_group_name_H-M_alt    "P 1"
_space_group_IT_number       1

loop_
  _space_group_symop_operation_xyz
  'x, y, z'

loop_
  _atom_site_type_symbol
  _atom_site_label
  _atom_site_symmetry_multiplicity
  _atom_site_fract_x
  _atom_site_fract_y
  _atom_site_fract_z
  _atom_site_occupancy
  Hf  Hf1       1.0  0.19740  0.11266  0.36447  1.0000
  Hf  Hf2       1.0  0.19899  0.11957  0.86468  1.0000
  Hf  Hf3       1.0  0.19699  0.61333  0.37031  1.0000
  Hf  Hf4       1.0  0.19529  0.61023  0.87618  1.0000
  Hf  Hf5       1.0  0.44527  0.10452  0.37192  1.0000
  Hf  Hf6       1.0  0.44806  0.10738  0.86906  1.0000
  Hf  Hf7       1.0  0.44566  0.60578  0.37640  1.0000
  Hf  Hf8       1.0  0.44643  0.59964  0.87344  1.0000
  Hf  Hf9       1.0  0.69215  0.09881  0.38999  1.0000
  Hf  Hf10      1.0  0.69853  0.09643  0.87467  1.0000
  Hf  Hf11      1.0  0.69733  0.60661  0.37552  1.0000
  Hf  Hf12      1.0  0.69500  0.59879  0.88037  1.0000
  Hf  Hf13      1.0  0.94578  0.10779  0.36592  1.0000
  Hf  Hf14      1.0  0.94898  0.10970  0.86518  1.0000
  Hf  Hf15      1.0  0.94549  0.61281  0.37029  1.0000
  Hf  Hf16      1.0  0.95059  0.60960  0.86678  1.0000
  Hf  Hf17      1.0  0.05467  0.40562  0.11679  1.0000
  Hf  Hf18      1.0  0.05295  0.40539  0.62006  1.0000
  Hf  Hf19      1.0  0.05475  0.90862  0.10355  1.0000
  Hf  Hf20      1.0  0.05034  0.89766  0.63214  1.0000
  Hf  Hf21      1.0  0.30644  0.38461  0.12805  1.0000
  Hf  Hf22      1.0  0.30561  0.39722  0.61954  1.0000
  Hf  Hf23      1.0  0.30487  0.89226  0.11622  1.0000
  Hf  Hf24      1.0  0.30313  0.89139  0.62251  1.0000
  Hf  Hf25      1.0  0.55199  0.38714  0.12627  1.0000
  Hf  Hf26      1.0  0.55419  0.38226  0.62760  1.0000
  Hf  Hf27      1.0  0.55120  0.88176  0.13840  1.0000
  Hf  Hf28      1.0  0.55280  0.88386  0.63258  1.0000
  Hf  Hf29      1.0  0.80477  0.39448  0.12595  1.0000
  Hf  Hf30      1.0  0.80177  0.38892  0.62453  1.0000
  Hf  Hf31      1.0  0.80245  0.88873  0.13455  1.0000
  Hf  Hf32      1.0  0.80296  0.88719  0.62939  1.0000
  Hf  Hf33      1.0  0.05619  0.18445  0.40552  1.0000
  Hf  Hf34      1.0  0.05766  0.19620  0.90748  1.0000
  Hf  Hf35      1.0  0.05485  0.68680  0.42073  1.0000
  Hf  Hf36      1.0  0.05694  0.69345  0.91724  1.0000
  Hf  Hf37      1.0  0.30605  0.18831  0.41364  1.0000
  Hf  Hf38      1.0  0.30644  0.18476  0.91584  1.0000
  Hf  Hf39      1.0  0.30559  0.68064  0.41797  1.0000
  Hf  Hf40      1.0  0.30340  0.67495  0.92527  1.0000
  Hf  Hf41      1.0  0.55216  0.17458  0.42123  1.0000
  Hf  Hf42      1.0  0.55736  0.17167  0.92268  1.0000
  Hf  Hf43      1.0  0.55706  0.68104  0.41475  1.0000
  Hf  Hf44      1.0  0.55858  0.67349  0.91649  1.0000
  Hf  Hf45      1.0  0.80416  0.17792  0.41741  1.0000
  Hf  Hf46      1.0  0.80569  0.18670  0.91681  1.0000
  Hf  Hf47      1.0  0.80453  0.67865  0.42396  1.0000
  Hf  Hf48      1.0  0.80574  0.68061  0.92364  1.0000
  Hf  Hf49      1.0  0.15945  0.39393  0.32437  1.0000
  Hf  Hf50      1.0  0.16202  0.39782  0.82576  1.0000
  Hf  Hf51      1.0  0.16013  0.90059  0.32658  1.0000
  Hf  Hf52      1.0  0.16298  0.89959  0.82007  1.0000
  Hf  Hf53      1.0  0.40768  0.38252  0.34453  1.0000
  Hf  Hf54      1.0  0.40632  0.37963  0.84211  1.0000
  Hf  Hf55      1.0  0.40881  0.87973  0.33882  1.0000
  Hf  Hf56      1.0  0.40999  0.88241  0.83282  1.0000
  Hf  Hf57      1.0  0.65903  0.38912  0.33278  1.0000
  Hf  Hf58      1.0  0.66040  0.37186  0.83334  1.0000
  Hf  Hf59      1.0  0.66014  0.87944  0.33525  1.0000
  Hf  Hf60      1.0  0.65661  0.88175  0.84184  1.0000
  Hf  Hf61      1.0  0.90521  0.38669  0.33544  1.0000
  Hf  Hf62      1.0  0.90954  0.39136  0.83133  1.0000
  Hf  Hf63      1.0  0.90822  0.89305  0.33511  1.0000
  Hf  Hf64      1.0  0.90614  0.88328  0.84070  1.0000
  Hf  Hf65      1.0  0.19602  0.32652  0.07489  1.0000
  Hf  Hf66      1.0  0.19461  0.33097  0.57568  1.0000
  Hf  Hf67      1.0  0.19282  0.82039  0.07849  1.0000
  Hf  Hf68      1.0  0.19343  0.82517  0.57877  1.0000
  Hf  Hf69      1.0  0.44601  0.31311  0.08531  1.0000
  Hf  Hf70      1.0  0.44603  0.31170  0.58304  1.0000
  Hf  Hf71      1.0  0.44284  0.81335  0.08618  1.0000
  Hf  Hf72      1.0  0.44605  0.81766  0.58315  1.0000
  Hf  Hf73      1.0  0.69206  0.31984  0.08975  1.0000
  Hf  Hf74      1.0  0.69498  0.31185  0.58052  1.0000
  Hf  Hf75      1.0  0.69534  0.80650  0.08994  1.0000
  Hf  Hf76      1.0  0.68991  0.80674  0.59586  1.0000
  Hf  Hf77      1.0  0.94941  0.32588  0.07375  1.0000
  Hf  Hf78      1.0  0.94625  0.32488  0.58005  1.0000
  Hf  Hf79      1.0  0.94282  0.82262  0.08555  1.0000
  Hf  Hf80      1.0  0.94171  0.82425  0.58360  1.0000
  Hf  Hf81      1.0  0.08992  0.12093  0.15950  1.0000
  Hf  Hf82      1.0  0.09304  0.12520  0.65628  1.0000
  Hf  Hf83      1.0  0.09294  0.61951  0.16638  1.0000
  Hf  Hf84      1.0  0.09276  0.62594  0.66354  1.0000
  Hf  Hf85      1.0  0.34425  0.10747  0.16988  1.0000
  Hf  Hf86      1.0  0.34082  0.10955  0.66245  1.0000
  Hf  Hf87      1.0  0.34061  0.60909  0.16744  1.0000
  Hf  Hf88      1.0  0.33935  0.60644  0.67071  1.0000
  Hf  Hf89      1.0  0.59052  0.11196  0.16542  1.0000
  Hf  Hf90      1.0  0.58895  0.10818  0.67430  1.0000
  Hf  Hf91      1.0  0.58910  0.61035  0.16841  1.0000
  Hf  Hf92      1.0  0.59072  0.60456  0.66777  1.0000
  Hf  Hf93      1.0  0.84291  0.12010  0.15780  1.0000
  Hf  Hf94      1.0  0.84080  0.11546  0.66507  1.0000
  Hf  Hf95      1.0  0.84138  0.61127  0.16870  1.0000
  Hf  Hf96      1.0  0.84053  0.60419  0.66888  1.0000
  F   F1        1.0  0.07422  0.12911  0.29858  1.0000
  F   F2        1.0  0.07712  0.12171  0.80662  1.0000
  F   F3        1.0  0.07784  0.62107  0.30407  1.0000
  F   F4        1.0  0.08219  0.64718  0.79704  1.0000
  F   F5        1.0  0.32826  0.13313  0.30540  1.0000
  F   F6        1.0  0.33175  0.14915  0.77917  1.0000
  F   F7        1.0  0.33640  0.62703  0.30116  1.0000
  F   F8        1.0  0.32171  0.61608  0.81515  1.0000
  F   F9        1.0  0.58177  0.12601  0.29584  1.0000
  F   F10       1.0  0.58226  0.13015  0.80706  1.0000
  F   F11       1.0  0.57152  0.61749  0.31858  1.0000
  F   F12       1.0  0.58592  0.62017  0.80093  1.0000
  F   F13       1.0  0.82930  0.12939  0.31297  1.0000
  F   F14       1.0  0.83266  0.14022  0.80282  1.0000
  F   F15       1.0  0.82496  0.61737  0.31813  1.0000
  F   F16       1.0  0.83016  0.61872  0.80759  1.0000
  F   F17       1.0  0.18096  0.35492  0.43966  1.0000
  F   F18       1.0  0.18383  0.34305  0.95048  1.0000
  F   F19       1.0  0.18251  0.85766  0.45144  1.0000
  F   F20       1.0  0.18082  0.84659  0.95041  1.0000
  F   F21       1.0  0.44575  0.34010  0.43974  1.0000
  F   F22       1.0  0.43925  0.32972  0.94342  1.0000
  F   F23       1.0  0.43938  0.82670  0.44863  1.0000
  F   F24       1.0  0.42681  0.82196  0.95946  1.0000
  F   F25       1.0  0.69614  0.34941  0.42906  1.0000
  F   F26       1.0  0.68033  0.33531  0.95045  1.0000
  F   F27       1.0  0.67993  0.82683  0.45918  1.0000
  F   F28       1.0  0.69069  0.83248  0.94742  1.0000
  F   F29       1.0  0.93799  0.33755  0.44159  1.0000
  F   F30       1.0  0.93968  0.34564  0.94169  1.0000
  F   F31       1.0  0.93396  0.85768  0.44921  1.0000
  F   F32       1.0  0.93402  0.84003  0.95655  1.0000
  F   F33       1.0  0.17114  0.37589  0.18848  1.0000
  F   F34       1.0  0.17334  0.38766  0.68654  1.0000
  F   F35       1.0  0.17576  0.88610  0.19278  1.0000
  F   F36       1.0  0.17288  0.88817  0.68580  1.0000
  F   F37       1.0  0.42269  0.36410  0.19944  1.0000
  F   F38       1.0  0.42039  0.36520  0.70366  1.0000
  F   F39       1.0  0.41522  0.86453  0.20815  1.0000
  F   F40       1.0  0.42188  0.87022  0.69633  1.0000
  F   F41       1.0  0.67192  0.38810  0.19048  1.0000
  F   F42       1.0  0.66946  0.33628  0.71356  1.0000
  F   F43       1.0  0.67445  0.85879  0.19339  1.0000
  F   F44       1.0  0.66590  0.86496  0.70216  1.0000
  F   F45       1.0  0.92328  0.39394  0.18186  1.0000
  F   F46       1.0  0.92047  0.36862  0.69858  1.0000
  F   F47       1.0  0.92579  0.88430  0.18933  1.0000
  F   F48       1.0  0.92255  0.88147  0.70351  1.0000
  F   F49       1.0  0.06511  0.16841  0.04928  1.0000
  F   F50       1.0  0.07608  0.16573  0.52929  1.0000
  F   F51       1.0  0.06853  0.66831  0.04833  1.0000
  F   F52       1.0  0.06396  0.67477  0.55110  1.0000
  F   F53       1.0  0.31592  0.16326  0.04687  1.0000
  F   F54       1.0  0.30789  0.14973  0.56504  1.0000
  F   F55       1.0  0.30356  0.65065  0.06551  1.0000
  F   F56       1.0  0.30511  0.65988  0.57545  1.0000
  F   F57       1.0  0.56048  0.15453  0.05653  1.0000
  F   F58       1.0  0.56924  0.15221  0.55341  1.0000
  F   F59       1.0  0.56411  0.66073  0.04896  1.0000
  F   F60       1.0  0.55704  0.64553  0.56513  1.0000
  F   F61       1.0  0.81173  0.16405  0.05678  1.0000
  F   F62       1.0  0.81171  0.16719  0.54989  1.0000
  F   F63       1.0  0.81920  0.66093  0.05100  1.0000
  F   F64       1.0  0.80824  0.63847  0.56282  1.0000
  F   F65       1.0  0.20898  0.20860  0.20633  1.0000
  F   F66       1.0  0.20737  0.21974  0.71213  1.0000
  F   F67       1.0  0.20858  0.71018  0.21513  1.0000
  F   F68       1.0  0.20051  0.71096  0.70361  1.0000
  F   F69       1.0  0.45137  0.18938  0.21908  1.0000
  F   F70       1.0  0.45426  0.20252  0.71108  1.0000
  F   F71       1.0  0.45653  0.69854  0.21038  1.0000
  F   F72       1.0  0.45120  0.69023  0.70773  1.0000
  F   F73       1.0  0.69046  0.20076  0.21731  1.0000
  F   F74       1.0  0.70243  0.17667  0.71228  1.0000
  F   F75       1.0  0.70782  0.68734  0.20958  1.0000
  F   F76       1.0  0.69829  0.70078  0.72737  1.0000
  F   F77       1.0  0.94886  0.21995  0.20787  1.0000
  F   F78       1.0  0.96149  0.20503  0.70646  1.0000
  F   F79       1.0  0.95525  0.71807  0.21268  1.0000
  F   F80       1.0  0.95268  0.70417  0.71540  1.0000
  F   F81       1.0  0.14956  0.11007  0.03671  1.0000
  F   F82       1.0  0.15581  0.10259  0.54824  1.0000
  F   F83       1.0  0.15203  0.60674  0.03051  1.0000
  F   F84       1.0  0.14190  0.58733  0.52725  1.0000
  F   F85       1.0  0.40510  0.08592  0.03705  1.0000
  F   F86       1.0  0.40055  0.08500  0.53295  1.0000
  F   F87       1.0  0.39945  0.59240  0.05034  1.0000
  F   F88       1.0  0.39084  0.60206  0.53952  1.0000
  F   F89       1.0  0.64301  0.07893  0.03241  1.0000
  F   F90       1.0  0.65298  0.08500  0.54157  1.0000
  F   F91       1.0  0.64948  0.59168  0.04627  1.0000
  F   F92       1.0  0.64603  0.58819  0.53350  1.0000
  F   F93       1.0  0.89164  0.08871  0.03758  1.0000
  F   F94       1.0  0.89231  0.10167  0.54732  1.0000
  F   F95       1.0  0.90372  0.58879  0.05269  1.0000
  F   F96       1.0  0.89644  0.59126  0.54579  1.0000
  F   F97       1.0  0.14571  0.20237  0.13609  1.0000
  F   F98       1.0  0.14931  0.21437  0.63458  1.0000
  F   F99       1.0  0.15518  0.69142  0.13153  1.0000
  F   F100      1.0  0.15240  0.70577  0.60483  1.0000
  F   F101      1.0  0.40660  0.18119  0.12951  1.0000
  F   F102      1.0  0.41074  0.18767  0.60813  1.0000
  F   F103      1.0  0.39792  0.69966  0.13328  1.0000
  F   F104      1.0  0.39463  0.69277  0.62221  1.0000
  F   F105      1.0  0.65097  0.18552  0.10713  1.0000
  F   F106      1.0  0.64817  0.20542  0.61253  1.0000
  F   F107      1.0  0.65011  0.69507  0.12546  1.0000
  F   F108      1.0  0.65486  0.68133  0.62819  1.0000
  F   F109      1.0  0.90660  0.19241  0.10976  1.0000
  F   F110      1.0  0.90393  0.20597  0.62560  1.0000
  F   F111      1.0  0.90214  0.68946  0.14315  1.0000
  F   F112      1.0  0.90240  0.70316  0.63480  1.0000
  F   F113      1.0  0.09906  0.32896  0.37634  1.0000
  F   F114      1.0  0.10097  0.32252  0.86196  1.0000
  F   F115      1.0  0.10311  0.82425  0.37789  1.0000
  F   F116      1.0  0.10324  0.81403  0.86686  1.0000
  F   F117      1.0  0.34399  0.29697  0.39449  1.0000
  F   F118      1.0  0.34493  0.31168  0.87414  1.0000
  F   F119      1.0  0.34800  0.78159  0.38687  1.0000
  F   F120      1.0  0.35469  0.78863  0.89118  1.0000
  F   F121      1.0  0.59752  0.28822  0.37429  1.0000
  F   F122      1.0  0.59665  0.29997  0.89578  1.0000
  F   F123      1.0  0.60114  0.80210  0.37231  1.0000
  F   F124      1.0  0.59628  0.80603  0.87166  1.0000
  F   F125      1.0  0.84547  0.29355  0.36578  1.0000
  F   F126      1.0  0.84681  0.31042  0.88044  1.0000
  F   F127      1.0  0.84355  0.79801  0.37668  1.0000
  F   F128      1.0  0.84729  0.81102  0.87591  1.0000
  F   F129      1.0  0.06502  0.26163  0.13466  1.0000
  F   F130      1.0  0.06356  0.25819  0.63659  1.0000
  F   F131      1.0  0.06009  0.75286  0.16308  1.0000
  F   F132      1.0  0.05806  0.75746  0.64677  1.0000
  F   F133      1.0  0.31000  0.24384  0.14864  1.0000
  F   F134      1.0  0.31777  0.25560  0.63081  1.0000
  F   F135      1.0  0.31566  0.75525  0.12436  1.0000
  F   F136      1.0  0.30252  0.75105  0.66994  1.0000
  F   F137      1.0  0.56497  0.25507  0.13652  1.0000
  F   F138      1.0  0.55091  0.24469  0.65576  1.0000
  F   F139      1.0  0.56595  0.74087  0.14968  1.0000
  F   F140      1.0  0.56748  0.74913  0.64164  1.0000
  F   F141      1.0  0.82473  0.25277  0.13920  1.0000
  F   F142      1.0  0.80653  0.24166  0.65309  1.0000
  F   F143      1.0  0.81774  0.73988  0.15581  1.0000
  F   F144      1.0  0.82140  0.74113  0.63930  1.0000
  F   F145      1.0  0.12521  0.38283  0.10253  1.0000
  F   F146      1.0  0.12632  0.38613  0.59519  1.0000
  F   F147      1.0  0.12367  0.86373  0.12112  1.0000
  F   F148      1.0  0.12143  0.85646  0.62960  1.0000
  F   F149      1.0  0.37568  0.34519  0.12285  1.0000
  F   F150      1.0  0.37598  0.36639  0.59579  1.0000
  F   F151      1.0  0.37391  0.87931  0.10271  1.0000
  F   F152      1.0  0.37424  0.84947  0.61263  1.0000
  F   F153      1.0  0.62541  0.36402  0.11763  1.0000
  F   F154      1.0  0.62809  0.36111  0.60843  1.0000
  F   F155      1.0  0.61863  0.84490  0.14487  1.0000
  F   F156      1.0  0.62200  0.87183  0.61227  1.0000
  F   F157      1.0  0.87826  0.37641  0.09772  1.0000
  F   F158      1.0  0.87345  0.37062  0.60097  1.0000
  F   F159      1.0  0.87151  0.86375  0.12656  1.0000
  F   F160      1.0  0.87605  0.88109  0.60574  1.0000
  F   F161      1.0  0.18568  0.25433  0.35526  1.0000
  F   F162      1.0  0.18324  0.25944  0.86144  1.0000
  F   F163      1.0  0.18406  0.75472  0.37482  1.0000
  F   F164      1.0  0.18596  0.75642  0.85151  1.0000
  F   F165      1.0  0.43481  0.24345  0.36155  1.0000
  F   F166      1.0  0.43765  0.24621  0.85318  1.0000
  F   F167      1.0  0.43729  0.74581  0.35262  1.0000
  F   F168      1.0  0.43764  0.73212  0.85810  1.0000
  F   F169      1.0  0.68167  0.24150  0.37126  1.0000
  F   F170      1.0  0.69366  0.23603  0.86119  1.0000
  F   F171      1.0  0.68507  0.74972  0.34955  1.0000
  F   F172      1.0  0.67955  0.74488  0.87412  1.0000
  F   F173      1.0  0.92529  0.24733  0.36515  1.0000
  F   F174      1.0  0.93530  0.25265  0.84786  1.0000
  F   F175      1.0  0.92450  0.74713  0.37869  1.0000
  F   F176      1.0  0.93004  0.74997  0.86754  1.0000
  F   F177      1.0  0.12842  0.14532  0.36425  1.0000
  F   F178      1.0  0.12626  0.13584  0.88684  1.0000
  F   F179      1.0  0.12740  0.65153  0.36865  1.0000
  F   F180      1.0  0.12429  0.62700  0.90434  1.0000
  F   F181      1.0  0.37238  0.12898  0.39487  1.0000
  F   F182      1.0  0.37688  0.12876  0.89532  1.0000
  F   F183      1.0  0.37491  0.62180  0.39863  1.0000
  F   F184      1.0  0.37386  0.60055  0.91987  1.0000
  F   F185      1.0  0.62521  0.13099  0.38397  1.0000
  F   F186      1.0  0.62708  0.15222  0.87549  1.0000
  F   F187      1.0  0.62642  0.63676  0.38132  1.0000
  F   F188      1.0  0.62154  0.62183  0.90533  1.0000
  F   F189      1.0  0.87455  0.10854  0.40748  1.0000
  F   F190      1.0  0.87768  0.14788  0.88686  1.0000
  F   F191      1.0  0.87291  0.62894  0.40534  1.0000
  F   F192      1.0  0.87426  0.63667  0.90099  1.0000
  F   F193      1.0  0.00928  0.37424  0.06310  1.0000
  F   F194      1.0  0.00820  0.36897  0.56884  1.0000
  F   F195      1.0  0.01184  0.86686  0.06002  1.0000
  F   F196      1.0  0.00286  0.87240  0.57670  1.0000
  F   F197      1.0  0.26049  0.36286  0.06473  1.0000
  F   F198      1.0  0.25479  0.36585  0.58471  1.0000
  F   F199      1.0  0.25529  0.88010  0.05035  1.0000
  F   F200      1.0  0.25687  0.87080  0.57182  1.0000
  F   F201      1.0  0.51113  0.37243  0.06559  1.0000
  F   F202      1.0  0.51187  0.36676  0.55893  1.0000
  F   F203      1.0  0.50841  0.86121  0.08219  1.0000
  F   F204      1.0  0.51126  0.86154  0.56203  1.0000
  F   F205      1.0  0.75631  0.34020  0.10258  1.0000
  F   F206      1.0  0.75390  0.36171  0.57335  1.0000
  F   F207      1.0  0.75785  0.85589  0.07565  1.0000
  F   F208      1.0  0.75161  0.85033  0.58858  1.0000
  F   F209      1.0  0.07158  0.49535  0.16112  1.0000
  F   F210      1.0  0.06287  0.49728  0.67597  1.0000
  F   F211      1.0  0.06365  0.98249  0.17739  1.0000
  F   F212      1.0  0.07189  0.99367  0.66130  1.0000
  F   F213      1.0  0.32670  0.47831  0.17335  1.0000
  F   F214      1.0  0.32570  0.47943  0.67121  1.0000
  F   F215      1.0  0.31889  0.98207  0.18507  1.0000
  F   F216      1.0  0.32244  0.97964  0.67250  1.0000
  F   F217      1.0  0.57257  0.48710  0.16091  1.0000
  F   F218      1.0  0.56776  0.47719  0.68374  1.0000
  F   F219      1.0  0.57178  0.97802  0.17747  1.0000
  F   F220      1.0  0.56762  0.97786  0.69617  1.0000
  F   F221      1.0  0.81465  0.49037  0.16913  1.0000
  F   F222      1.0  0.82194  0.47378  0.68405  1.0000
  F   F223      1.0  0.81031  0.97516  0.20096  1.0000
  F   F224      1.0  0.81205  0.98741  0.67717  1.0000
  F   F225      1.0  0.24289  0.13701  0.42167  1.0000
  F   F226      1.0  0.24515  0.13522  0.92069  1.0000
  F   F227      1.0  0.24693  0.63536  0.42436  1.0000
  F   F228      1.0  0.23760  0.63870  0.94131  1.0000
  F   F229      1.0  0.49271  0.12429  0.42424  1.0000
  F   F230      1.0  0.49245  0.12844  0.92139  1.0000
  F   F231      1.0  0.49023  0.63277  0.43245  1.0000
  F   F232      1.0  0.49694  0.63119  0.91573  1.0000
  F   F233      1.0  0.73596  0.11892  0.45757  1.0000
  F   F234      1.0  0.74595  0.13797  0.92646  1.0000
  F   F235      1.0  0.73896  0.63022  0.43192  1.0000
  F   F236      1.0  0.74334  0.64225  0.93199  1.0000
  F   F237      1.0  0.99168  0.14163  0.42147  1.0000
  F   F238      1.0  0.99304  0.15928  0.90064  1.0000
  F   F239      1.0  0.98728  0.65086  0.41637  1.0000
  F   F240      1.0  0.99275  0.65364  0.90502  1.0000
  F   F241      1.0  0.18377  0.02420  0.30897  1.0000
  F   F242      1.0  0.18859  0.02463  0.80807  1.0000
  F   F243      1.0  0.18776  0.52922  0.31161  1.0000
  F   F244      1.0  0.17979  0.51814  0.83330  1.0000
  F   F245      1.0  0.42638  0.99909  0.34212  1.0000
  F   F246      1.0  0.43373  0.00914  0.83019  1.0000
  F   F247      1.0  0.42775  0.50112  0.34276  1.0000
  F   F248      1.0  0.43410  0.50590  0.82260  1.0000
  F   F249      1.0  0.68469  0.00793  0.33186  1.0000
  F   F250      1.0  0.68340  0.00445  0.83724  1.0000
  F   F251      1.0  0.67580  0.51697  0.33078  1.0000
  F   F252      1.0  0.68033  0.51078  0.83379  1.0000
  F   F253      1.0  0.93767  0.02299  0.29680  1.0000
  F   F254      1.0  0.92776  0.01508  0.82526  1.0000
  F   F255      1.0  0.92882  0.52082  0.31623  1.0000
  F   F256      1.0  0.93225  0.51737  0.82636  1.0000
  F   F257      1.0  0.00226  0.25742  0.99796  1.0000
  F   F258      1.0  0.00267  0.24934  0.50112  1.0000
  F   F259      1.0  0.99199  0.74337  0.00723  1.0000
  F   F260      1.0  0.99857  0.76716  0.49358  1.0000
  F   F261      1.0  0.24718  0.23564  0.00243  1.0000
  F   F262      1.0  0.24288  0.25438  0.49732  1.0000
  F   F263      1.0  0.24384  0.74615  0.00076  1.0000
  F   F264      1.0  0.24918  0.76244  0.48268  1.0000
  F   F265      1.0  0.50092  0.24937  0.99861  1.0000
  F   F266      1.0  0.49851  0.23271  0.50506  1.0000
  F   F267      1.0  0.49886  0.74087  0.00221  1.0000
  F   F268      1.0  0.50302  0.74793  0.50391  1.0000
  F   F269      1.0  0.75142  0.25684  0.99604  1.0000
  F   F270      1.0  0.74891  0.24778  0.50753  1.0000
  F   F271      1.0  0.75336  0.73390  0.01381  1.0000
  F   F272      1.0  0.74203  0.73682  0.51494  1.0000
  F   F273      1.0  0.12443  0.00878  0.23979  1.0000
  F   F274      1.0  0.12555  0.00543  0.75717  1.0000
  F   F275      1.0  0.12512  0.50634  0.24027  1.0000
  F   F276      1.0  0.12845  0.51393  0.73581  1.0000
  F   F277      1.0  0.37552  0.99317  0.25736  1.0000
  F   F278      1.0  0.37095  0.99986  0.76023  1.0000
  F   F279      1.0  0.37934  0.49914  0.24460  1.0000
  F   F280      1.0  0.37528  0.49679  0.75545  1.0000
  F   F281      1.0  0.63341  0.99008  0.24389  1.0000
  F   F282      1.0  0.62835  0.00426  0.74753  1.0000
  F   F283      1.0  0.62680  0.50241  0.25078  1.0000
  F   F284      1.0  0.62763  0.46881  0.75279  1.0000
  F   F285      1.0  0.86999  0.99984  0.26944  1.0000
  F   F286      1.0  0.88142  0.00531  0.73708  1.0000
  F   F287      1.0  0.86613  0.49354  0.25998  1.0000
  F   F288      1.0  0.87887  0.49915  0.74278  1.0000
  F   F289      1.0  0.03368  0.05305  0.02482  1.0000
  F   F290      1.0  0.04276  0.04236  0.51584  1.0000
  F   F291      1.0  0.03925  0.54975  0.01362  1.0000
  F   F292      1.0  0.03480  0.54022  0.52193  1.0000
  F   F293      1.0  0.29226  0.03121  0.02249  1.0000
  F   F294      1.0  0.29643  0.03012  0.51148  1.0000
  F   F295      1.0  0.29246  0.51703  0.02647  1.0000
  F   F296      1.0  0.29268  0.53188  0.52234  1.0000
  F   F297      1.0  0.54213  0.02067  0.03058  1.0000
  F   F298      1.0  0.54196  0.01786  0.53865  1.0000
  F   F299      1.0  0.54058  0.52839  0.02013  1.0000
  F   F300      1.0  0.54315  0.52171  0.52942  1.0000
  F   F301      1.0  0.80349  0.03293  0.01918  1.0000
  F   F302      1.0  0.79210  0.02711  0.53102  1.0000
  F   F303      1.0  0.78983  0.52845  0.03334  1.0000
  F   F304      1.0  0.80181  0.52248  0.50801  1.0000
  F   F305      1.0  0.23665  0.41046  0.21378  1.0000
  F   F306      1.0  0.23458  0.41345  0.73829  1.0000
  F   F307      1.0  0.23988  0.90605  0.22718  1.0000
  F   F308      1.0  0.23947  0.91029  0.73699  1.0000
  F   F309      1.0  0.48548  0.40884  0.22859  1.0000
  F   F310      1.0  0.48576  0.40742  0.72546  1.0000
  F   F311      1.0  0.48289  0.91878  0.22593  1.0000
  F   F312      1.0  0.48500  0.89753  0.74534  1.0000
  F   F313      1.0  0.73217  0.42190  0.23864  1.0000
  F   F314      1.0  0.73323  0.43395  0.70848  1.0000
  F   F315      1.0  0.73147  0.92652  0.21889  1.0000
  F   F316      1.0  0.73596  0.91076  0.72584  1.0000
  F   F317      1.0  0.98705  0.40544  0.23133  1.0000
  F   F318      1.0  0.98238  0.41599  0.72006  1.0000
  F   F319      1.0  0.98409  0.90172  0.23269  1.0000
  F   F320      1.0  0.98496  0.92630  0.72973  1.0000
  F   F321      1.0  0.21022  0.47374  0.46940  1.0000
  F   F322      1.0  0.20785  0.47316  0.97983  1.0000
  F   F323      1.0  0.20092  0.97650  0.48517  1.0000
  F   F324      1.0  0.19358  0.98762  0.97320  1.0000
  F   F325      1.0  0.45303  0.47252  0.49545  1.0000
  F   F326      1.0  0.45696  0.45949  0.98309  1.0000
  F   F327      1.0  0.45499  0.96508  0.48298  1.0000
  F   F328      1.0  0.45654  0.95608  0.99556  1.0000
  F   F329      1.0  0.70500  0.46247  0.49378  1.0000
  F   F330      1.0  0.70614  0.46648  0.98088  1.0000
  F   F331      1.0  0.71593  0.95442  0.47252  1.0000
  F   F332      1.0  0.70244  0.96209  0.97908  1.0000
  F   F333      1.0  0.95163  0.47518  0.47696  1.0000
  F   F334      1.0  0.96506  0.47230  0.96655  1.0000
  F   F335      1.0  0.96107  0.98148  0.46675  1.0000
  F   F336      1.0  0.96266  0.97512  0.96706  1.0000
  F   F337      1.0  0.01459  0.09511  0.25711  1.0000
  F   F338      1.0  0.01734  0.08924  0.76130  1.0000
  F   F339      1.0  0.01174  0.58821  0.26801  1.0000
  F   F340      1.0  0.01934  0.59401  0.76502  1.0000
  F   F341      1.0  0.26641  0.09042  0.26934  1.0000
  F   F342      1.0  0.27028  0.07468  0.78393  1.0000
  F   F343      1.0  0.26984  0.58128  0.27661  1.0000
  F   F344      1.0  0.26032  0.57923  0.78967  1.0000
  F   F345      1.0  0.51660  0.06933  0.27479  1.0000
  F   F346      1.0  0.51535  0.07748  0.77080  1.0000
  F   F347      1.0  0.51300  0.58499  0.26621  1.0000
  F   F348      1.0  0.51644  0.58567  0.76715  1.0000
  F   F349      1.0  0.76630  0.12415  0.27009  1.0000
  F   F350      1.0  0.77159  0.06539  0.79283  1.0000
  F   F351      1.0  0.76267  0.58834  0.28286  1.0000
  F   F352      1.0  0.76403  0.58399  0.78690  1.0000
  F   F353      1.0  0.09644  0.43580  0.45694  1.0000
  F   F354      1.0  0.09869  0.41184  0.96206  1.0000
  F   F355      1.0  0.10168  0.91501  0.46868  1.0000
  F   F356      1.0  0.10443  0.92491  0.95750  1.0000
  F   F357      1.0  0.34855  0.41006  0.46016  1.0000
  F   F358      1.0  0.35761  0.39689  0.97387  1.0000
  F   F359      1.0  0.35114  0.89883  0.46035  1.0000
  F   F360      1.0  0.34695  0.91397  0.95911  1.0000
  F   F361      1.0  0.60571  0.39070  0.46817  1.0000
  F   F362      1.0  0.60183  0.41458  0.97664  1.0000
  F   F363      1.0  0.59640  0.90024  0.46667  1.0000
  F   F364      1.0  0.60517  0.91295  0.96843  1.0000
  F   F365      1.0  0.84591  0.37959  0.47055  1.0000
  F   F366      1.0  0.84913  0.40429  0.96305  1.0000
  F   F367      1.0  0.85210  0.89956  0.46967  1.0000
  F   F368      1.0  0.84884  0.90800  0.97687  1.0000
  F   F369      1.0  0.05054  0.31362  0.28375  1.0000
  F   F370      1.0  0.04273  0.30239  0.78980  1.0000
  F   F371      1.0  0.04810  0.79349  0.30495  1.0000
  F   F372      1.0  0.04464  0.81246  0.79602  1.0000
  F   F373      1.0  0.29951  0.30391  0.28961  1.0000
  F   F374      1.0  0.29596  0.30477  0.78384  1.0000
  F   F375      1.0  0.30612  0.79299  0.27364  1.0000
  F   F376      1.0  0.30018  0.80031  0.80101  1.0000
  F   F377      1.0  0.54109  0.29420  0.29095  1.0000
  F   F378      1.0  0.55326  0.28759  0.78843  1.0000
  F   F379      1.0  0.53858  0.79326  0.30191  1.0000
  F   F380      1.0  0.55130  0.78787  0.79084  1.0000
  F   F381      1.0  0.78748  0.29021  0.29393  1.0000
  F   F382      1.0  0.79220  0.30089  0.79059  1.0000
  F   F383      1.0  0.78656  0.79874  0.29358  1.0000
  F   F384      1.0  0.80970  0.79758  0.77661  1.0000
