data_image0
_chemical_formula_structural       Hf96F384
_chemical_formula_sum              "Hf96 F384"
_cell_length_a       31.0127
_cell_length_b       15.5057
_cell_length_c       15.4981
_cell_angle_alpha    63.342
_cell_angle_beta     63.342
_cell_angle_gamma    80.1625

_space_group_name_H-M_alt    "P 1"
_space_group_IT_number       1

loop_
  _space_group_symop_operation_xyz
  'x, y, z'

loop_
  _atom_site_type_symbol
  _atom_site_label
  _atom_site_symmetry_multiplicity
  _atom_site_fract_x
  _atom_site_fract_y
  _atom_site_fract_z
  _atom_site_occupancy
  Hf  Hf1       1.0  0.19972  0.10944  0.36857  1.0000
  Hf  Hf2       1.0  0.19349  0.10870  0.87599  1.0000
  Hf  Hf3       1.0  0.19541  0.60412  0.38226  1.0000
  Hf  Hf4       1.0  0.19517  0.60916  0.87481  1.0000
  Hf  Hf5       1.0  0.45005  0.10739  0.37760  1.0000
  Hf  Hf6       1.0  0.44739  0.11352  0.87204  1.0000
  Hf  Hf7       1.0  0.44655  0.61140  0.37457  1.0000
  Hf  Hf8       1.0  0.44677  0.60876  0.87804  1.0000
  Hf  Hf9       1.0  0.69637  0.09863  0.38066  1.0000
  Hf  Hf10      1.0  0.69557  0.10742  0.87303  1.0000
  Hf  Hf11      1.0  0.69595  0.60355  0.37217  1.0000
  Hf  Hf12      1.0  0.69936  0.61239  0.86889  1.0000
  Hf  Hf13      1.0  0.94675  0.10688  0.36961  1.0000
  Hf  Hf14      1.0  0.94853  0.10828  0.87261  1.0000
  Hf  Hf15      1.0  0.94795  0.60635  0.37167  1.0000
  Hf  Hf16      1.0  0.94467  0.60536  0.88661  1.0000
  Hf  Hf17      1.0  0.05251  0.38923  0.12331  1.0000
  Hf  Hf18      1.0  0.05036  0.39576  0.63364  1.0000
  Hf  Hf19      1.0  0.05593  0.89433  0.12518  1.0000
  Hf  Hf20      1.0  0.05174  0.89274  0.62786  1.0000
  Hf  Hf21      1.0  0.30038  0.39272  0.13311  1.0000
  Hf  Hf22      1.0  0.30500  0.39764  0.61554  1.0000
  Hf  Hf23      1.0  0.30097  0.89294  0.12464  1.0000
  Hf  Hf24      1.0  0.30635  0.89054  0.62694  1.0000
  Hf  Hf25      1.0  0.55636  0.39476  0.11505  1.0000
  Hf  Hf26      1.0  0.55785  0.39550  0.62199  1.0000
  Hf  Hf27      1.0  0.55284  0.89218  0.12362  1.0000
  Hf  Hf28      1.0  0.55585  0.89264  0.62460  1.0000
  Hf  Hf29      1.0  0.79913  0.38775  0.13054  1.0000
  Hf  Hf30      1.0  0.80154  0.39525  0.63019  1.0000
  Hf  Hf31      1.0  0.80330  0.89301  0.12365  1.0000
  Hf  Hf32      1.0  0.80550  0.88745  0.62938  1.0000
  Hf  Hf33      1.0  0.05138  0.18114  0.42384  1.0000
  Hf  Hf34      1.0  0.05123  0.18095  0.92473  1.0000
  Hf  Hf35      1.0  0.05512  0.67871  0.42049  1.0000
  Hf  Hf36      1.0  0.05668  0.68143  0.91352  1.0000
  Hf  Hf37      1.0  0.30826  0.17911  0.42242  1.0000
  Hf  Hf38      1.0  0.30461  0.18236  0.91652  1.0000
  Hf  Hf39      1.0  0.30994  0.69021  0.40841  1.0000
  Hf  Hf40      1.0  0.30877  0.68225  0.91236  1.0000
  Hf  Hf41      1.0  0.55950  0.18475  0.41261  1.0000
  Hf  Hf42      1.0  0.55499  0.18043  0.91948  1.0000
  Hf  Hf43      1.0  0.55512  0.68887  0.41520  1.0000
  Hf  Hf44      1.0  0.55831  0.68483  0.91428  1.0000
  Hf  Hf45      1.0  0.80532  0.17587  0.41819  1.0000
  Hf  Hf46      1.0  0.80495  0.17970  0.91839  1.0000
  Hf  Hf47      1.0  0.80639  0.67908  0.41787  1.0000
  Hf  Hf48      1.0  0.81016  0.68021  0.91378  1.0000
  Hf  Hf49      1.0  0.15468  0.38201  0.33921  1.0000
  Hf  Hf50      1.0  0.15377  0.38359  0.83552  1.0000
  Hf  Hf51      1.0  0.15872  0.89029  0.33374  1.0000
  Hf  Hf52      1.0  0.15629  0.89220  0.83097  1.0000
  Hf  Hf53      1.0  0.41229  0.39140  0.32646  1.0000
  Hf  Hf54      1.0  0.40802  0.38380  0.83255  1.0000
  Hf  Hf55      1.0  0.41061  0.89588  0.32695  1.0000
  Hf  Hf56      1.0  0.41024  0.88057  0.84161  1.0000
  Hf  Hf57      1.0  0.65978  0.38676  0.32860  1.0000
  Hf  Hf58      1.0  0.65720  0.38397  0.83481  1.0000
  Hf  Hf59      1.0  0.65769  0.88566  0.33365  1.0000
  Hf  Hf60      1.0  0.65867  0.88544  0.83283  1.0000
  Hf  Hf61      1.0  0.90847  0.38925  0.33513  1.0000
  Hf  Hf62      1.0  0.90510  0.37967  0.84561  1.0000
  Hf  Hf63      1.0  0.91377  0.88979  0.32798  1.0000
  Hf  Hf64      1.0  0.90851  0.89275  0.83022  1.0000
  Hf  Hf65      1.0  0.19373  0.32343  0.07856  1.0000
  Hf  Hf66      1.0  0.19346  0.31367  0.58705  1.0000
  Hf  Hf67      1.0  0.19111  0.81219  0.09035  1.0000
  Hf  Hf68      1.0  0.19566  0.82371  0.57698  1.0000
  Hf  Hf69      1.0  0.44147  0.31588  0.08344  1.0000
  Hf  Hf70      1.0  0.44523  0.32519  0.57865  1.0000
  Hf  Hf71      1.0  0.44158  0.82004  0.08439  1.0000
  Hf  Hf72      1.0  0.44347  0.81769  0.59016  1.0000
  Hf  Hf73      1.0  0.69439  0.32228  0.07785  1.0000
  Hf  Hf74      1.0  0.69954  0.31893  0.57384  1.0000
  Hf  Hf75      1.0  0.69202  0.81133  0.08549  1.0000
  Hf  Hf76      1.0  0.69412  0.81562  0.58759  1.0000
  Hf  Hf77      1.0  0.94088  0.31544  0.09063  1.0000
  Hf  Hf78      1.0  0.94240  0.31847  0.59246  1.0000
  Hf  Hf79      1.0  0.94237  0.82571  0.07928  1.0000
  Hf  Hf80      1.0  0.94319  0.81137  0.58654  1.0000
  Hf  Hf81      1.0  0.09344  0.11641  0.16406  1.0000
  Hf  Hf82      1.0  0.09136  0.11260  0.66633  1.0000
  Hf  Hf83      1.0  0.09060  0.60952  0.16504  1.0000
  Hf  Hf84      1.0  0.09202  0.61435  0.66485  1.0000
  Hf  Hf85      1.0  0.34149  0.11311  0.16726  1.0000
  Hf  Hf86      1.0  0.34436  0.11192  0.66977  1.0000
  Hf  Hf87      1.0  0.33828  0.61221  0.17006  1.0000
  Hf  Hf88      1.0  0.34305  0.61530  0.65732  1.0000
  Hf  Hf89      1.0  0.59309  0.11120  0.16468  1.0000
  Hf  Hf90      1.0  0.59147  0.11542  0.66548  1.0000
  Hf  Hf91      1.0  0.59106  0.61097  0.17016  1.0000
  Hf  Hf92      1.0  0.59248  0.61332  0.66172  1.0000
  Hf  Hf93      1.0  0.84003  0.10895  0.16613  1.0000
  Hf  Hf94      1.0  0.83896  0.11745  0.66838  1.0000
  Hf  Hf95      1.0  0.84479  0.60564  0.17098  1.0000
  Hf  Hf96      1.0  0.84275  0.60376  0.67298  1.0000
  F   F1        1.0  0.08307  0.12394  0.29778  1.0000
  F   F2        1.0  0.07470  0.13022  0.80999  1.0000
  F   F3        1.0  0.07635  0.61828  0.30688  1.0000
  F   F4        1.0  0.08672  0.62973  0.80128  1.0000
  F   F5        1.0  0.32866  0.12638  0.31087  1.0000
  F   F6        1.0  0.32795  0.12981  0.80614  1.0000
  F   F7        1.0  0.33146  0.64064  0.28983  1.0000
  F   F8        1.0  0.32632  0.60842  0.80660  1.0000
  F   F9        1.0  0.58386  0.12370  0.30012  1.0000
  F   F10       1.0  0.57383  0.12135  0.80380  1.0000
  F   F11       1.0  0.58229  0.62111  0.30792  1.0000
  F   F12       1.0  0.58577  0.63123  0.80104  1.0000
  F   F13       1.0  0.82837  0.12537  0.31126  1.0000
  F   F14       1.0  0.82681  0.13372  0.79708  1.0000
  F   F15       1.0  0.83174  0.63002  0.29725  1.0000
  F   F16       1.0  0.82512  0.60878  0.81688  1.0000
  F   F17       1.0  0.18054  0.33525  0.45383  1.0000
  F   F18       1.0  0.17996  0.33118  0.95168  1.0000
  F   F19       1.0  0.18850  0.85312  0.43918  1.0000
  F   F20       1.0  0.18608  0.84293  0.94933  1.0000
  F   F21       1.0  0.44243  0.34913  0.43741  1.0000
  F   F22       1.0  0.43669  0.33854  0.94339  1.0000
  F   F23       1.0  0.43662  0.84305  0.44565  1.0000
  F   F24       1.0  0.43525  0.83715  0.94996  1.0000
  F   F25       1.0  0.67812  0.32974  0.45237  1.0000
  F   F26       1.0  0.68642  0.34258  0.93891  1.0000
  F   F27       1.0  0.68353  0.84880  0.44558  1.0000
  F   F28       1.0  0.67645  0.82463  0.96038  1.0000
  F   F29       1.0  0.92741  0.33355  0.45533  1.0000
  F   F30       1.0  0.92941  0.33553  0.95941  1.0000
  F   F31       1.0  0.94524  0.83881  0.43570  1.0000
  F   F32       1.0  0.93114  0.85063  0.94300  1.0000
  F   F33       1.0  0.16411  0.35213  0.21463  1.0000
  F   F34       1.0  0.17655  0.38231  0.67841  1.0000
  F   F35       1.0  0.16664  0.87791  0.19740  1.0000
  F   F36       1.0  0.16917  0.87977  0.69231  1.0000
  F   F37       1.0  0.41948  0.36647  0.20142  1.0000
  F   F38       1.0  0.41637  0.36503  0.70045  1.0000
  F   F39       1.0  0.42584  0.89110  0.18432  1.0000
  F   F40       1.0  0.42239  0.88173  0.69593  1.0000
  F   F41       1.0  0.67312  0.38284  0.19219  1.0000
  F   F42       1.0  0.67614  0.37501  0.68778  1.0000
  F   F43       1.0  0.66346  0.84791  0.21563  1.0000
  F   F44       1.0  0.67143  0.86416  0.70277  1.0000
  F   F45       1.0  0.91806  0.37289  0.19132  1.0000
  F   F46       1.0  0.91745  0.35988  0.71145  1.0000
  F   F47       1.0  0.92451  0.87989  0.18477  1.0000
  F   F48       1.0  0.92421  0.87539  0.69467  1.0000
  F   F49       1.0  0.06032  0.14749  0.06427  1.0000
  F   F50       1.0  0.05700  0.15439  0.55707  1.0000
  F   F51       1.0  0.06159  0.66543  0.04987  1.0000
  F   F52       1.0  0.06488  0.65876  0.55402  1.0000
  F   F53       1.0  0.31462  0.16706  0.05358  1.0000
  F   F54       1.0  0.31804  0.15364  0.55424  1.0000
  F   F55       1.0  0.32173  0.66514  0.04583  1.0000
  F   F56       1.0  0.31026  0.64755  0.55891  1.0000
  F   F57       1.0  0.57154  0.16707  0.04364  1.0000
  F   F58       1.0  0.56800  0.16149  0.54558  1.0000
  F   F59       1.0  0.55659  0.65119  0.06454  1.0000
  F   F60       1.0  0.56119  0.65960  0.55468  1.0000
  F   F61       1.0  0.81301  0.14609  0.05382  1.0000
  F   F62       1.0  0.80616  0.15463  0.55574  1.0000
  F   F63       1.0  0.82555  0.65608  0.04194  1.0000
  F   F64       1.0  0.81977  0.65961  0.54839  1.0000
  F   F65       1.0  0.20807  0.20565  0.21620  1.0000
  F   F66       1.0  0.20452  0.20091  0.71360  1.0000
  F   F67       1.0  0.20241  0.70715  0.22095  1.0000
  F   F68       1.0  0.19197  0.70725  0.71517  1.0000
  F   F69       1.0  0.45210  0.20127  0.21198  1.0000
  F   F70       1.0  0.45529  0.20684  0.70924  1.0000
  F   F71       1.0  0.45186  0.70276  0.20303  1.0000
  F   F72       1.0  0.45603  0.70195  0.71561  1.0000
  F   F73       1.0  0.70027  0.20940  0.19942  1.0000
  F   F74       1.0  0.70879  0.21838  0.69810  1.0000
  F   F75       1.0  0.70810  0.68393  0.21575  1.0000
  F   F76       1.0  0.70231  0.69364  0.70899  1.0000
  F   F77       1.0  0.94840  0.20202  0.21281  1.0000
  F   F78       1.0  0.95866  0.20292  0.71598  1.0000
  F   F79       1.0  0.95826  0.71006  0.21564  1.0000
  F   F80       1.0  0.94923  0.69659  0.70678  1.0000
  F   F81       1.0  0.14313  0.10119  0.03844  1.0000
  F   F82       1.0  0.14685  0.09541  0.54489  1.0000
  F   F83       1.0  0.15209  0.58899  0.03673  1.0000
  F   F84       1.0  0.14587  0.57900  0.54629  1.0000
  F   F85       1.0  0.39562  0.08789  0.04511  1.0000
  F   F86       1.0  0.40594  0.10167  0.53845  1.0000
  F   F87       1.0  0.40171  0.57860  0.03638  1.0000
  F   F88       1.0  0.39721  0.60096  0.52748  1.0000
  F   F89       1.0  0.64658  0.08825  0.02109  1.0000
  F   F90       1.0  0.64815  0.08997  0.53220  1.0000
  F   F91       1.0  0.65028  0.59357  0.03739  1.0000
  F   F92       1.0  0.64497  0.57433  0.54034  1.0000
  F   F93       1.0  0.89861  0.08467  0.04002  1.0000
  F   F94       1.0  0.89804  0.11011  0.54669  1.0000
  F   F95       1.0  0.89946  0.57724  0.05096  1.0000
  F   F96       1.0  0.89982  0.57237  0.54211  1.0000
  F   F97       1.0  0.15160  0.20355  0.12128  1.0000
  F   F98       1.0  0.15258  0.18981  0.63118  1.0000
  F   F99       1.0  0.15143  0.68359  0.13881  1.0000
  F   F100      1.0  0.15539  0.71159  0.60598  1.0000
  F   F101      1.0  0.39979  0.19813  0.11712  1.0000
  F   F102      1.0  0.40283  0.20459  0.62777  1.0000
  F   F103      1.0  0.39791  0.69907  0.10649  1.0000
  F   F104      1.0  0.40234  0.69587  0.62882  1.0000
  F   F105      1.0  0.65009  0.18847  0.12093  1.0000
  F   F106      1.0  0.65623  0.18426  0.62038  1.0000
  F   F107      1.0  0.65049  0.68589  0.13012  1.0000
  F   F108      1.0  0.65283  0.68664  0.62716  1.0000
  F   F109      1.0  0.90092  0.19972  0.12618  1.0000
  F   F110      1.0  0.90059  0.19053  0.65600  1.0000
  F   F111      1.0  0.90301  0.69621  0.13138  1.0000
  F   F112      1.0  0.89469  0.70692  0.61530  1.0000
  F   F113      1.0  0.09280  0.30072  0.38824  1.0000
  F   F114      1.0  0.09506  0.30337  0.85820  1.0000
  F   F115      1.0  0.09330  0.80287  0.37833  1.0000
  F   F116      1.0  0.09623  0.80347  0.85435  1.0000
  F   F117      1.0  0.34754  0.29903  0.37297  1.0000
  F   F118      1.0  0.34267  0.30948  0.87487  1.0000
  F   F119      1.0  0.35025  0.81302  0.36330  1.0000
  F   F120      1.0  0.35305  0.80670  0.87758  1.0000
  F   F121      1.0  0.59888  0.31632  0.37010  1.0000
  F   F122      1.0  0.60001  0.30300  0.87060  1.0000
  F   F123      1.0  0.59628  0.79773  0.38729  1.0000
  F   F124      1.0  0.59363  0.80673  0.88327  1.0000
  F   F125      1.0  0.85293  0.29497  0.36763  1.0000
  F   F126      1.0  0.84672  0.29458  0.88107  1.0000
  F   F127      1.0  0.84503  0.80302  0.36555  1.0000
  F   F128      1.0  0.85012  0.79431  0.87767  1.0000
  F   F129      1.0  0.07003  0.25563  0.13099  1.0000
  F   F130      1.0  0.06308  0.24982  0.64012  1.0000
  F   F131      1.0  0.07691  0.74760  0.12607  1.0000
  F   F132      1.0  0.06773  0.74842  0.63312  1.0000
  F   F133      1.0  0.31024  0.25508  0.15384  1.0000
  F   F134      1.0  0.31970  0.25128  0.63437  1.0000
  F   F135      1.0  0.30710  0.75714  0.13987  1.0000
  F   F136      1.0  0.31352  0.75269  0.64055  1.0000
  F   F137      1.0  0.55937  0.25101  0.14945  1.0000
  F   F138      1.0  0.56167  0.25305  0.64035  1.0000
  F   F139      1.0  0.56567  0.75179  0.15219  1.0000
  F   F140      1.0  0.56122  0.74978  0.65518  1.0000
  F   F141      1.0  0.81418  0.24790  0.13320  1.0000
  F   F142      1.0  0.81779  0.26189  0.61865  1.0000
  F   F143      1.0  0.82276  0.75760  0.13501  1.0000
  F   F144      1.0  0.81496  0.75132  0.64484  1.0000
  F   F145      1.0  0.12685  0.37466  0.09745  1.0000
  F   F146      1.0  0.12101  0.36653  0.61672  1.0000
  F   F147      1.0  0.12772  0.88455  0.09081  1.0000
  F   F148      1.0  0.12281  0.87722  0.60330  1.0000
  F   F149      1.0  0.37165  0.35499  0.12571  1.0000
  F   F150      1.0  0.37735  0.39187  0.58339  1.0000
  F   F151      1.0  0.37124  0.85063  0.12891  1.0000
  F   F152      1.0  0.37748  0.86941  0.60928  1.0000
  F   F153      1.0  0.62759  0.35769  0.10218  1.0000
  F   F154      1.0  0.62839  0.36672  0.60468  1.0000
  F   F155      1.0  0.62234  0.87292  0.10932  1.0000
  F   F156      1.0  0.62296  0.85289  0.62043  1.0000
  F   F157      1.0  0.87098  0.37142  0.11048  1.0000
  F   F158      1.0  0.87496  0.37262  0.60643  1.0000
  F   F159      1.0  0.87562  0.88381  0.09843  1.0000
  F   F160      1.0  0.87571  0.86208  0.61582  1.0000
  F   F161      1.0  0.17993  0.24709  0.36787  1.0000
  F   F162      1.0  0.18069  0.25596  0.85209  1.0000
  F   F163      1.0  0.17977  0.74788  0.37706  1.0000
  F   F164      1.0  0.18115  0.75476  0.85782  1.0000
  F   F165      1.0  0.43381  0.24697  0.35896  1.0000
  F   F166      1.0  0.42963  0.24443  0.86934  1.0000
  F   F167      1.0  0.43680  0.75640  0.33798  1.0000
  F   F168      1.0  0.44136  0.75279  0.85308  1.0000
  F   F169      1.0  0.70346  0.25622  0.33177  1.0000
  F   F170      1.0  0.68037  0.24474  0.85939  1.0000
  F   F171      1.0  0.68989  0.74541  0.35716  1.0000
  F   F172      1.0  0.69130  0.75595  0.83769  1.0000
  F   F173      1.0  0.93703  0.26121  0.34216  1.0000
  F   F174      1.0  0.93240  0.24388  0.86781  1.0000
  F   F175      1.0  0.92881  0.75377  0.35869  1.0000
  F   F176      1.0  0.94103  0.74668  0.85221  1.0000
  F   F177      1.0  0.12048  0.12721  0.40214  1.0000
  F   F178      1.0  0.12227  0.11894  0.89540  1.0000
  F   F179      1.0  0.12561  0.63843  0.39020  1.0000
  F   F180      1.0  0.12386  0.63083  0.90500  1.0000
  F   F181      1.0  0.37493  0.11676  0.40095  1.0000
  F   F182      1.0  0.37452  0.13834  0.88686  1.0000
  F   F183      1.0  0.37626  0.62987  0.38489  1.0000
  F   F184      1.0  0.37979  0.62772  0.88229  1.0000
  F   F185      1.0  0.62843  0.14946  0.37804  1.0000
  F   F186      1.0  0.62942  0.13812  0.86144  1.0000
  F   F187      1.0  0.62773  0.64028  0.38633  1.0000
  F   F188      1.0  0.62811  0.64075  0.89495  1.0000
  F   F189      1.0  0.87483  0.11865  0.40509  1.0000
  F   F190      1.0  0.87432  0.13415  0.88172  1.0000
  F   F191      1.0  0.87328  0.62998  0.40297  1.0000
  F   F192      1.0  0.87757  0.62449  0.88631  1.0000
  F   F193      1.0  0.01074  0.36223  0.07273  1.0000
  F   F194      1.0  0.00702  0.37359  0.57539  1.0000
  F   F195      1.0  0.01104  0.85729  0.07269  1.0000
  F   F196      1.0  0.00500  0.86011  0.57427  1.0000
  F   F197      1.0  0.25461  0.37596  0.06902  1.0000
  F   F198      1.0  0.25737  0.36018  0.57909  1.0000
  F   F199      1.0  0.25125  0.86526  0.07938  1.0000
  F   F200      1.0  0.25972  0.86549  0.56972  1.0000
  F   F201      1.0  0.50464  0.37168  0.07204  1.0000
  F   F202      1.0  0.50942  0.34863  0.57823  1.0000
  F   F203      1.0  0.51044  0.86054  0.07635  1.0000
  F   F204      1.0  0.50599  0.86904  0.56906  1.0000
  F   F205      1.0  0.75789  0.37463  0.06833  1.0000
  F   F206      1.0  0.76039  0.37591  0.56402  1.0000
  F   F207      1.0  0.75272  0.85815  0.09606  1.0000
  F   F208      1.0  0.75410  0.85664  0.58478  1.0000
  F   F209      1.0  0.06905  0.48915  0.16430  1.0000
  F   F210      1.0  0.06399  0.48204  0.69045  1.0000
  F   F211      1.0  0.06811  0.97557  0.18394  1.0000
  F   F212      1.0  0.06782  0.98276  0.67953  1.0000
  F   F213      1.0  0.31708  0.49257  0.16844  1.0000
  F   F214      1.0  0.31937  0.49140  0.67646  1.0000
  F   F215      1.0  0.31363  0.98851  0.18144  1.0000
  F   F216      1.0  0.32707  0.98200  0.67209  1.0000
  F   F217      1.0  0.57362  0.48205  0.16569  1.0000
  F   F218      1.0  0.56723  0.48631  0.67290  1.0000
  F   F219      1.0  0.56929  0.98981  0.17198  1.0000
  F   F220      1.0  0.56914  0.98611  0.68300  1.0000
  F   F221      1.0  0.81661  0.47241  0.19366  1.0000
  F   F222      1.0  0.81345  0.47945  0.69285  1.0000
  F   F223      1.0  0.81252  0.98188  0.18577  1.0000
  F   F224      1.0  0.81980  0.98476  0.66750  1.0000
  F   F225      1.0  0.24333  0.14862  0.41879  1.0000
  F   F226      1.0  0.23596  0.13940  0.93359  1.0000
  F   F227      1.0  0.24606  0.63252  0.43597  1.0000
  F   F228      1.0  0.24522  0.64781  0.91366  1.0000
  F   F229      1.0  0.49255  0.14034  0.42701  1.0000
  F   F230      1.0  0.49044  0.14119  0.92064  1.0000
  F   F231      1.0  0.49203  0.63732  0.42565  1.0000
  F   F232      1.0  0.49687  0.63710  0.91973  1.0000
  F   F233      1.0  0.74182  0.12108  0.43666  1.0000
  F   F234      1.0  0.74448  0.12987  0.91969  1.0000
  F   F235      1.0  0.74392  0.63749  0.43372  1.0000
  F   F236      1.0  0.74052  0.64298  0.93536  1.0000
  F   F237      1.0  0.99040  0.14002  0.42250  1.0000
  F   F238      1.0  0.99337  0.14292  0.92322  1.0000
  F   F239      1.0  0.99104  0.63205  0.42762  1.0000
  F   F240      1.0  0.99812  0.62548  0.93125  1.0000
  F   F241      1.0  0.18502  0.01892  0.31848  1.0000
  F   F242      1.0  0.18305  0.00940  0.82502  1.0000
  F   F243      1.0  0.18237  0.51746  0.33274  1.0000
  F   F244      1.0  0.17535  0.51247  0.82878  1.0000
  F   F245      1.0  0.43467  0.01333  0.32235  1.0000
  F   F246      1.0  0.42703  0.00877  0.81690  1.0000
  F   F247      1.0  0.43384  0.51422  0.31971  1.0000
  F   F248      1.0  0.43359  0.50760  0.81843  1.0000
  F   F249      1.0  0.67466  0.02117  0.33486  1.0000
  F   F250      1.0  0.68075  0.01098  0.83356  1.0000
  F   F251      1.0  0.68151  0.50093  0.33964  1.0000
  F   F252      1.0  0.67471  0.51914  0.82938  1.0000
  F   F253      1.0  0.93736  0.01567  0.31389  1.0000
  F   F254      1.0  0.92814  0.02173  0.82153  1.0000
  F   F255      1.0  0.93446  0.52668  0.30843  1.0000
  F   F256      1.0  0.93335  0.51971  0.82648  1.0000
  F   F257      1.0  0.00259  0.26847  0.98937  1.0000
  F   F258      1.0  0.99597  0.25511  0.49576  1.0000
  F   F259      1.0  0.00027  0.76972  0.97601  1.0000
  F   F260      1.0  0.99662  0.71839  0.52504  1.0000
  F   F261      1.0  0.24990  0.25625  0.00389  1.0000
  F   F262      1.0  0.25136  0.25066  0.49701  1.0000
  F   F263      1.0  0.25420  0.74790  0.00084  1.0000
  F   F264      1.0  0.25363  0.75420  0.49564  1.0000
  F   F265      1.0  0.50089  0.23586  0.00467  1.0000
  F   F266      1.0  0.49744  0.24799  0.50885  1.0000
  F   F267      1.0  0.50229  0.76590  0.99171  1.0000
  F   F268      1.0  0.49813  0.75437  0.48982  1.0000
  F   F269      1.0  0.74831  0.25333  0.99354  1.0000
  F   F270      1.0  0.75394  0.27859  0.46795  1.0000
  F   F271      1.0  0.75659  0.76006  0.98826  1.0000
  F   F272      1.0  0.74717  0.75248  0.50167  1.0000
  F   F273      1.0  0.13020  0.00331  0.24572  1.0000
  F   F274      1.0  0.12022  0.00373  0.75801  1.0000
  F   F275      1.0  0.12868  0.50312  0.24690  1.0000
  F   F276      1.0  0.12636  0.50210  0.74281  1.0000
  F   F277      1.0  0.37248  0.99978  0.25597  1.0000
  F   F278      1.0  0.37096  0.99902  0.75965  1.0000
  F   F279      1.0  0.37261  0.49536  0.25630  1.0000
  F   F280      1.0  0.38140  0.50667  0.73246  1.0000
  F   F281      1.0  0.62988  0.99467  0.23499  1.0000
  F   F282      1.0  0.63383  0.00733  0.74245  1.0000
  F   F283      1.0  0.62137  0.49854  0.25073  1.0000
  F   F284      1.0  0.61619  0.49416  0.76663  1.0000
  F   F285      1.0  0.87479  0.00437  0.25372  1.0000
  F   F286      1.0  0.86637  0.99201  0.76331  1.0000
  F   F287      1.0  0.88113  0.50052  0.23985  1.0000
  F   F288      1.0  0.87494  0.49560  0.75375  1.0000
  F   F289      1.0  0.03951  0.02909  0.02334  1.0000
  F   F290      1.0  0.04040  0.02712  0.52219  1.0000
  F   F291      1.0  0.04813  0.52627  0.01623  1.0000
  F   F292      1.0  0.03531  0.53798  0.53859  1.0000
  F   F293      1.0  0.29125  0.03489  0.01716  1.0000
  F   F294      1.0  0.29432  0.02317  0.52500  1.0000
  F   F295      1.0  0.29117  0.53751  0.02019  1.0000
  F   F296      1.0  0.30219  0.53162  0.51505  1.0000
  F   F297      1.0  0.53857  0.03603  0.02440  1.0000
  F   F298      1.0  0.54960  0.03901  0.51482  1.0000
  F   F299      1.0  0.54245  0.52835  0.02976  1.0000
  F   F300      1.0  0.54843  0.52996  0.51637  1.0000
  F   F301      1.0  0.79170  0.02784  0.02306  1.0000
  F   F302      1.0  0.79789  0.02110  0.52488  1.0000
  F   F303      1.0  0.79842  0.52796  0.02582  1.0000
  F   F304      1.0  0.79017  0.53015  0.53770  1.0000
  F   F305      1.0  0.22915  0.41930  0.23254  1.0000
  F   F306      1.0  0.24001  0.41442  0.71984  1.0000
  F   F307      1.0  0.23184  0.91591  0.22691  1.0000
  F   F308      1.0  0.23935  0.91055  0.72610  1.0000
  F   F309      1.0  0.48926  0.42092  0.22579  1.0000
  F   F310      1.0  0.48387  0.39715  0.72182  1.0000
  F   F311      1.0  0.48719  0.92084  0.23359  1.0000
  F   F312      1.0  0.49356  0.90975  0.72701  1.0000
  F   F313      1.0  0.73489  0.42215  0.22505  1.0000
  F   F314      1.0  0.73181  0.40675  0.73792  1.0000
  F   F315      1.0  0.72727  0.92614  0.23274  1.0000
  F   F316      1.0  0.73480  0.91602  0.73249  1.0000
  F   F317      1.0  0.98483  0.41816  0.23041  1.0000
  F   F318      1.0  0.97906  0.41704  0.73700  1.0000
  F   F319      1.0  0.98516  0.92240  0.21585  1.0000
  F   F320      1.0  0.98671  0.92931  0.71878  1.0000
  F   F321      1.0  0.21103  0.46653  0.47492  1.0000
  F   F322      1.0  0.20677  0.47245  0.97176  1.0000
  F   F323      1.0  0.21359  0.97621  0.47067  1.0000
  F   F324      1.0  0.20580  0.98254  0.97585  1.0000
  F   F325      1.0  0.45413  0.47584  0.47675  1.0000
  F   F326      1.0  0.45640  0.47030  0.97411  1.0000
  F   F327      1.0  0.45709  0.97042  0.47731  1.0000
  F   F328      1.0  0.45648  0.97741  0.97373  1.0000
  F   F329      1.0  0.71641  0.47451  0.45428  1.0000
  F   F330      1.0  0.70775  0.47108  0.97697  1.0000
  F   F331      1.0  0.70346  0.96468  0.48193  1.0000
  F   F332      1.0  0.70397  0.95304  0.98590  1.0000
  F   F333      1.0  0.96183  0.45295  0.47167  1.0000
  F   F334      1.0  0.96330  0.46356  0.97532  1.0000
  F   F335      1.0  0.95218  0.98205  0.47882  1.0000
  F   F336      1.0  0.96105  0.97276  0.96727  1.0000
  F   F337      1.0  0.01695  0.09142  0.27014  1.0000
  F   F338      1.0  0.01684  0.07430  0.78435  1.0000
  F   F339      1.0  0.01564  0.57164  0.27768  1.0000
  F   F340      1.0  0.01586  0.59500  0.78088  1.0000
  F   F341      1.0  0.26828  0.08987  0.27611  1.0000
  F   F342      1.0  0.26416  0.09594  0.77628  1.0000
  F   F343      1.0  0.26360  0.59223  0.27449  1.0000
  F   F344      1.0  0.25529  0.58737  0.77208  1.0000
  F   F345      1.0  0.51732  0.08281  0.26649  1.0000
  F   F346      1.0  0.51189  0.08549  0.76490  1.0000
  F   F347      1.0  0.51289  0.59359  0.28117  1.0000
  F   F348      1.0  0.52083  0.58808  0.77861  1.0000
  F   F349      1.0  0.76152  0.08734  0.27177  1.0000
  F   F350      1.0  0.76246  0.08303  0.76831  1.0000
  F   F351      1.0  0.76785  0.58461  0.26446  1.0000
  F   F352      1.0  0.76776  0.59324  0.75774  1.0000
  F   F353      1.0  0.09494  0.41209  0.45920  1.0000
  F   F354      1.0  0.09639  0.40740  0.95825  1.0000
  F   F355      1.0  0.10159  0.91635  0.45555  1.0000
  F   F356      1.0  0.09926  0.91102  0.95101  1.0000
  F   F357      1.0  0.35258  0.40821  0.45299  1.0000
  F   F358      1.0  0.35190  0.40760  0.96740  1.0000
  F   F359      1.0  0.35267  0.89661  0.46174  1.0000
  F   F360      1.0  0.34966  0.90609  0.96684  1.0000
  F   F361      1.0  0.60139  0.41167  0.46414  1.0000
  F   F362      1.0  0.59800  0.39824  0.96751  1.0000
  F   F363      1.0  0.59949  0.90807  0.46029  1.0000
  F   F364      1.0  0.59684  0.90692  0.96005  1.0000
  F   F365      1.0  0.85357  0.42074  0.44742  1.0000
  F   F366      1.0  0.84834  0.40465  0.96236  1.0000
  F   F367      1.0  0.85737  0.90006  0.46521  1.0000
  F   F368      1.0  0.84847  0.91353  0.95545  1.0000
  F   F369      1.0  0.04799  0.28568  0.28221  1.0000
  F   F370      1.0  0.03869  0.30580  0.78244  1.0000
  F   F371      1.0  0.04223  0.79647  0.28665  1.0000
  F   F372      1.0  0.03634  0.79869  0.77900  1.0000
  F   F373      1.0  0.29130  0.30461  0.29491  1.0000
  F   F374      1.0  0.29991  0.29908  0.78069  1.0000
  F   F375      1.0  0.29511  0.79463  0.28420  1.0000
  F   F376      1.0  0.30671  0.79993  0.77702  1.0000
  F   F377      1.0  0.55089  0.29738  0.28257  1.0000
  F   F378      1.0  0.54650  0.29286  0.79822  1.0000
  F   F379      1.0  0.54849  0.80443  0.28311  1.0000
  F   F380      1.0  0.54934  0.79988  0.78937  1.0000
  F   F381      1.0  0.79520  0.28954  0.28564  1.0000
  F   F382      1.0  0.79442  0.28887  0.78436  1.0000
  F   F383      1.0  0.79333  0.79626  0.28275  1.0000
  F   F384      1.0  0.79750  0.80436  0.79436  1.0000
