data_image0
_chemical_formula_structural       Hf96F384
_chemical_formula_sum              "Hf96 F384"
_cell_length_a       31.0461
_cell_length_b       15.5176
_cell_length_c       15.5099
_cell_angle_alpha    63.342
_cell_angle_beta     63.342
_cell_angle_gamma    80.1625

_space_group_name_H-M_alt    "P 1"
_space_group_IT_number       1

loop_
  _space_group_symop_operation_xyz
  'x, y, z'

loop_
  _atom_site_type_symbol
  _atom_site_label
  _atom_site_symmetry_multiplicity
  _atom_site_fract_x
  _atom_site_fract_y
  _atom_site_fract_z
  _atom_site_occupancy
  Hf  Hf1       1.0  0.19402  0.10225  0.37469  1.0000
  Hf  Hf2       1.0  0.20212  0.10757  0.87059  1.0000
  Hf  Hf3       1.0  0.19953  0.60865  0.36702  1.0000
  Hf  Hf4       1.0  0.19166  0.60465  0.88292  1.0000
  Hf  Hf5       1.0  0.44579  0.11301  0.37709  1.0000
  Hf  Hf6       1.0  0.44437  0.11159  0.87542  1.0000
  Hf  Hf7       1.0  0.44697  0.61575  0.37418  1.0000
  Hf  Hf8       1.0  0.44589  0.60647  0.88141  1.0000
  Hf  Hf9       1.0  0.69947  0.10784  0.36953  1.0000
  Hf  Hf10      1.0  0.69695  0.10345  0.87916  1.0000
  Hf  Hf11      1.0  0.68958  0.60352  0.38638  1.0000
  Hf  Hf12      1.0  0.69372  0.60296  0.87950  1.0000
  Hf  Hf13      1.0  0.94639  0.08992  0.38518  1.0000
  Hf  Hf14      1.0  0.94435  0.10471  0.88528  1.0000
  Hf  Hf15      1.0  0.94634  0.60445  0.37128  1.0000
  Hf  Hf16      1.0  0.94456  0.60219  0.88081  1.0000
  Hf  Hf17      1.0  0.05034  0.39640  0.13076  1.0000
  Hf  Hf18      1.0  0.05101  0.39466  0.62374  1.0000
  Hf  Hf19      1.0  0.05578  0.89111  0.11841  1.0000
  Hf  Hf20      1.0  0.05799  0.88909  0.62599  1.0000
  Hf  Hf21      1.0  0.30589  0.39246  0.12552  1.0000
  Hf  Hf22      1.0  0.30406  0.40081  0.61733  1.0000
  Hf  Hf23      1.0  0.30284  0.89493  0.11988  1.0000
  Hf  Hf24      1.0  0.30756  0.90095  0.60906  1.0000
  Hf  Hf25      1.0  0.54984  0.38779  0.13347  1.0000
  Hf  Hf26      1.0  0.55344  0.39201  0.62474  1.0000
  Hf  Hf27      1.0  0.55652  0.89177  0.12644  1.0000
  Hf  Hf28      1.0  0.55460  0.90354  0.61849  1.0000
  Hf  Hf29      1.0  0.80324  0.39252  0.12714  1.0000
  Hf  Hf30      1.0  0.79905  0.38745  0.64138  1.0000
  Hf  Hf31      1.0  0.80665  0.89579  0.12109  1.0000
  Hf  Hf32      1.0  0.80305  0.89596  0.62370  1.0000
  Hf  Hf33      1.0  0.05467  0.18004  0.41825  1.0000
  Hf  Hf34      1.0  0.05730  0.19084  0.91101  1.0000
  Hf  Hf35      1.0  0.05645  0.68377  0.41632  1.0000
  Hf  Hf36      1.0  0.05698  0.68896  0.90701  1.0000
  Hf  Hf37      1.0  0.30320  0.17650  0.41507  1.0000
  Hf  Hf38      1.0  0.30365  0.18704  0.91968  1.0000
  Hf  Hf39      1.0  0.30616  0.68617  0.41742  1.0000
  Hf  Hf40      1.0  0.30727  0.68634  0.90980  1.0000
  Hf  Hf41      1.0  0.55778  0.18619  0.41808  1.0000
  Hf  Hf42      1.0  0.56074  0.17327  0.91187  1.0000
  Hf  Hf43      1.0  0.55575  0.68636  0.41374  1.0000
  Hf  Hf44      1.0  0.55487  0.68740  0.91718  1.0000
  Hf  Hf45      1.0  0.80672  0.16994  0.42425  1.0000
  Hf  Hf46      1.0  0.80499  0.18729  0.92011  1.0000
  Hf  Hf47      1.0  0.80331  0.67318  0.42172  1.0000
  Hf  Hf48      1.0  0.80713  0.68152  0.91589  1.0000
  Hf  Hf49      1.0  0.15575  0.38404  0.33584  1.0000
  Hf  Hf50      1.0  0.15493  0.38515  0.84169  1.0000
  Hf  Hf51      1.0  0.15833  0.88782  0.33090  1.0000
  Hf  Hf52      1.0  0.15913  0.89413  0.82966  1.0000
  Hf  Hf53      1.0  0.40868  0.39926  0.32829  1.0000
  Hf  Hf54      1.0  0.41386  0.38932  0.82850  1.0000
  Hf  Hf55      1.0  0.41257  0.89249  0.32097  1.0000
  Hf  Hf56      1.0  0.41134  0.89099  0.82459  1.0000
  Hf  Hf57      1.0  0.65723  0.39168  0.33298  1.0000
  Hf  Hf58      1.0  0.65562  0.37632  0.85092  1.0000
  Hf  Hf59      1.0  0.66030  0.89378  0.33185  1.0000
  Hf  Hf60      1.0  0.65870  0.88302  0.83516  1.0000
  Hf  Hf61      1.0  0.90448  0.38087  0.33909  1.0000
  Hf  Hf62      1.0  0.91042  0.38398  0.83151  1.0000
  Hf  Hf63      1.0  0.91143  0.88358  0.32253  1.0000
  Hf  Hf64      1.0  0.91125  0.89142  0.83150  1.0000
  Hf  Hf65      1.0  0.19253  0.31466  0.09030  1.0000
  Hf  Hf66      1.0  0.19207  0.31878  0.58713  1.0000
  Hf  Hf67      1.0  0.19836  0.81488  0.07355  1.0000
  Hf  Hf68      1.0  0.19469  0.81941  0.58717  1.0000
  Hf  Hf69      1.0  0.44400  0.32209  0.08520  1.0000
  Hf  Hf70      1.0  0.44488  0.31907  0.57574  1.0000
  Hf  Hf71      1.0  0.44655  0.82788  0.07386  1.0000
  Hf  Hf72      1.0  0.44464  0.81975  0.57944  1.0000
  Hf  Hf73      1.0  0.69076  0.31484  0.09105  1.0000
  Hf  Hf74      1.0  0.69355  0.31520  0.58186  1.0000
  Hf  Hf75      1.0  0.69122  0.81725  0.08976  1.0000
  Hf  Hf76      1.0  0.69250  0.81612  0.58492  1.0000
  Hf  Hf77      1.0  0.94146  0.31641  0.08286  1.0000
  Hf  Hf78      1.0  0.94083  0.31794  0.58088  1.0000
  Hf  Hf79      1.0  0.94606  0.81637  0.08317  1.0000
  Hf  Hf80      1.0  0.94548  0.81258  0.58500  1.0000
  Hf  Hf81      1.0  0.09393  0.11470  0.15413  1.0000
  Hf  Hf82      1.0  0.09123  0.11624  0.66740  1.0000
  Hf  Hf83      1.0  0.08833  0.60500  0.17146  1.0000
  Hf  Hf84      1.0  0.09185  0.61389  0.66263  1.0000
  Hf  Hf85      1.0  0.34559  0.11253  0.16391  1.0000
  Hf  Hf86      1.0  0.34082  0.11760  0.65836  1.0000
  Hf  Hf87      1.0  0.33698  0.61863  0.17003  1.0000
  Hf  Hf88      1.0  0.34284  0.61879  0.66408  1.0000
  Hf  Hf89      1.0  0.59067  0.11078  0.16692  1.0000
  Hf  Hf90      1.0  0.59246  0.10885  0.66388  1.0000
  Hf  Hf91      1.0  0.58920  0.60682  0.16476  1.0000
  Hf  Hf92      1.0  0.58932  0.61190  0.67657  1.0000
  Hf  Hf93      1.0  0.84205  0.10439  0.17077  1.0000
  Hf  Hf94      1.0  0.84553  0.11471  0.66208  1.0000
  Hf  Hf95      1.0  0.83934  0.60770  0.17297  1.0000
  Hf  Hf96      1.0  0.84169  0.61343  0.66848  1.0000
  F   F1        1.0  0.07934  0.12307  0.30603  1.0000
  F   F2        1.0  0.08336  0.12916  0.80729  1.0000
  F   F3        1.0  0.07881  0.62316  0.30174  1.0000
  F   F4        1.0  0.07402  0.62445  0.80943  1.0000
  F   F5        1.0  0.33236  0.11660  0.30966  1.0000
  F   F6        1.0  0.32666  0.14947  0.79759  1.0000
  F   F7        1.0  0.32612  0.62885  0.31735  1.0000
  F   F8        1.0  0.33145  0.62599  0.79694  1.0000
  F   F9        1.0  0.58286  0.11758  0.30322  1.0000
  F   F10       1.0  0.57704  0.10584  0.81278  1.0000
  F   F11       1.0  0.57898  0.63000  0.31053  1.0000
  F   F12       1.0  0.58082  0.63205  0.81015  1.0000
  F   F13       1.0  0.83536  0.12062  0.30614  1.0000
  F   F14       1.0  0.83672  0.14221  0.79642  1.0000
  F   F15       1.0  0.82274  0.61651  0.31275  1.0000
  F   F16       1.0  0.82895  0.63199  0.79862  1.0000
  F   F17       1.0  0.17802  0.33452  0.44501  1.0000
  F   F18       1.0  0.18832  0.33919  0.95324  1.0000
  F   F19       1.0  0.18187  0.83489  0.44855  1.0000
  F   F20       1.0  0.19349  0.84474  0.94373  1.0000
  F   F21       1.0  0.44312  0.35408  0.43004  1.0000
  F   F22       1.0  0.43644  0.34131  0.95325  1.0000
  F   F23       1.0  0.43327  0.83558  0.44080  1.0000
  F   F24       1.0  0.44388  0.84162  0.93451  1.0000
  F   F25       1.0  0.67721  0.33011  0.45858  1.0000
  F   F26       1.0  0.68325  0.33915  0.95783  1.0000
  F   F27       1.0  0.68317  0.84850  0.44954  1.0000
  F   F28       1.0  0.69105  0.84058  0.94758  1.0000
  F   F29       1.0  0.93848  0.33938  0.44409  1.0000
  F   F30       1.0  0.94198  0.34873  0.93807  1.0000
  F   F31       1.0  0.93774  0.85124  0.43924  1.0000
  F   F32       1.0  0.93712  0.84802  0.94377  1.0000
  F   F33       1.0  0.18144  0.38771  0.18186  1.0000
  F   F34       1.0  0.16553  0.35199  0.71501  1.0000
  F   F35       1.0  0.17605  0.85842  0.19768  1.0000
  F   F36       1.0  0.17331  0.88631  0.69484  1.0000
  F   F37       1.0  0.42019  0.37511  0.19807  1.0000
  F   F38       1.0  0.41952  0.36535  0.69631  1.0000
  F   F39       1.0  0.42603  0.88524  0.17922  1.0000
  F   F40       1.0  0.42020  0.88385  0.68675  1.0000
  F   F41       1.0  0.67120  0.38091  0.18741  1.0000
  F   F42       1.0  0.67110  0.35756  0.70488  1.0000
  F   F43       1.0  0.67211  0.87111  0.20257  1.0000
  F   F44       1.0  0.66720  0.86238  0.70507  1.0000
  F   F45       1.0  0.91587  0.34995  0.20121  1.0000
  F   F46       1.0  0.92010  0.37997  0.69101  1.0000
  F   F47       1.0  0.91899  0.87075  0.18983  1.0000
  F   F48       1.0  0.92276  0.88189  0.68714  1.0000
  F   F49       1.0  0.06565  0.15720  0.04159  1.0000
  F   F50       1.0  0.06059  0.15229  0.56549  1.0000
  F   F51       1.0  0.06883  0.65785  0.04361  1.0000
  F   F52       1.0  0.06515  0.66980  0.55011  1.0000
  F   F53       1.0  0.31889  0.15954  0.05337  1.0000
  F   F54       1.0  0.31781  0.17061  0.54449  1.0000
  F   F55       1.0  0.32040  0.66013  0.04828  1.0000
  F   F56       1.0  0.31243  0.66970  0.55214  1.0000
  F   F57       1.0  0.56534  0.14689  0.05064  1.0000
  F   F58       1.0  0.56061  0.15095  0.56151  1.0000
  F   F59       1.0  0.56320  0.67412  0.05184  1.0000
  F   F60       1.0  0.55931  0.65609  0.55889  1.0000
  F   F61       1.0  0.81781  0.15871  0.05625  1.0000
  F   F62       1.0  0.82310  0.16698  0.54248  1.0000
  F   F63       1.0  0.81117  0.65015  0.05605  1.0000
  F   F64       1.0  0.80644  0.65446  0.56591  1.0000
  F   F65       1.0  0.20315  0.20034  0.20771  1.0000
  F   F66       1.0  0.21256  0.19795  0.69826  1.0000
  F   F67       1.0  0.19263  0.68568  0.22155  1.0000
  F   F68       1.0  0.20930  0.70945  0.71762  1.0000
  F   F69       1.0  0.45524  0.20605  0.21165  1.0000
  F   F70       1.0  0.44973  0.20253  0.70316  1.0000
  F   F71       1.0  0.44714  0.69970  0.19929  1.0000
  F   F72       1.0  0.44918  0.70341  0.70406  1.0000
  F   F73       1.0  0.70805  0.20058  0.20586  1.0000
  F   F74       1.0  0.71115  0.18301  0.72199  1.0000
  F   F75       1.0  0.69037  0.70528  0.22133  1.0000
  F   F76       1.0  0.70934  0.71634  0.70081  1.0000
  F   F77       1.0  0.94596  0.19151  0.21093  1.0000
  F   F78       1.0  0.94625  0.20722  0.72018  1.0000
  F   F79       1.0  0.95518  0.70123  0.20682  1.0000
  F   F80       1.0  0.94623  0.69546  0.71453  1.0000
  F   F81       1.0  0.15232  0.10831  0.01472  1.0000
  F   F82       1.0  0.14823  0.10490  0.54153  1.0000
  F   F83       1.0  0.14511  0.58268  0.03772  1.0000
  F   F84       1.0  0.14723  0.59248  0.54667  1.0000
  F   F85       1.0  0.40676  0.10490  0.02681  1.0000
  F   F86       1.0  0.40659  0.10929  0.53099  1.0000
  F   F87       1.0  0.40367  0.58690  0.03135  1.0000
  F   F88       1.0  0.39840  0.59171  0.52895  1.0000
  F   F89       1.0  0.64531  0.08895  0.03548  1.0000
  F   F90       1.0  0.65678  0.09454  0.54714  1.0000
  F   F91       1.0  0.64725  0.58367  0.03223  1.0000
  F   F92       1.0  0.64873  0.60273  0.54151  1.0000
  F   F93       1.0  0.89606  0.07375  0.05050  1.0000
  F   F94       1.0  0.90150  0.08396  0.53645  1.0000
  F   F95       1.0  0.89504  0.59174  0.05045  1.0000
  F   F96       1.0  0.90092  0.59954  0.52760  1.0000
  F   F97       1.0  0.15393  0.18593  0.12711  1.0000
  F   F98       1.0  0.14955  0.20611  0.62198  1.0000
  F   F99       1.0  0.14875  0.69339  0.11516  1.0000
  F   F100      1.0  0.15320  0.68227  0.65003  1.0000
  F   F101      1.0  0.40022  0.19266  0.13532  1.0000
  F   F102      1.0  0.39505  0.21811  0.60867  1.0000
  F   F103      1.0  0.38801  0.70435  0.12602  1.0000
  F   F104      1.0  0.40009  0.70562  0.60711  1.0000
  F   F105      1.0  0.64886  0.19532  0.13797  1.0000
  F   F106      1.0  0.64921  0.19468  0.64320  1.0000
  F   F107      1.0  0.64909  0.69047  0.11024  1.0000
  F   F108      1.0  0.65105  0.69955  0.63681  1.0000
  F   F109      1.0  0.89920  0.20111  0.11289  1.0000
  F   F110      1.0  0.90356  0.20266  0.60979  1.0000
  F   F111      1.0  0.90097  0.71068  0.12728  1.0000
  F   F112      1.0  0.89965  0.69085  0.63130  1.0000
  F   F113      1.0  0.09586  0.30207  0.37643  1.0000
  F   F114      1.0  0.09542  0.30727  0.90364  1.0000
  F   F115      1.0  0.09962  0.80505  0.37518  1.0000
  F   F116      1.0  0.09566  0.81053  0.85798  1.0000
  F   F117      1.0  0.35113  0.31315  0.37056  1.0000
  F   F118      1.0  0.35108  0.30551  0.87952  1.0000
  F   F119      1.0  0.35836  0.80118  0.35634  1.0000
  F   F120      1.0  0.35240  0.80055  0.87771  1.0000
  F   F121      1.0  0.60091  0.30426  0.36996  1.0000
  F   F122      1.0  0.59939  0.29553  0.88677  1.0000
  F   F123      1.0  0.59718  0.79868  0.37723  1.0000
  F   F124      1.0  0.58946  0.80389  0.88565  1.0000
  F   F125      1.0  0.84529  0.29317  0.38338  1.0000
  F   F126      1.0  0.85146  0.29660  0.87244  1.0000
  F   F127      1.0  0.84829  0.80920  0.38730  1.0000
  F   F128      1.0  0.85737  0.78810  0.88119  1.0000
  F   F129      1.0  0.07153  0.25169  0.12397  1.0000
  F   F130      1.0  0.05973  0.25286  0.65587  1.0000
  F   F131      1.0  0.06148  0.75023  0.14925  1.0000
  F   F132      1.0  0.06825  0.74561  0.63869  1.0000
  F   F133      1.0  0.31501  0.24543  0.14757  1.0000
  F   F134      1.0  0.30282  0.25517  0.65828  1.0000
  F   F135      1.0  0.29584  0.75267  0.16123  1.0000
  F   F136      1.0  0.30805  0.75350  0.65708  1.0000
  F   F137      1.0  0.56642  0.24396  0.13972  1.0000
  F   F138      1.0  0.57165  0.25456  0.62670  1.0000
  F   F139      1.0  0.55859  0.75072  0.15523  1.0000
  F   F140      1.0  0.56951  0.75567  0.63775  1.0000
  F   F141      1.0  0.81133  0.23627  0.15906  1.0000
  F   F142      1.0  0.81206  0.25277  0.65488  1.0000
  F   F143      1.0  0.81512  0.74542  0.14124  1.0000
  F   F144      1.0  0.81364  0.75370  0.64913  1.0000
  F   F145      1.0  0.12417  0.36086  0.12441  1.0000
  F   F146      1.0  0.12393  0.38050  0.60517  1.0000
  F   F147      1.0  0.12486  0.87955  0.09906  1.0000
  F   F148      1.0  0.12594  0.85318  0.61424  1.0000
  F   F149      1.0  0.37927  0.39395  0.09008  1.0000
  F   F150      1.0  0.37671  0.37749  0.59220  1.0000
  F   F151      1.0  0.37209  0.85682  0.12047  1.0000
  F   F152      1.0  0.37611  0.86780  0.59697  1.0000
  F   F153      1.0  0.62050  0.35993  0.11823  1.0000
  F   F154      1.0  0.62349  0.38292  0.59535  1.0000
  F   F155      1.0  0.62215  0.85051  0.12428  1.0000
  F   F156      1.0  0.62640  0.89190  0.58735  1.0000
  F   F157      1.0  0.88010  0.39153  0.08789  1.0000
  F   F158      1.0  0.87397  0.37358  0.60614  1.0000
  F   F159      1.0  0.87332  0.87659  0.10348  1.0000
  F   F160      1.0  0.87729  0.87528  0.60388  1.0000
  F   F161      1.0  0.18679  0.25032  0.33616  1.0000
  F   F162      1.0  0.18449  0.25253  0.85606  1.0000
  F   F163      1.0  0.18936  0.74189  0.35587  1.0000
  F   F164      1.0  0.18665  0.75704  0.86189  1.0000
  F   F165      1.0  0.43319  0.25107  0.35808  1.0000
  F   F166      1.0  0.44740  0.24476  0.84435  1.0000
  F   F167      1.0  0.44790  0.75520  0.33041  1.0000
  F   F168      1.0  0.44006  0.75748  0.84428  1.0000
  F   F169      1.0  0.69014  0.24957  0.34557  1.0000
  F   F170      1.0  0.68873  0.24006  0.86787  1.0000
  F   F171      1.0  0.68249  0.74675  0.37019  1.0000
  F   F172      1.0  0.68148  0.74255  0.87034  1.0000
  F   F173      1.0  0.93265  0.24655  0.35574  1.0000
  F   F174      1.0  0.93766  0.25444  0.85284  1.0000
  F   F175      1.0  0.93743  0.75690  0.34422  1.0000
  F   F176      1.0  0.93999  0.75049  0.83892  1.0000
  F   F177      1.0  0.12540  0.12629  0.39834  1.0000
  F   F178      1.0  0.13174  0.13734  0.87775  1.0000
  F   F179      1.0  0.12417  0.62833  0.39488  1.0000
  F   F180      1.0  0.12830  0.63575  0.87592  1.0000
  F   F181      1.0  0.37416  0.11784  0.40876  1.0000
  F   F182      1.0  0.37582  0.12885  0.89258  1.0000
  F   F183      1.0  0.37447  0.63247  0.38684  1.0000
  F   F184      1.0  0.37561  0.63577  0.88963  1.0000
  F   F185      1.0  0.62953  0.11901  0.39477  1.0000
  F   F186      1.0  0.62993  0.14313  0.86931  1.0000
  F   F187      1.0  0.61982  0.62232  0.41122  1.0000
  F   F188      1.0  0.62693  0.63683  0.89289  1.0000
  F   F189      1.0  0.87641  0.10215  0.41059  1.0000
  F   F190      1.0  0.87192  0.11979  0.91414  1.0000
  F   F191      1.0  0.87542  0.63143  0.38629  1.0000
  F   F192      1.0  0.87509  0.61172  0.89892  1.0000
  F   F193      1.0  0.00256  0.36359  0.09342  1.0000
  F   F194      1.0  0.00349  0.36448  0.58096  1.0000
  F   F195      1.0  0.01066  0.85075  0.07277  1.0000
  F   F196      1.0  0.00755  0.84369  0.59624  1.0000
  F   F197      1.0  0.26473  0.36577  0.06556  1.0000
  F   F198      1.0  0.25882  0.37020  0.56563  1.0000
  F   F199      1.0  0.26105  0.86815  0.04849  1.0000
  F   F200      1.0  0.25679  0.88073  0.55907  1.0000
  F   F201      1.0  0.50568  0.36046  0.08059  1.0000
  F   F202      1.0  0.50674  0.35845  0.58345  1.0000
  F   F203      1.0  0.50851  0.86360  0.06259  1.0000
  F   F204      1.0  0.51122  0.85868  0.56442  1.0000
  F   F205      1.0  0.76303  0.36062  0.07647  1.0000
  F   F206      1.0  0.75164  0.35374  0.58828  1.0000
  F   F207      1.0  0.75670  0.85307  0.07429  1.0000
  F   F208      1.0  0.75541  0.87904  0.56408  1.0000
  F   F209      1.0  0.06488  0.47622  0.19298  1.0000
  F   F210      1.0  0.06896  0.48929  0.66480  1.0000
  F   F211      1.0  0.06737  0.98529  0.17606  1.0000
  F   F212      1.0  0.06914  0.97837  0.67777  1.0000
  F   F213      1.0  0.32396  0.48727  0.16949  1.0000
  F   F214      1.0  0.32057  0.49292  0.67798  1.0000
  F   F215      1.0  0.32414  0.99067  0.15984  1.0000
  F   F216      1.0  0.32813  0.98210  0.66437  1.0000
  F   F217      1.0  0.57089  0.48263  0.16893  1.0000
  F   F218      1.0  0.57041  0.48750  0.67514  1.0000
  F   F219      1.0  0.57154  0.97920  0.19062  1.0000
  F   F220      1.0  0.56605  0.98916  0.68578  1.0000
  F   F221      1.0  0.81166  0.48991  0.17716  1.0000
  F   F222      1.0  0.81502  0.48830  0.68853  1.0000
  F   F223      1.0  0.81481  0.98384  0.18496  1.0000
  F   F224      1.0  0.82338  0.99479  0.66166  1.0000
  F   F225      1.0  0.23839  0.13287  0.43100  1.0000
  F   F226      1.0  0.24549  0.13764  0.92056  1.0000
  F   F227      1.0  0.24271  0.63132  0.43350  1.0000
  F   F228      1.0  0.24116  0.64088  0.93133  1.0000
  F   F229      1.0  0.49313  0.14821  0.42451  1.0000
  F   F230      1.0  0.49613  0.13905  0.91462  1.0000
  F   F231      1.0  0.48837  0.63998  0.43924  1.0000
  F   F232      1.0  0.48838  0.64880  0.92070  1.0000
  F   F233      1.0  0.74652  0.13619  0.42095  1.0000
  F   F234      1.0  0.74462  0.13743  0.92192  1.0000
  F   F235      1.0  0.74040  0.62905  0.43412  1.0000
  F   F236      1.0  0.73779  0.63539  0.92659  1.0000
  F   F237      1.0  0.99267  0.13032  0.43667  1.0000
  F   F238      1.0  0.99198  0.14656  0.91629  1.0000
  F   F239      1.0  0.98929  0.63727  0.41498  1.0000
  F   F240      1.0  0.98781  0.63618  0.93108  1.0000
  F   F241      1.0  0.18398  0.01283  0.32391  1.0000
  F   F242      1.0  0.18767  0.00935  0.83157  1.0000
  F   F243      1.0  0.18564  0.50400  0.31875  1.0000
  F   F244      1.0  0.18388  0.51843  0.81629  1.0000
  F   F245      1.0  0.43764  0.01913  0.30177  1.0000
  F   F246      1.0  0.43103  0.01215  0.83511  1.0000
  F   F247      1.0  0.43101  0.52356  0.32987  1.0000
  F   F248      1.0  0.43071  0.51499  0.82740  1.0000
  F   F249      1.0  0.68376  0.02359  0.30263  1.0000
  F   F250      1.0  0.68139  0.00225  0.82529  1.0000
  F   F251      1.0  0.67923  0.50844  0.32344  1.0000
  F   F252      1.0  0.68358  0.51066  0.83601  1.0000
  F   F253      1.0  0.94258  0.00484  0.32611  1.0000
  F   F254      1.0  0.92809  0.00774  0.83605  1.0000
  F   F255      1.0  0.92443  0.51381  0.32665  1.0000
  F   F256      1.0  0.92925  0.50949  0.82953  1.0000
  F   F257      1.0  0.99962  0.25367  0.99602  1.0000
  F   F258      1.0  0.00220  0.25727  0.49939  1.0000
  F   F259      1.0  0.99775  0.74370  0.00053  1.0000
  F   F260      1.0  0.99749  0.74568  0.49539  1.0000
  F   F261      1.0  0.24959  0.23550  0.00973  1.0000
  F   F262      1.0  0.24997  0.25827  0.48668  1.0000
  F   F263      1.0  0.24861  0.71870  0.03083  1.0000
  F   F264      1.0  0.24826  0.75206  0.50909  1.0000
  F   F265      1.0  0.50192  0.24760  0.00279  1.0000
  F   F266      1.0  0.50866  0.27150  0.48022  1.0000
  F   F267      1.0  0.49730  0.73871  0.00639  1.0000
  F   F268      1.0  0.49637  0.74799  0.50857  1.0000
  F   F269      1.0  0.74327  0.22641  0.02299  1.0000
  F   F270      1.0  0.74725  0.23778  0.50789  1.0000
  F   F271      1.0  0.75160  0.74317  0.99728  1.0000
  F   F272      1.0  0.74899  0.75693  0.49128  1.0000
  F   F273      1.0  0.12706  0.99865  0.24495  1.0000
  F   F274      1.0  0.11915  0.99900  0.75810  1.0000
  F   F275      1.0  0.12324  0.49651  0.26254  1.0000
  F   F276      1.0  0.12445  0.49648  0.74693  1.0000
  F   F277      1.0  0.37254  0.99097  0.24680  1.0000
  F   F278      1.0  0.37398  0.00983  0.75586  1.0000
  F   F279      1.0  0.38198  0.51482  0.24160  1.0000
  F   F280      1.0  0.38310  0.51139  0.73660  1.0000
  F   F281      1.0  0.62877  0.00707  0.24702  1.0000
  F   F282      1.0  0.63237  0.00142  0.74083  1.0000
  F   F283      1.0  0.62374  0.50513  0.25143  1.0000
  F   F284      1.0  0.62118  0.49450  0.75672  1.0000
  F   F285      1.0  0.88260  0.00377  0.24501  1.0000
  F   F286      1.0  0.87583  0.00293  0.74510  1.0000
  F   F287      1.0  0.87149  0.48731  0.25442  1.0000
  F   F288      1.0  0.87831  0.49794  0.73948  1.0000
  F   F289      1.0  0.04829  0.03591  0.00743  1.0000
  F   F290      1.0  0.04092  0.02892  0.52591  1.0000
  F   F291      1.0  0.03976  0.53480  0.02944  1.0000
  F   F292      1.0  0.03303  0.53776  0.52268  1.0000
  F   F293      1.0  0.28967  0.03049  0.01450  1.0000
  F   F294      1.0  0.28371  0.03071  0.53318  1.0000
  F   F295      1.0  0.29807  0.53580  0.02246  1.0000
  F   F296      1.0  0.29522  0.53378  0.51752  1.0000
  F   F297      1.0  0.54784  0.01972  0.01200  1.0000
  F   F298      1.0  0.54058  0.03451  0.52324  1.0000
  F   F299      1.0  0.54487  0.54038  0.02463  1.0000
  F   F300      1.0  0.54497  0.51742  0.52600  1.0000
  F   F301      1.0  0.78682  0.03785  0.03594  1.0000
  F   F302      1.0  0.77978  0.03607  0.54925  1.0000
  F   F303      1.0  0.79439  0.52760  0.01476  1.0000
  F   F304      1.0  0.78173  0.52181  0.54033  1.0000
  F   F305      1.0  0.24225  0.39931  0.23447  1.0000
  F   F306      1.0  0.23054  0.42134  0.71914  1.0000
  F   F307      1.0  0.23576  0.91993  0.21879  1.0000
  F   F308      1.0  0.24066  0.90792  0.72135  1.0000
  F   F309      1.0  0.48830  0.41992  0.21758  1.0000
  F   F310      1.0  0.48729  0.41073  0.73055  1.0000
  F   F311      1.0  0.48923  0.90910  0.22454  1.0000
  F   F312      1.0  0.48382  0.92888  0.70965  1.0000
  F   F313      1.0  0.73239  0.41842  0.21827  1.0000
  F   F314      1.0  0.73033  0.40419  0.75000  1.0000
  F   F315      1.0  0.74071  0.89675  0.22967  1.0000
  F   F316      1.0  0.73382  0.89254  0.73731  1.0000
  F   F317      1.0  0.97736  0.41177  0.23106  1.0000
  F   F318      1.0  0.98513  0.42335  0.72638  1.0000
  F   F319      1.0  0.98756  0.90299  0.22160  1.0000
  F   F320      1.0  0.98441  0.91362  0.72950  1.0000
  F   F321      1.0  0.20250  0.46488  0.47924  1.0000
  F   F322      1.0  0.20291  0.47096  0.97774  1.0000
  F   F323      1.0  0.19722  0.96605  0.49038  1.0000
  F   F324      1.0  0.19973  0.97863  0.98374  1.0000
  F   F325      1.0  0.45706  0.46619  0.47574  1.0000
  F   F326      1.0  0.46704  0.47290  0.97751  1.0000
  F   F327      1.0  0.45077  0.96827  0.48319  1.0000
  F   F328      1.0  0.46260  0.97373  0.97795  1.0000
  F   F329      1.0  0.70784  0.47030  0.48325  1.0000
  F   F330      1.0  0.70990  0.46027  0.97797  1.0000
  F   F331      1.0  0.70947  0.97296  0.46587  1.0000
  F   F332      1.0  0.70016  0.95978  0.99252  1.0000
  F   F333      1.0  0.95265  0.46488  0.47731  1.0000
  F   F334      1.0  0.96119  0.47959  0.97783  1.0000
  F   F335      1.0  0.96869  0.95849  0.47790  1.0000
  F   F336      1.0  0.96218  0.96771  0.98020  1.0000
  F   F337      1.0  0.01855  0.10440  0.26238  1.0000
  F   F338      1.0  0.01471  0.08464  0.77845  1.0000
  F   F339      1.0  0.01047  0.59074  0.25947  1.0000
  F   F340      1.0  0.01102  0.59686  0.77120  1.0000
  F   F341      1.0  0.26439  0.07961  0.27943  1.0000
  F   F342      1.0  0.26969  0.06394  0.77709  1.0000
  F   F343      1.0  0.26810  0.56899  0.27674  1.0000
  F   F344      1.0  0.26370  0.59007  0.78328  1.0000
  F   F345      1.0  0.51250  0.07811  0.29369  1.0000
  F   F346      1.0  0.51073  0.10639  0.76261  1.0000
  F   F347      1.0  0.51812  0.59068  0.28053  1.0000
  F   F348      1.0  0.51373  0.60440  0.77378  1.0000
  F   F349      1.0  0.76759  0.08636  0.27670  1.0000
  F   F350      1.0  0.77132  0.07716  0.77728  1.0000
  F   F351      1.0  0.75636  0.59869  0.26738  1.0000
  F   F352      1.0  0.76570  0.60409  0.76014  1.0000
  F   F353      1.0  0.09812  0.41699  0.46488  1.0000
  F   F354      1.0  0.10261  0.41821  0.96546  1.0000
  F   F355      1.0  0.10291  0.90758  0.46264  1.0000
  F   F356      1.0  0.10198  0.89963  0.95254  1.0000
  F   F357      1.0  0.34915  0.41156  0.45498  1.0000
  F   F358      1.0  0.35214  0.39921  0.96996  1.0000
  F   F359      1.0  0.34946  0.91071  0.45317  1.0000
  F   F360      1.0  0.35205  0.90618  0.96910  1.0000
  F   F361      1.0  0.59861  0.41051  0.45578  1.0000
  F   F362      1.0  0.59895  0.40474  0.97335  1.0000
  F   F363      1.0  0.60533  0.91290  0.44761  1.0000
  F   F364      1.0  0.60273  0.89493  0.97113  1.0000
  F   F365      1.0  0.84893  0.38929  0.46858  1.0000
  F   F366      1.0  0.85333  0.39370  0.96772  1.0000
  F   F367      1.0  0.84800  0.91938  0.46547  1.0000
  F   F368      1.0  0.84849  0.91013  0.95618  1.0000
  F   F369      1.0  0.04321  0.29061  0.28990  1.0000
  F   F370      1.0  0.05161  0.30582  0.78959  1.0000
  F   F371      1.0  0.04150  0.79334  0.30000  1.0000
  F   F372      1.0  0.04232  0.79165  0.78792  1.0000
  F   F373      1.0  0.30683  0.30295  0.28469  1.0000
  F   F374      1.0  0.28874  0.31991  0.79534  1.0000
  F   F375      1.0  0.29028  0.79834  0.30133  1.0000
  F   F376      1.0  0.30606  0.79849  0.79077  1.0000
  F   F377      1.0  0.54122  0.29996  0.28461  1.0000
  F   F378      1.0  0.55549  0.29042  0.78045  1.0000
  F   F379      1.0  0.54219  0.80099  0.29335  1.0000
  F   F380      1.0  0.55287  0.79798  0.77610  1.0000
  F   F381      1.0  0.79532  0.30036  0.29374  1.0000
  F   F382      1.0  0.78856  0.29836  0.80284  1.0000
  F   F383      1.0  0.80279  0.78737  0.28655  1.0000
  F   F384      1.0  0.80017  0.80290  0.79476  1.0000
