data_image0
_chemical_formula_structural       Hf96F384
_chemical_formula_sum              "Hf96 F384"
_cell_length_a       31.0205
_cell_length_b       15.5078
_cell_length_c       15.5012
_cell_angle_alpha    63.342
_cell_angle_beta     63.342
_cell_angle_gamma    80.1625

_space_group_name_H-M_alt    "P 1"
_space_group_IT_number       1

loop_
  _space_group_symop_operation_xyz
  'x, y, z'

loop_
  _atom_site_type_symbol
  _atom_site_label
  _atom_site_symmetry_multiplicity
  _atom_site_fract_x
  _atom_site_fract_y
  _atom_site_fract_z
  _atom_site_occupancy
  Hf  Hf1       1.0  0.19874  0.10634  0.37345  1.0000
  Hf  Hf2       1.0  0.19688  0.10462  0.86924  1.0000
  Hf  Hf3       1.0  0.19481  0.61049  0.37558  1.0000
  Hf  Hf4       1.0  0.20174  0.60459  0.86039  1.0000
  Hf  Hf5       1.0  0.45085  0.11098  0.36967  1.0000
  Hf  Hf6       1.0  0.44566  0.10412  0.87706  1.0000
  Hf  Hf7       1.0  0.44440  0.61034  0.37263  1.0000
  Hf  Hf8       1.0  0.44530  0.61052  0.87241  1.0000
  Hf  Hf9       1.0  0.70148  0.11625  0.37064  1.0000
  Hf  Hf10      1.0  0.69403  0.11064  0.87514  1.0000
  Hf  Hf11      1.0  0.69853  0.61166  0.37219  1.0000
  Hf  Hf12      1.0  0.69229  0.61377  0.87808  1.0000
  Hf  Hf13      1.0  0.94822  0.10720  0.37546  1.0000
  Hf  Hf14      1.0  0.94724  0.10050  0.87285  1.0000
  Hf  Hf15      1.0  0.94868  0.61051  0.37354  1.0000
  Hf  Hf16      1.0  0.94880  0.60488  0.87110  1.0000
  Hf  Hf17      1.0  0.05560  0.39043  0.12399  1.0000
  Hf  Hf18      1.0  0.05810  0.38688  0.62418  1.0000
  Hf  Hf19      1.0  0.05183  0.88760  0.13172  1.0000
  Hf  Hf20      1.0  0.05265  0.89359  0.61100  1.0000
  Hf  Hf21      1.0  0.29878  0.38636  0.13852  1.0000
  Hf  Hf22      1.0  0.30407  0.39189  0.61584  1.0000
  Hf  Hf23      1.0  0.30444  0.89385  0.11599  1.0000
  Hf  Hf24      1.0  0.30216  0.88832  0.63119  1.0000
  Hf  Hf25      1.0  0.55183  0.39293  0.13184  1.0000
  Hf  Hf26      1.0  0.55378  0.40211  0.61602  1.0000
  Hf  Hf27      1.0  0.55321  0.89473  0.12900  1.0000
  Hf  Hf28      1.0  0.55264  0.89236  0.62520  1.0000
  Hf  Hf29      1.0  0.80372  0.39246  0.12271  1.0000
  Hf  Hf30      1.0  0.80032  0.39061  0.62664  1.0000
  Hf  Hf31      1.0  0.80071  0.89498  0.13031  1.0000
  Hf  Hf32      1.0  0.80237  0.89445  0.61682  1.0000
  Hf  Hf33      1.0  0.05508  0.18325  0.42472  1.0000
  Hf  Hf34      1.0  0.05810  0.18082  0.91959  1.0000
  Hf  Hf35      1.0  0.05434  0.67730  0.42063  1.0000
  Hf  Hf36      1.0  0.05947  0.68323  0.91574  1.0000
  Hf  Hf37      1.0  0.30815  0.17751  0.41947  1.0000
  Hf  Hf38      1.0  0.30379  0.18377  0.91053  1.0000
  Hf  Hf39      1.0  0.30606  0.68649  0.40887  1.0000
  Hf  Hf40      1.0  0.30410  0.67060  0.91654  1.0000
  Hf  Hf41      1.0  0.55729  0.19070  0.41673  1.0000
  Hf  Hf42      1.0  0.55422  0.19115  0.91772  1.0000
  Hf  Hf43      1.0  0.55130  0.68328  0.41780  1.0000
  Hf  Hf44      1.0  0.55371  0.68892  0.91856  1.0000
  Hf  Hf45      1.0  0.80869  0.19464  0.41051  1.0000
  Hf  Hf46      1.0  0.80610  0.18596  0.92057  1.0000
  Hf  Hf47      1.0  0.80671  0.67689  0.41501  1.0000
  Hf  Hf48      1.0  0.80770  0.68717  0.90597  1.0000
  Hf  Hf49      1.0  0.15836  0.38629  0.33468  1.0000
  Hf  Hf50      1.0  0.15865  0.38434  0.83404  1.0000
  Hf  Hf51      1.0  0.16072  0.88255  0.32957  1.0000
  Hf  Hf52      1.0  0.15977  0.88198  0.84017  1.0000
  Hf  Hf53      1.0  0.40791  0.38801  0.33452  1.0000
  Hf  Hf54      1.0  0.41325  0.38735  0.82700  1.0000
  Hf  Hf55      1.0  0.40427  0.89357  0.33848  1.0000
  Hf  Hf56      1.0  0.40763  0.88490  0.83152  1.0000
  Hf  Hf57      1.0  0.66033  0.39394  0.33504  1.0000
  Hf  Hf58      1.0  0.65891  0.39664  0.83167  1.0000
  Hf  Hf59      1.0  0.66057  0.89424  0.33848  1.0000
  Hf  Hf60      1.0  0.65334  0.88804  0.84005  1.0000
  Hf  Hf61      1.0  0.91139  0.39102  0.33231  1.0000
  Hf  Hf62      1.0  0.91067  0.38908  0.82967  1.0000
  Hf  Hf63      1.0  0.90641  0.89157  0.33334  1.0000
  Hf  Hf64      1.0  0.90939  0.88380  0.83492  1.0000
  Hf  Hf65      1.0  0.19605  0.31438  0.08194  1.0000
  Hf  Hf66      1.0  0.19559  0.31023  0.58556  1.0000
  Hf  Hf67      1.0  0.19127  0.81052  0.09160  1.0000
  Hf  Hf68      1.0  0.19341  0.80855  0.58873  1.0000
  Hf  Hf69      1.0  0.44440  0.31652  0.08530  1.0000
  Hf  Hf70      1.0  0.44383  0.31869  0.57987  1.0000
  Hf  Hf71      1.0  0.44067  0.81757  0.09094  1.0000
  Hf  Hf72      1.0  0.44145  0.81636  0.58572  1.0000
  Hf  Hf73      1.0  0.69335  0.32514  0.08155  1.0000
  Hf  Hf74      1.0  0.68980  0.32051  0.59127  1.0000
  Hf  Hf75      1.0  0.69539  0.81669  0.08338  1.0000
  Hf  Hf76      1.0  0.69314  0.82153  0.58093  1.0000
  Hf  Hf77      1.0  0.94562  0.32009  0.08592  1.0000
  Hf  Hf78      1.0  0.94358  0.32190  0.58053  1.0000
  Hf  Hf79      1.0  0.94372  0.81370  0.08409  1.0000
  Hf  Hf80      1.0  0.94342  0.81209  0.58140  1.0000
  Hf  Hf81      1.0  0.09228  0.10320  0.17340  1.0000
  Hf  Hf82      1.0  0.09215  0.10961  0.66605  1.0000
  Hf  Hf83      1.0  0.09141  0.60666  0.17373  1.0000
  Hf  Hf84      1.0  0.09232  0.60937  0.66856  1.0000
  Hf  Hf85      1.0  0.33727  0.10547  0.17653  1.0000
  Hf  Hf86      1.0  0.34191  0.10626  0.66494  1.0000
  Hf  Hf87      1.0  0.34266  0.61729  0.15707  1.0000
  Hf  Hf88      1.0  0.34218  0.60541  0.66322  1.0000
  Hf  Hf89      1.0  0.59383  0.11584  0.16363  1.0000
  Hf  Hf90      1.0  0.59107  0.11255  0.67277  1.0000
  Hf  Hf91      1.0  0.59183  0.62052  0.16321  1.0000
  Hf  Hf92      1.0  0.59314  0.61691  0.66366  1.0000
  Hf  Hf93      1.0  0.84372  0.11957  0.17072  1.0000
  Hf  Hf94      1.0  0.84082  0.10826  0.67056  1.0000
  Hf  Hf95      1.0  0.84279  0.61504  0.16079  1.0000
  Hf  Hf96      1.0  0.83930  0.60087  0.67118  1.0000
  F   F1        1.0  0.08314  0.13525  0.29375  1.0000
  F   F2        1.0  0.08159  0.13232  0.80580  1.0000
  F   F3        1.0  0.09043  0.64096  0.28989  1.0000
  F   F4        1.0  0.07639  0.62187  0.79846  1.0000
  F   F5        1.0  0.33150  0.12568  0.30348  1.0000
  F   F6        1.0  0.32964  0.12677  0.80345  1.0000
  F   F7        1.0  0.32216  0.62291  0.30135  1.0000
  F   F8        1.0  0.32636  0.61031  0.81089  1.0000
  F   F9        1.0  0.58384  0.14753  0.29235  1.0000
  F   F10       1.0  0.57838  0.14299  0.79931  1.0000
  F   F11       1.0  0.58050  0.62784  0.30375  1.0000
  F   F12       1.0  0.57654  0.64998  0.79626  1.0000
  F   F13       1.0  0.82428  0.13103  0.31111  1.0000
  F   F14       1.0  0.83614  0.12113  0.80471  1.0000
  F   F15       1.0  0.82632  0.62111  0.30468  1.0000
  F   F16       1.0  0.82585  0.62898  0.80008  1.0000
  F   F17       1.0  0.18046  0.33147  0.45526  1.0000
  F   F18       1.0  0.18710  0.33416  0.94307  1.0000
  F   F19       1.0  0.18608  0.82781  0.44472  1.0000
  F   F20       1.0  0.18684  0.82958  0.95403  1.0000
  F   F21       1.0  0.43904  0.35468  0.43646  1.0000
  F   F22       1.0  0.44459  0.34190  0.92899  1.0000
  F   F23       1.0  0.43457  0.83139  0.45326  1.0000
  F   F24       1.0  0.42720  0.82973  0.95930  1.0000
  F   F25       1.0  0.67645  0.33408  0.45927  1.0000
  F   F26       1.0  0.69517  0.35606  0.93207  1.0000
  F   F27       1.0  0.68118  0.84042  0.45841  1.0000
  F   F28       1.0  0.68645  0.84926  0.94189  1.0000
  F   F29       1.0  0.94897  0.35063  0.43315  1.0000
  F   F30       1.0  0.93489  0.34195  0.94401  1.0000
  F   F31       1.0  0.93225  0.83810  0.44473  1.0000
  F   F32       1.0  0.93456  0.83170  0.95262  1.0000
  F   F33       1.0  0.17664  0.36572  0.20270  1.0000
  F   F34       1.0  0.16754  0.37230  0.69312  1.0000
  F   F35       1.0  0.16920  0.87223  0.19766  1.0000
  F   F36       1.0  0.16986  0.85996  0.71106  1.0000
  F   F37       1.0  0.42189  0.37002  0.19095  1.0000
  F   F38       1.0  0.41932  0.35997  0.69738  1.0000
  F   F39       1.0  0.41925  0.88598  0.19982  1.0000
  F   F40       1.0  0.41551  0.87743  0.69430  1.0000
  F   F41       1.0  0.67358  0.38891  0.18840  1.0000
  F   F42       1.0  0.67626  0.38871  0.69028  1.0000
  F   F43       1.0  0.67442  0.88436  0.19997  1.0000
  F   F44       1.0  0.66852  0.85780  0.71179  1.0000
  F   F45       1.0  0.91730  0.37014  0.19797  1.0000
  F   F46       1.0  0.92346  0.36960  0.69365  1.0000
  F   F47       1.0  0.91586  0.86951  0.19507  1.0000
  F   F48       1.0  0.92900  0.87461  0.68296  1.0000
  F   F49       1.0  0.07212  0.16047  0.04779  1.0000
  F   F50       1.0  0.06001  0.16154  0.55848  1.0000
  F   F51       1.0  0.06864  0.65374  0.05620  1.0000
  F   F52       1.0  0.05361  0.65089  0.57061  1.0000
  F   F53       1.0  0.31488  0.16680  0.04970  1.0000
  F   F54       1.0  0.31218  0.15131  0.55735  1.0000
  F   F55       1.0  0.31428  0.65640  0.04988  1.0000
  F   F56       1.0  0.31268  0.65779  0.55194  1.0000
  F   F57       1.0  0.56791  0.15786  0.04876  1.0000
  F   F58       1.0  0.56887  0.17334  0.54254  1.0000
  F   F59       1.0  0.55734  0.65984  0.06163  1.0000
  F   F60       1.0  0.56407  0.65971  0.55882  1.0000
  F   F61       1.0  0.81042  0.15459  0.06839  1.0000
  F   F62       1.0  0.80924  0.16626  0.55733  1.0000
  F   F63       1.0  0.82113  0.67480  0.04154  1.0000
  F   F64       1.0  0.81479  0.65750  0.55452  1.0000
  F   F65       1.0  0.20724  0.20554  0.21611  1.0000
  F   F66       1.0  0.20462  0.19321  0.71585  1.0000
  F   F67       1.0  0.19978  0.69028  0.20767  1.0000
  F   F68       1.0  0.21633  0.70103  0.69571  1.0000
  F   F69       1.0  0.45463  0.20619  0.21615  1.0000
  F   F70       1.0  0.44949  0.19722  0.71431  1.0000
  F   F71       1.0  0.45110  0.70147  0.22131  1.0000
  F   F72       1.0  0.45435  0.70201  0.70459  1.0000
  F   F73       1.0  0.70334  0.21409  0.20415  1.0000
  F   F74       1.0  0.70717  0.20756  0.72149  1.0000
  F   F75       1.0  0.70117  0.70233  0.21316  1.0000
  F   F76       1.0  0.71179  0.70846  0.69234  1.0000
  F   F77       1.0  0.95721  0.20359  0.21517  1.0000
  F   F78       1.0  0.94635  0.20394  0.71599  1.0000
  F   F79       1.0  0.95772  0.70092  0.20367  1.0000
  F   F80       1.0  0.95470  0.70389  0.70581  1.0000
  F   F81       1.0  0.15392  0.08096  0.04312  1.0000
  F   F82       1.0  0.15045  0.09597  0.54185  1.0000
  F   F83       1.0  0.14776  0.57463  0.04765  1.0000
  F   F84       1.0  0.15250  0.61881  0.53125  1.0000
  F   F85       1.0  0.39543  0.08549  0.05532  1.0000
  F   F86       1.0  0.39561  0.08063  0.54523  1.0000
  F   F87       1.0  0.39690  0.59822  0.03227  1.0000
  F   F88       1.0  0.39535  0.58949  0.53702  1.0000
  F   F89       1.0  0.65418  0.09086  0.03826  1.0000
  F   F90       1.0  0.64856  0.09707  0.54898  1.0000
  F   F91       1.0  0.64261  0.58566  0.03744  1.0000
  F   F92       1.0  0.65018  0.59424  0.54424  1.0000
  F   F93       1.0  0.89701  0.09223  0.05308  1.0000
  F   F94       1.0  0.90066  0.09733  0.53574  1.0000
  F   F95       1.0  0.89873  0.57904  0.05331  1.0000
  F   F96       1.0  0.90532  0.58914  0.54147  1.0000
  F   F97       1.0  0.15302  0.19470  0.12406  1.0000
  F   F98       1.0  0.15043  0.18953  0.63331  1.0000
  F   F99       1.0  0.15182  0.68766  0.11327  1.0000
  F   F100      1.0  0.15487  0.69099  0.64017  1.0000
  F   F101      1.0  0.40385  0.19175  0.12904  1.0000
  F   F102      1.0  0.40411  0.19548  0.61363  1.0000
  F   F103      1.0  0.40397  0.68609  0.13406  1.0000
  F   F104      1.0  0.39829  0.69332  0.63404  1.0000
  F   F105      1.0  0.64971  0.21743  0.10054  1.0000
  F   F106      1.0  0.65763  0.19431  0.63355  1.0000
  F   F107      1.0  0.64917  0.70354  0.10596  1.0000
  F   F108      1.0  0.65028  0.69899  0.63813  1.0000
  F   F109      1.0  0.90140  0.20027  0.13799  1.0000
  F   F110      1.0  0.89764  0.21094  0.60800  1.0000
  F   F111      1.0  0.89858  0.70245  0.13189  1.0000
  F   F112      1.0  0.89864  0.69241  0.63401  1.0000
  F   F113      1.0  0.09582  0.29942  0.38075  1.0000
  F   F114      1.0  0.09773  0.30189  0.87739  1.0000
  F   F115      1.0  0.09778  0.79534  0.38155  1.0000
  F   F116      1.0  0.09728  0.80093  0.89534  1.0000
  F   F117      1.0  0.35017  0.30545  0.38020  1.0000
  F   F118      1.0  0.35615  0.28608  0.85081  1.0000
  F   F119      1.0  0.34788  0.81773  0.35490  1.0000
  F   F120      1.0  0.35136  0.79621  0.88395  1.0000
  F   F121      1.0  0.60099  0.31456  0.36217  1.0000
  F   F122      1.0  0.59227  0.31168  0.86695  1.0000
  F   F123      1.0  0.60073  0.81235  0.39830  1.0000
  F   F124      1.0  0.59378  0.80170  0.87529  1.0000
  F   F125      1.0  0.84954  0.29999  0.37847  1.0000
  F   F126      1.0  0.84921  0.30163  0.89242  1.0000
  F   F127      1.0  0.84873  0.80723  0.38778  1.0000
  F   F128      1.0  0.85600  0.80003  0.85023  1.0000
  F   F129      1.0  0.06004  0.25081  0.14372  1.0000
  F   F130      1.0  0.06205  0.25068  0.64221  1.0000
  F   F131      1.0  0.05819  0.74545  0.15589  1.0000
  F   F132      1.0  0.06715  0.75018  0.64275  1.0000
  F   F133      1.0  0.31396  0.25487  0.14314  1.0000
  F   F134      1.0  0.30930  0.25344  0.64248  1.0000
  F   F135      1.0  0.31441  0.75826  0.13149  1.0000
  F   F136      1.0  0.31148  0.75535  0.63754  1.0000
  F   F137      1.0  0.55814  0.25849  0.14897  1.0000
  F   F138      1.0  0.56622  0.25691  0.63617  1.0000
  F   F139      1.0  0.55930  0.74784  0.15809  1.0000
  F   F140      1.0  0.57219  0.75472  0.63048  1.0000
  F   F141      1.0  0.81490  0.25427  0.13515  1.0000
  F   F142      1.0  0.81293  0.24905  0.64674  1.0000
  F   F143      1.0  0.81281  0.75945  0.14107  1.0000
  F   F144      1.0  0.81820  0.76246  0.62965  1.0000
  F   F145      1.0  0.12823  0.35845  0.11049  1.0000
  F   F146      1.0  0.12541  0.35541  0.61957  1.0000
  F   F147      1.0  0.11838  0.85956  0.13256  1.0000
  F   F148      1.0  0.12608  0.86862  0.58868  1.0000
  F   F149      1.0  0.36963  0.36205  0.10964  1.0000
  F   F150      1.0  0.37520  0.36632  0.59622  1.0000
  F   F151      1.0  0.37334  0.85803  0.12030  1.0000
  F   F152      1.0  0.36899  0.86326  0.62221  1.0000
  F   F153      1.0  0.62406  0.36912  0.11412  1.0000
  F   F154      1.0  0.62269  0.37314  0.61002  1.0000
  F   F155      1.0  0.62733  0.86004  0.11364  1.0000
  F   F156      1.0  0.61966  0.86343  0.62981  1.0000
  F   F157      1.0  0.87407  0.36743  0.10496  1.0000
  F   F158      1.0  0.87585  0.37825  0.60588  1.0000
  F   F159      1.0  0.87056  0.88187  0.09266  1.0000
  F   F160      1.0  0.87268  0.87283  0.61784  1.0000
  F   F161      1.0  0.17801  0.23949  0.37232  1.0000
  F   F162      1.0  0.18431  0.24075  0.86703  1.0000
  F   F163      1.0  0.19027  0.75540  0.33665  1.0000
  F   F164      1.0  0.18682  0.73162  0.86698  1.0000
  F   F165      1.0  0.43307  0.23908  0.37424  1.0000
  F   F166      1.0  0.44270  0.24408  0.85013  1.0000
  F   F167      1.0  0.42107  0.74233  0.37112  1.0000
  F   F168      1.0  0.44313  0.75031  0.83540  1.0000
  F   F169      1.0  0.69590  0.26017  0.33553  1.0000
  F   F170      1.0  0.67134  0.25189  0.87346  1.0000
  F   F171      1.0  0.68761  0.74586  0.36753  1.0000
  F   F172      1.0  0.68308  0.75109  0.86297  1.0000
  F   F173      1.0  0.93124  0.24916  0.37453  1.0000
  F   F174      1.0  0.93636  0.24550  0.85792  1.0000
  F   F175      1.0  0.93834  0.75066  0.34977  1.0000
  F   F176      1.0  0.94295  0.74444  0.85165  1.0000
  F   F177      1.0  0.12828  0.11877  0.38585  1.0000
  F   F178      1.0  0.12534  0.12489  0.89530  1.0000
  F   F179      1.0  0.12389  0.61666  0.40756  1.0000
  F   F180      1.0  0.13076  0.64384  0.86627  1.0000
  F   F181      1.0  0.37749  0.13186  0.39868  1.0000
  F   F182      1.0  0.37425  0.10558  0.90634  1.0000
  F   F183      1.0  0.37279  0.62033  0.38675  1.0000
  F   F184      1.0  0.37975  0.64182  0.86906  1.0000
  F   F185      1.0  0.62973  0.12602  0.39065  1.0000
  F   F186      1.0  0.62487  0.12739  0.89608  1.0000
  F   F187      1.0  0.62280  0.62651  0.39638  1.0000
  F   F188      1.0  0.62479  0.65050  0.87318  1.0000
  F   F189      1.0  0.87500  0.13206  0.38332  1.0000
  F   F190      1.0  0.87762  0.12541  0.90006  1.0000
  F   F191      1.0  0.87847  0.62784  0.39781  1.0000
  F   F192      1.0  0.87701  0.62017  0.89710  1.0000
  F   F193      1.0  0.00627  0.35918  0.08269  1.0000
  F   F194      1.0  0.00769  0.35406  0.57250  1.0000
  F   F195      1.0  0.00663  0.86607  0.07081  1.0000
  F   F196      1.0  0.00827  0.86220  0.55971  1.0000
  F   F197      1.0  0.25842  0.36388  0.07382  1.0000
  F   F198      1.0  0.25698  0.36798  0.55348  1.0000
  F   F199      1.0  0.25108  0.86088  0.08307  1.0000
  F   F200      1.0  0.25496  0.87345  0.57380  1.0000
  F   F201      1.0  0.50447  0.36904  0.07246  1.0000
  F   F202      1.0  0.50678  0.35692  0.56915  1.0000
  F   F203      1.0  0.50327  0.85856  0.08709  1.0000
  F   F204      1.0  0.50753  0.86327  0.57037  1.0000
  F   F205      1.0  0.75663  0.37154  0.07355  1.0000
  F   F206      1.0  0.75673  0.36704  0.56928  1.0000
  F   F207      1.0  0.75544  0.88649  0.07194  1.0000
  F   F208      1.0  0.75551  0.87653  0.56020  1.0000
  F   F209      1.0  0.06630  0.47424  0.17908  1.0000
  F   F210      1.0  0.07669  0.48133  0.67066  1.0000
  F   F211      1.0  0.06793  0.97616  0.18169  1.0000
  F   F212      1.0  0.07124  0.97308  0.66712  1.0000
  F   F213      1.0  0.31756  0.48276  0.18770  1.0000
  F   F214      1.0  0.31668  0.48275  0.67649  1.0000
  F   F215      1.0  0.31532  0.98112  0.16759  1.0000
  F   F216      1.0  0.31378  0.97780  0.69170  1.0000
  F   F217      1.0  0.57060  0.48589  0.17314  1.0000
  F   F218      1.0  0.56845  0.47663  0.67747  1.0000
  F   F219      1.0  0.57079  0.97994  0.18064  1.0000
  F   F220      1.0  0.56265  0.99232  0.67716  1.0000
  F   F221      1.0  0.82095  0.47815  0.18365  1.0000
  F   F222      1.0  0.81539  0.47813  0.68711  1.0000
  F   F223      1.0  0.81568  0.97775  0.19003  1.0000
  F   F224      1.0  0.82140  0.99155  0.66375  1.0000
  F   F225      1.0  0.24417  0.14353  0.41952  1.0000
  F   F226      1.0  0.24379  0.14995  0.91042  1.0000
  F   F227      1.0  0.24293  0.64005  0.42620  1.0000
  F   F228      1.0  0.24422  0.61664  0.93337  1.0000
  F   F229      1.0  0.49317  0.13493  0.42057  1.0000
  F   F230      1.0  0.49508  0.13341  0.92992  1.0000
  F   F231      1.0  0.48972  0.65715  0.41308  1.0000
  F   F232      1.0  0.49229  0.62929  0.94053  1.0000
  F   F233      1.0  0.73969  0.14035  0.43882  1.0000
  F   F234      1.0  0.74107  0.15565  0.92712  1.0000
  F   F235      1.0  0.74555  0.63422  0.42078  1.0000
  F   F236      1.0  0.74041  0.64468  0.92299  1.0000
  F   F237      1.0  0.99443  0.12329  0.42778  1.0000
  F   F238      1.0  0.99366  0.14146  0.92084  1.0000
  F   F239      1.0  0.99314  0.62962  0.43485  1.0000
  F   F240      1.0  0.99497  0.62795  0.93630  1.0000
  F   F241      1.0  0.18816  0.00190  0.32568  1.0000
  F   F242      1.0  0.18004  0.01547  0.81568  1.0000
  F   F243      1.0  0.17404  0.51014  0.32359  1.0000
  F   F244      1.0  0.18204  0.51268  0.82332  1.0000
  F   F245      1.0  0.42633  0.02765  0.30748  1.0000
  F   F246      1.0  0.43710  0.00967  0.82916  1.0000
  F   F247      1.0  0.42831  0.51022  0.33191  1.0000
  F   F248      1.0  0.42853  0.51396  0.81897  1.0000
  F   F249      1.0  0.68627  0.02422  0.31200  1.0000
  F   F250      1.0  0.67924  0.01787  0.82527  1.0000
  F   F251      1.0  0.68184  0.51649  0.32633  1.0000
  F   F252      1.0  0.67872  0.52603  0.82055  1.0000
  F   F253      1.0  0.93171  0.01840  0.32807  1.0000
  F   F254      1.0  0.93093  0.00721  0.82481  1.0000
  F   F255      1.0  0.93936  0.51340  0.32463  1.0000
  F   F256      1.0  0.93544  0.52679  0.80397  1.0000
  F   F257      1.0  0.99871  0.25294  0.00619  1.0000
  F   F258      1.0  0.99304  0.22714  0.51936  1.0000
  F   F259      1.0  0.00287  0.74886  0.99828  1.0000
  F   F260      1.0  0.99719  0.74431  0.50240  1.0000
  F   F261      1.0  0.24970  0.24933  0.99895  1.0000
  F   F262      1.0  0.24603  0.24144  0.50998  1.0000
  F   F263      1.0  0.25050  0.74636  0.99755  1.0000
  F   F264      1.0  0.24897  0.75223  0.49590  1.0000
  F   F265      1.0  0.50043  0.24775  0.00729  1.0000
  F   F266      1.0  0.49909  0.24148  0.51040  1.0000
  F   F267      1.0  0.49938  0.77002  0.98995  1.0000
  F   F268      1.0  0.50243  0.76537  0.48983  1.0000
  F   F269      1.0  0.75222  0.25532  0.00211  1.0000
  F   F270      1.0  0.74727  0.27099  0.48909  1.0000
  F   F271      1.0  0.74826  0.74526  0.00706  1.0000
  F   F272      1.0  0.75043  0.74405  0.50074  1.0000
  F   F273      1.0  0.11705  0.98757  0.27477  1.0000
  F   F274      1.0  0.12621  0.99866  0.74951  1.0000
  F   F275      1.0  0.10905  0.47614  0.27886  1.0000
  F   F276      1.0  0.13180  0.50060  0.73445  1.0000
  F   F277      1.0  0.35671  0.99298  0.27781  1.0000
  F   F278      1.0  0.37432  0.99864  0.74661  1.0000
  F   F279      1.0  0.38421  0.50238  0.24119  1.0000
  F   F280      1.0  0.37922  0.50038  0.73231  1.0000
  F   F281      1.0  0.63094  0.01639  0.23294  1.0000
  F   F282      1.0  0.61788  0.99365  0.76389  1.0000
  F   F283      1.0  0.62922  0.51784  0.25029  1.0000
  F   F284      1.0  0.61185  0.48935  0.77699  1.0000
  F   F285      1.0  0.87998  0.01243  0.24540  1.0000
  F   F286      1.0  0.88014  0.99683  0.73439  1.0000
  F   F287      1.0  0.87630  0.50041  0.25600  1.0000
  F   F288      1.0  0.87478  0.49816  0.74472  1.0000
  F   F289      1.0  0.04648  0.03381  0.01906  1.0000
  F   F290      1.0  0.04747  0.03709  0.50638  1.0000
  F   F291      1.0  0.05091  0.53159  0.01314  1.0000
  F   F292      1.0  0.04662  0.51807  0.52544  1.0000
  F   F293      1.0  0.28994  0.03304  0.01734  1.0000
  F   F294      1.0  0.29632  0.03231  0.52231  1.0000
  F   F295      1.0  0.29409  0.52076  0.03342  1.0000
  F   F296      1.0  0.29465  0.53175  0.51293  1.0000
  F   F297      1.0  0.53950  0.02947  0.03610  1.0000
  F   F298      1.0  0.54408  0.04977  0.51788  1.0000
  F   F299      1.0  0.54696  0.52710  0.01312  1.0000
  F   F300      1.0  0.53159  0.54497  0.53085  1.0000
  F   F301      1.0  0.79251  0.03254  0.01642  1.0000
  F   F302      1.0  0.79078  0.04428  0.51896  1.0000
  F   F303      1.0  0.78980  0.53749  0.02825  1.0000
  F   F304      1.0  0.79386  0.53143  0.52302  1.0000
  F   F305      1.0  0.23391  0.41081  0.23634  1.0000
  F   F306      1.0  0.23260  0.41393  0.70710  1.0000
  F   F307      1.0  0.23544  0.91433  0.21626  1.0000
  F   F308      1.0  0.23653  0.90229  0.73731  1.0000
  F   F309      1.0  0.48354  0.40865  0.23139  1.0000
  F   F310      1.0  0.48489  0.41326  0.71557  1.0000
  F   F311      1.0  0.48648  0.89318  0.24889  1.0000
  F   F312      1.0  0.48399  0.91822  0.71554  1.0000
  F   F313      1.0  0.73704  0.42253  0.22409  1.0000
  F   F314      1.0  0.73662  0.41568  0.72766  1.0000
  F   F315      1.0  0.73756  0.91442  0.24328  1.0000
  F   F316      1.0  0.73464  0.90697  0.73275  1.0000
  F   F317      1.0  0.98531  0.39037  0.22936  1.0000
  F   F318      1.0  0.98882  0.41153  0.72835  1.0000
  F   F319      1.0  0.98105  0.91942  0.21772  1.0000
  F   F320      1.0  0.98825  0.91763  0.71883  1.0000
  F   F321      1.0  0.20547  0.46916  0.46208  1.0000
  F   F322      1.0  0.21063  0.45291  0.96535  1.0000
  F   F323      1.0  0.20354  0.96485  0.48011  1.0000
  F   F324      1.0  0.20152  0.96742  0.97317  1.0000
  F   F325      1.0  0.45657  0.47692  0.47763  1.0000
  F   F326      1.0  0.45324  0.46748  0.97049  1.0000
  F   F327      1.0  0.45487  0.96944  0.47703  1.0000
  F   F328      1.0  0.44475  0.96446  0.99720  1.0000
  F   F329      1.0  0.70998  0.47215  0.47181  1.0000
  F   F330      1.0  0.70744  0.48124  0.96812  1.0000
  F   F331      1.0  0.69944  0.97365  0.47883  1.0000
  F   F332      1.0  0.70878  0.97170  0.96593  1.0000
  F   F333      1.0  0.95815  0.47020  0.48843  1.0000
  F   F334      1.0  0.95722  0.46792  0.97033  1.0000
  F   F335      1.0  0.95334  0.96740  0.47497  1.0000
  F   F336      1.0  0.94891  0.96761  0.97907  1.0000
  F   F337      1.0  0.02102  0.08673  0.26153  1.0000
  F   F338      1.0  0.01750  0.08330  0.77236  1.0000
  F   F339      1.0  0.01402  0.59332  0.27611  1.0000
  F   F340      1.0  0.01661  0.57818  0.77731  1.0000
  F   F341      1.0  0.26459  0.07970  0.27644  1.0000
  F   F342      1.0  0.26844  0.07763  0.78058  1.0000
  F   F343      1.0  0.25985  0.60714  0.25330  1.0000
  F   F344      1.0  0.26779  0.58237  0.77160  1.0000
  F   F345      1.0  0.52067  0.09245  0.26244  1.0000
  F   F346      1.0  0.51572  0.08725  0.77634  1.0000
  F   F347      1.0  0.51879  0.58265  0.26768  1.0000
  F   F348      1.0  0.51347  0.57560  0.77732  1.0000
  F   F349      1.0  0.76911  0.08487  0.27890  1.0000
  F   F350      1.0  0.76629  0.08586  0.77749  1.0000
  F   F351      1.0  0.76465  0.59364  0.26482  1.0000
  F   F352      1.0  0.76530  0.60899  0.75974  1.0000
  F   F353      1.0  0.10183  0.39490  0.47259  1.0000
  F   F354      1.0  0.10683  0.41043  0.95336  1.0000
  F   F355      1.0  0.09839  0.88720  0.46710  1.0000
  F   F356      1.0  0.10446  0.91589  0.96953  1.0000
  F   F357      1.0  0.35352  0.41427  0.45388  1.0000
  F   F358      1.0  0.35225  0.39674  0.94868  1.0000
  F   F359      1.0  0.35015  0.90283  0.46493  1.0000
  F   F360      1.0  0.35039  0.92874  0.95128  1.0000
  F   F361      1.0  0.59511  0.42511  0.46299  1.0000
  F   F362      1.0  0.60443  0.39442  0.96575  1.0000
  F   F363      1.0  0.60418  0.93488  0.46274  1.0000
  F   F364      1.0  0.59775  0.90744  0.96779  1.0000
  F   F365      1.0  0.85571  0.41129  0.46077  1.0000
  F   F366      1.0  0.85198  0.41299  0.95535  1.0000
  F   F367      1.0  0.85371  0.91912  0.45575  1.0000
  F   F368      1.0  0.84945  0.88013  0.95816  1.0000
  F   F369      1.0  0.04108  0.29491  0.30492  1.0000
  F   F370      1.0  0.04939  0.29088  0.78924  1.0000
  F   F371      1.0  0.04213  0.79380  0.29786  1.0000
  F   F372      1.0  0.05140  0.79515  0.79209  1.0000
  F   F373      1.0  0.29098  0.30671  0.29692  1.0000
  F   F374      1.0  0.29533  0.31046  0.77888  1.0000
  F   F375      1.0  0.29423  0.79732  0.28203  1.0000
  F   F376      1.0  0.29414  0.78657  0.79693  1.0000
  F   F377      1.0  0.54047  0.30001  0.30129  1.0000
  F   F378      1.0  0.54147  0.29402  0.78723  1.0000
  F   F379      1.0  0.55484  0.80096  0.28655  1.0000
  F   F380      1.0  0.54040  0.80030  0.78774  1.0000
  F   F381      1.0  0.79704  0.29771  0.27703  1.0000
  F   F382      1.0  0.80324  0.29624  0.78232  1.0000
  F   F383      1.0  0.80079  0.79746  0.29465  1.0000
  F   F384      1.0  0.79644  0.79942  0.79282  1.0000
