data_image0
_chemical_formula_structural       Hf96F384
_chemical_formula_sum              "Hf96 F384"
_cell_length_a       31.013
_cell_length_b       15.5049
_cell_length_c       15.4963
_cell_angle_alpha    63.342
_cell_angle_beta     63.342
_cell_angle_gamma    80.1625

_space_group_name_H-M_alt    "P 1"
_space_group_IT_number       1

loop_
  _space_group_symop_operation_xyz
  'x, y, z'

loop_
  _atom_site_type_symbol
  _atom_site_label
  _atom_site_symmetry_multiplicity
  _atom_site_fract_x
  _atom_site_fract_y
  _atom_site_fract_z
  _atom_site_occupancy
  Hf  Hf1       1.0  0.19696  0.10336  0.38331  1.0000
  Hf  Hf2       1.0  0.19108  0.10721  0.88025  1.0000
  Hf  Hf3       1.0  0.19907  0.61016  0.37237  1.0000
  Hf  Hf4       1.0  0.19542  0.60509  0.88141  1.0000
  Hf  Hf5       1.0  0.44416  0.10350  0.38023  1.0000
  Hf  Hf6       1.0  0.44507  0.10720  0.87429  1.0000
  Hf  Hf7       1.0  0.44601  0.60504  0.37409  1.0000
  Hf  Hf8       1.0  0.45224  0.60905  0.87323  1.0000
  Hf  Hf9       1.0  0.69204  0.11024  0.37337  1.0000
  Hf  Hf10      1.0  0.69657  0.10823  0.87600  1.0000
  Hf  Hf11      1.0  0.69949  0.61140  0.36983  1.0000
  Hf  Hf12      1.0  0.69697  0.61037  0.87252  1.0000
  Hf  Hf13      1.0  0.94745  0.10707  0.37911  1.0000
  Hf  Hf14      1.0  0.94438  0.10685  0.88006  1.0000
  Hf  Hf15      1.0  0.94554  0.61043  0.37409  1.0000
  Hf  Hf16      1.0  0.94737  0.61013  0.86526  1.0000
  Hf  Hf17      1.0  0.05469  0.40143  0.12232  1.0000
  Hf  Hf18      1.0  0.05306  0.39459  0.62742  1.0000
  Hf  Hf19      1.0  0.05480  0.89838  0.12383  1.0000
  Hf  Hf20      1.0  0.05648  0.89188  0.62620  1.0000
  Hf  Hf21      1.0  0.30535  0.38783  0.12862  1.0000
  Hf  Hf22      1.0  0.30250  0.38910  0.62762  1.0000
  Hf  Hf23      1.0  0.30519  0.88748  0.12131  1.0000
  Hf  Hf24      1.0  0.30082  0.88392  0.63570  1.0000
  Hf  Hf25      1.0  0.55317  0.39144  0.12653  1.0000
  Hf  Hf26      1.0  0.55357  0.39631  0.61652  1.0000
  Hf  Hf27      1.0  0.55037  0.89010  0.12349  1.0000
  Hf  Hf28      1.0  0.55248  0.88651  0.62457  1.0000
  Hf  Hf29      1.0  0.80300  0.39509  0.12349  1.0000
  Hf  Hf30      1.0  0.80362  0.39789  0.62056  1.0000
  Hf  Hf31      1.0  0.80753  0.89608  0.11697  1.0000
  Hf  Hf32      1.0  0.80619  0.89658  0.62340  1.0000
  Hf  Hf33      1.0  0.05390  0.18160  0.41619  1.0000
  Hf  Hf34      1.0  0.05562  0.18764  0.91296  1.0000
  Hf  Hf35      1.0  0.05498  0.68110  0.41365  1.0000
  Hf  Hf36      1.0  0.05535  0.68737  0.91990  1.0000
  Hf  Hf37      1.0  0.30827  0.18384  0.41452  1.0000
  Hf  Hf38      1.0  0.30633  0.19002  0.90892  1.0000
  Hf  Hf39      1.0  0.30500  0.67769  0.42191  1.0000
  Hf  Hf40      1.0  0.30683  0.67802  0.91744  1.0000
  Hf  Hf41      1.0  0.55509  0.18244  0.41818  1.0000
  Hf  Hf42      1.0  0.55754  0.18120  0.90684  1.0000
  Hf  Hf43      1.0  0.55806  0.68922  0.41057  1.0000
  Hf  Hf44      1.0  0.55837  0.68739  0.91292  1.0000
  Hf  Hf45      1.0  0.80442  0.17989  0.42127  1.0000
  Hf  Hf46      1.0  0.80492  0.18188  0.91489  1.0000
  Hf  Hf47      1.0  0.81145  0.69075  0.40750  1.0000
  Hf  Hf48      1.0  0.80584  0.67807  0.92362  1.0000
  Hf  Hf49      1.0  0.15833  0.39067  0.33181  1.0000
  Hf  Hf50      1.0  0.15773  0.39361  0.82869  1.0000
  Hf  Hf51      1.0  0.15877  0.88846  0.33493  1.0000
  Hf  Hf52      1.0  0.15883  0.88198  0.83899  1.0000
  Hf  Hf53      1.0  0.40992  0.38699  0.33404  1.0000
  Hf  Hf54      1.0  0.40960  0.39137  0.83453  1.0000
  Hf  Hf55      1.0  0.41032  0.88239  0.32880  1.0000
  Hf  Hf56      1.0  0.40801  0.88653  0.83233  1.0000
  Hf  Hf57      1.0  0.65608  0.38772  0.33947  1.0000
  Hf  Hf58      1.0  0.66091  0.38900  0.82918  1.0000
  Hf  Hf59      1.0  0.66145  0.89040  0.32959  1.0000
  Hf  Hf60      1.0  0.66031  0.89038  0.83688  1.0000
  Hf  Hf61      1.0  0.90822  0.38153  0.33652  1.0000
  Hf  Hf62      1.0  0.90823  0.39510  0.83111  1.0000
  Hf  Hf63      1.0  0.90715  0.89319  0.33078  1.0000
  Hf  Hf64      1.0  0.90834  0.88722  0.83265  1.0000
  Hf  Hf65      1.0  0.19346  0.31252  0.08539  1.0000
  Hf  Hf66      1.0  0.19173  0.31286  0.58582  1.0000
  Hf  Hf67      1.0  0.19620  0.81412  0.08447  1.0000
  Hf  Hf68      1.0  0.19457  0.80808  0.58308  1.0000
  Hf  Hf69      1.0  0.44636  0.31231  0.08130  1.0000
  Hf  Hf70      1.0  0.44028  0.31621  0.59223  1.0000
  Hf  Hf71      1.0  0.44369  0.82319  0.07676  1.0000
  Hf  Hf72      1.0  0.44798  0.81338  0.57635  1.0000
  Hf  Hf73      1.0  0.69588  0.31416  0.08177  1.0000
  Hf  Hf74      1.0  0.69479  0.31839  0.58121  1.0000
  Hf  Hf75      1.0  0.69129  0.81522  0.09028  1.0000
  Hf  Hf76      1.0  0.69355  0.81981  0.57669  1.0000
  Hf  Hf77      1.0  0.94006  0.31463  0.08372  1.0000
  Hf  Hf78      1.0  0.94550  0.31865  0.58449  1.0000
  Hf  Hf79      1.0  0.94605  0.81989  0.08601  1.0000
  Hf  Hf80      1.0  0.94483  0.81414  0.58221  1.0000
  Hf  Hf81      1.0  0.09068  0.11714  0.16793  1.0000
  Hf  Hf82      1.0  0.08913  0.11217  0.66832  1.0000
  Hf  Hf83      1.0  0.09183  0.61545  0.16528  1.0000
  Hf  Hf84      1.0  0.09187  0.61075  0.66827  1.0000
  Hf  Hf85      1.0  0.34087  0.11119  0.16387  1.0000
  Hf  Hf86      1.0  0.33433  0.10567  0.67377  1.0000
  Hf  Hf87      1.0  0.34107  0.60783  0.17090  1.0000
  Hf  Hf88      1.0  0.34120  0.60664  0.66817  1.0000
  Hf  Hf89      1.0  0.59003  0.10764  0.16959  1.0000
  Hf  Hf90      1.0  0.59165  0.11652  0.65892  1.0000
  Hf  Hf91      1.0  0.59264  0.61123  0.16532  1.0000
  Hf  Hf92      1.0  0.59316  0.60837  0.66191  1.0000
  Hf  Hf93      1.0  0.83793  0.11547  0.16920  1.0000
  Hf  Hf94      1.0  0.84617  0.12152  0.66147  1.0000
  Hf  Hf95      1.0  0.84642  0.60774  0.16295  1.0000
  Hf  Hf96      1.0  0.83934  0.61675  0.66484  1.0000
  F   F1        1.0  0.07765  0.10909  0.31187  1.0000
  F   F2        1.0  0.07846  0.13931  0.79789  1.0000
  F   F3        1.0  0.08385  0.63493  0.29626  1.0000
  F   F4        1.0  0.07879  0.63392  0.80499  1.0000
  F   F5        1.0  0.32931  0.12310  0.30748  1.0000
  F   F6        1.0  0.32689  0.12440  0.80264  1.0000
  F   F7        1.0  0.33209  0.62377  0.30700  1.0000
  F   F8        1.0  0.32318  0.61835  0.80790  1.0000
  F   F9        1.0  0.57570  0.11895  0.30961  1.0000
  F   F10       1.0  0.57832  0.13116  0.79451  1.0000
  F   F11       1.0  0.57883  0.64547  0.29638  1.0000
  F   F12       1.0  0.58484  0.63427  0.80237  1.0000
  F   F13       1.0  0.82560  0.12987  0.30523  1.0000
  F   F14       1.0  0.82689  0.12849  0.79932  1.0000
  F   F15       1.0  0.83157  0.62935  0.30772  1.0000
  F   F16       1.0  0.82753  0.61860  0.81450  1.0000
  F   F17       1.0  0.18439  0.34298  0.44213  1.0000
  F   F18       1.0  0.18365  0.34684  0.94454  1.0000
  F   F19       1.0  0.18454  0.83531  0.45103  1.0000
  F   F20       1.0  0.18214  0.83541  0.95834  1.0000
  F   F21       1.0  0.42866  0.33340  0.45469  1.0000
  F   F22       1.0  0.44013  0.34523  0.94209  1.0000
  F   F23       1.0  0.43966  0.83083  0.45114  1.0000
  F   F24       1.0  0.43219  0.83625  0.94952  1.0000
  F   F25       1.0  0.69065  0.34331  0.43916  1.0000
  F   F26       1.0  0.68193  0.32905  0.95484  1.0000
  F   F27       1.0  0.69916  0.84916  0.42630  1.0000
  F   F28       1.0  0.67943  0.83076  0.95837  1.0000
  F   F29       1.0  0.93840  0.33498  0.44986  1.0000
  F   F30       1.0  0.94021  0.34517  0.94054  1.0000
  F   F31       1.0  0.93863  0.83714  0.44110  1.0000
  F   F32       1.0  0.93678  0.84500  0.94929  1.0000
  F   F33       1.0  0.17479  0.38506  0.19269  1.0000
  F   F34       1.0  0.16690  0.36309  0.70810  1.0000
  F   F35       1.0  0.17122  0.87546  0.19188  1.0000
  F   F36       1.0  0.16557  0.85131  0.70929  1.0000
  F   F37       1.0  0.42369  0.37968  0.19230  1.0000
  F   F38       1.0  0.41903  0.37775  0.69507  1.0000
  F   F39       1.0  0.42161  0.86615  0.19602  1.0000
  F   F40       1.0  0.41509  0.86580  0.69760  1.0000
  F   F41       1.0  0.66278  0.35439  0.20606  1.0000
  F   F42       1.0  0.67708  0.38494  0.68569  1.0000
  F   F43       1.0  0.67087  0.88153  0.18902  1.0000
  F   F44       1.0  0.67553  0.88334  0.68938  1.0000
  F   F45       1.0  0.91643  0.36817  0.20558  1.0000
  F   F46       1.0  0.91852  0.38273  0.68640  1.0000
  F   F47       1.0  0.91497  0.88368  0.20183  1.0000
  F   F48       1.0  0.91628  0.86026  0.70461  1.0000
  F   F49       1.0  0.06365  0.16483  0.04915  1.0000
  F   F50       1.0  0.06610  0.16499  0.54991  1.0000
  F   F51       1.0  0.05814  0.66938  0.05839  1.0000
  F   F52       1.0  0.05794  0.66005  0.56042  1.0000
  F   F53       1.0  0.31289  0.16286  0.05342  1.0000
  F   F54       1.0  0.31005  0.15604  0.55934  1.0000
  F   F55       1.0  0.31858  0.64959  0.05671  1.0000
  F   F56       1.0  0.31893  0.65627  0.54756  1.0000
  F   F57       1.0  0.55998  0.15200  0.06402  1.0000
  F   F58       1.0  0.55408  0.15475  0.56516  1.0000
  F   F59       1.0  0.56246  0.65119  0.05617  1.0000
  F   F60       1.0  0.57039  0.65857  0.54418  1.0000
  F   F61       1.0  0.81676  0.16183  0.05094  1.0000
  F   F62       1.0  0.81209  0.15676  0.55996  1.0000
  F   F63       1.0  0.81612  0.64573  0.05926  1.0000
  F   F64       1.0  0.81569  0.65823  0.55336  1.0000
  F   F65       1.0  0.19735  0.20796  0.22143  1.0000
  F   F66       1.0  0.19987  0.20015  0.70718  1.0000
  F   F67       1.0  0.21273  0.70320  0.20896  1.0000
  F   F68       1.0  0.20152  0.69367  0.71709  1.0000
  F   F69       1.0  0.43760  0.19786  0.22073  1.0000
  F   F70       1.0  0.45340  0.19791  0.71518  1.0000
  F   F71       1.0  0.45187  0.69240  0.20771  1.0000
  F   F72       1.0  0.46577  0.70122  0.70337  1.0000
  F   F73       1.0  0.70204  0.20528  0.21081  1.0000
  F   F74       1.0  0.69896  0.20494  0.71507  1.0000
  F   F75       1.0  0.69503  0.69945  0.21503  1.0000
  F   F76       1.0  0.69875  0.70403  0.71038  1.0000
  F   F77       1.0  0.94957  0.19755  0.20679  1.0000
  F   F78       1.0  0.95755  0.21212  0.71002  1.0000
  F   F79       1.0  0.96443  0.70619  0.21061  1.0000
  F   F80       1.0  0.95454  0.70853  0.71723  1.0000
  F   F81       1.0  0.14863  0.09487  0.03922  1.0000
  F   F82       1.0  0.15273  0.08057  0.53882  1.0000
  F   F83       1.0  0.14303  0.58018  0.04557  1.0000
  F   F84       1.0  0.14876  0.59835  0.53307  1.0000
  F   F85       1.0  0.39484  0.07760  0.04254  1.0000
  F   F86       1.0  0.39425  0.09328  0.55449  1.0000
  F   F87       1.0  0.40334  0.59258  0.03003  1.0000
  F   F88       1.0  0.40233  0.60803  0.53635  1.0000
  F   F89       1.0  0.64806  0.08680  0.04674  1.0000
  F   F90       1.0  0.64306  0.10298  0.53160  1.0000
  F   F91       1.0  0.65071  0.58728  0.04891  1.0000
  F   F92       1.0  0.65170  0.58054  0.54423  1.0000
  F   F93       1.0  0.90141  0.07843  0.04563  1.0000
  F   F94       1.0  0.90547  0.11019  0.52965  1.0000
  F   F95       1.0  0.90149  0.59560  0.03665  1.0000
  F   F96       1.0  0.90080  0.61060  0.53557  1.0000
  F   F97       1.0  0.14855  0.18927  0.12873  1.0000
  F   F98       1.0  0.15094  0.19103  0.62401  1.0000
  F   F99       1.0  0.15888  0.69076  0.12682  1.0000
  F   F100      1.0  0.15276  0.69435  0.63195  1.0000
  F   F101      1.0  0.40142  0.19486  0.10604  1.0000
  F   F102      1.0  0.40122  0.20577  0.62635  1.0000
  F   F103      1.0  0.39971  0.69912  0.11348  1.0000
  F   F104      1.0  0.39804  0.70948  0.63627  1.0000
  F   F105      1.0  0.64820  0.19070  0.13626  1.0000
  F   F106      1.0  0.64858  0.21232  0.61812  1.0000
  F   F107      1.0  0.65019  0.69797  0.12256  1.0000
  F   F108      1.0  0.64911  0.70623  0.60593  1.0000
  F   F109      1.0  0.89573  0.20391  0.11389  1.0000
  F   F110      1.0  0.90439  0.19765  0.64041  1.0000
  F   F111      1.0  0.90222  0.69991  0.13977  1.0000
  F   F112      1.0  0.90036  0.69793  0.64019  1.0000
  F   F113      1.0  0.09666  0.31281  0.35685  1.0000
  F   F114      1.0  0.09341  0.30882  0.88888  1.0000
  F   F115      1.0  0.10019  0.80377  0.38496  1.0000
  F   F116      1.0  0.09972  0.80102  0.88617  1.0000
  F   F117      1.0  0.34834  0.30395  0.36877  1.0000
  F   F118      1.0  0.34364  0.30352  0.87036  1.0000
  F   F119      1.0  0.35351  0.79415  0.35985  1.0000
  F   F120      1.0  0.34622  0.80574  0.88388  1.0000
  F   F121      1.0  0.59683  0.30062  0.40219  1.0000
  F   F122      1.0  0.60133  0.28399  0.88082  1.0000
  F   F123      1.0  0.59767  0.81579  0.35841  1.0000
  F   F124      1.0  0.59980  0.80843  0.87555  1.0000
  F   F125      1.0  0.84927  0.29987  0.38922  1.0000
  F   F126      1.0  0.84528  0.31847  0.86965  1.0000
  F   F127      1.0  0.84308  0.81427  0.37515  1.0000
  F   F128      1.0  0.84996  0.79464  0.89409  1.0000
  F   F129      1.0  0.06400  0.25618  0.14355  1.0000
  F   F130      1.0  0.06360  0.25264  0.64407  1.0000
  F   F131      1.0  0.06402  0.74535  0.15639  1.0000
  F   F132      1.0  0.06667  0.74885  0.64771  1.0000
  F   F133      1.0  0.31320  0.25056  0.15277  1.0000
  F   F134      1.0  0.31613  0.24927  0.64539  1.0000
  F   F135      1.0  0.30836  0.74448  0.14965  1.0000
  F   F136      1.0  0.31647  0.74496  0.62934  1.0000
  F   F137      1.0  0.57100  0.25485  0.13679  1.0000
  F   F138      1.0  0.56825  0.25854  0.62158  1.0000
  F   F139      1.0  0.55853  0.74783  0.14457  1.0000
  F   F140      1.0  0.56512  0.74527  0.65422  1.0000
  F   F141      1.0  0.80171  0.25005  0.15863  1.0000
  F   F142      1.0  0.82765  0.26254  0.61420  1.0000
  F   F143      1.0  0.82848  0.75509  0.11699  1.0000
  F   F144      1.0  0.81838  0.75845  0.63723  1.0000
  F   F145      1.0  0.12551  0.36170  0.12845  1.0000
  F   F146      1.0  0.12432  0.37271  0.61077  1.0000
  F   F147      1.0  0.12609  0.86013  0.11864  1.0000
  F   F148      1.0  0.12547  0.87755  0.60211  1.0000
  F   F149      1.0  0.37673  0.36845  0.11128  1.0000
  F   F150      1.0  0.37360  0.37138  0.61406  1.0000
  F   F151      1.0  0.36957  0.86078  0.12624  1.0000
  F   F152      1.0  0.36836  0.87001  0.59854  1.0000
  F   F153      1.0  0.62889  0.39368  0.08346  1.0000
  F   F154      1.0  0.63036  0.39009  0.59841  1.0000
  F   F155      1.0  0.62074  0.85523  0.12368  1.0000
  F   F156      1.0  0.62333  0.87224  0.60036  1.0000
  F   F157      1.0  0.86645  0.35295  0.13254  1.0000
  F   F158      1.0  0.87704  0.39477  0.59072  1.0000
  F   F159      1.0  0.87426  0.87737  0.10521  1.0000
  F   F160      1.0  0.88309  0.88148  0.58768  1.0000
  F   F161      1.0  0.17395  0.24803  0.37141  1.0000
  F   F162      1.0  0.18046  0.25139  0.87048  1.0000
  F   F163      1.0  0.18751  0.75698  0.35024  1.0000
  F   F164      1.0  0.18933  0.74558  0.86197  1.0000
  F   F165      1.0  0.43513  0.24440  0.35376  1.0000
  F   F166      1.0  0.42100  0.24325  0.87116  1.0000
  F   F167      1.0  0.43645  0.74917  0.35262  1.0000
  F   F168      1.0  0.43685  0.74515  0.86712  1.0000
  F   F169      1.0  0.68082  0.24485  0.36294  1.0000
  F   F170      1.0  0.68717  0.25069  0.85537  1.0000
  F   F171      1.0  0.68172  0.74591  0.36303  1.0000
  F   F172      1.0  0.68430  0.75270  0.84833  1.0000
  F   F173      1.0  0.94423  0.25255  0.34317  1.0000
  F   F174      1.0  0.92920  0.24912  0.86512  1.0000
  F   F175      1.0  0.93202  0.75741  0.35628  1.0000
  F   F176      1.0  0.93019  0.74972  0.87418  1.0000
  F   F177      1.0  0.12594  0.12162  0.39565  1.0000
  F   F178      1.0  0.12332  0.13953  0.89283  1.0000
  F   F179      1.0  0.12983  0.63743  0.38899  1.0000
  F   F180      1.0  0.12365  0.63092  0.90145  1.0000
  F   F181      1.0  0.37430  0.11619  0.40501  1.0000
  F   F182      1.0  0.37175  0.11302  0.89507  1.0000
  F   F183      1.0  0.37240  0.62439  0.39992  1.0000
  F   F184      1.0  0.37957  0.64229  0.86968  1.0000
  F   F185      1.0  0.62252  0.14861  0.37843  1.0000
  F   F186      1.0  0.62551  0.11287  0.90180  1.0000
  F   F187      1.0  0.62777  0.63028  0.39000  1.0000
  F   F188      1.0  0.62560  0.62945  0.90066  1.0000
  F   F189      1.0  0.87244  0.13428  0.39658  1.0000
  F   F190      1.0  0.87351  0.14261  0.88111  1.0000
  F   F191      1.0  0.87959  0.64685  0.37763  1.0000
  F   F192      1.0  0.87530  0.62323  0.89534  1.0000
  F   F193      1.0  0.00084  0.36403  0.08198  1.0000
  F   F194      1.0  0.00812  0.36540  0.57562  1.0000
  F   F195      1.0  0.00336  0.86809  0.08472  1.0000
  F   F196      1.0  0.00861  0.85292  0.57654  1.0000
  F   F197      1.0  0.25799  0.36562  0.07294  1.0000
  F   F198      1.0  0.25313  0.35243  0.59686  1.0000
  F   F199      1.0  0.25645  0.86229  0.07231  1.0000
  F   F200      1.0  0.25657  0.85188  0.58815  1.0000
  F   F201      1.0  0.50531  0.33727  0.10506  1.0000
  F   F202      1.0  0.50883  0.37808  0.56691  1.0000
  F   F203      1.0  0.50567  0.85368  0.07520  1.0000
  F   F204      1.0  0.51180  0.85527  0.56557  1.0000
  F   F205      1.0  0.75821  0.35444  0.06978  1.0000
  F   F206      1.0  0.75891  0.36658  0.57350  1.0000
  F   F207      1.0  0.75597  0.84725  0.10056  1.0000
  F   F208      1.0  0.75954  0.85962  0.57764  1.0000
  F   F209      1.0  0.06702  0.47402  0.18609  1.0000
  F   F210      1.0  0.07137  0.48820  0.66636  1.0000
  F   F211      1.0  0.06803  0.99750  0.17005  1.0000
  F   F212      1.0  0.07004  0.99276  0.66466  1.0000
  F   F213      1.0  0.32144  0.47116  0.18420  1.0000
  F   F214      1.0  0.31949  0.48460  0.67523  1.0000
  F   F215      1.0  0.31299  0.97721  0.19040  1.0000
  F   F216      1.0  0.31034  0.96787  0.70170  1.0000
  F   F217      1.0  0.56696  0.47901  0.19656  1.0000
  F   F218      1.0  0.56779  0.48685  0.66679  1.0000
  F   F219      1.0  0.56996  0.97890  0.16652  1.0000
  F   F220      1.0  0.56560  0.98726  0.67367  1.0000
  F   F221      1.0  0.81904  0.48184  0.17423  1.0000
  F   F222      1.0  0.81655  0.48685  0.68244  1.0000
  F   F223      1.0  0.81894  0.99210  0.16405  1.0000
  F   F224      1.0  0.82626  0.98324  0.66773  1.0000
  F   F225      1.0  0.24385  0.14361  0.42757  1.0000
  F   F226      1.0  0.23965  0.14317  0.91926  1.0000
  F   F227      1.0  0.24081  0.62480  0.43809  1.0000
  F   F228      1.0  0.24558  0.62325  0.93929  1.0000
  F   F229      1.0  0.48749  0.12962  0.43877  1.0000
  F   F230      1.0  0.48171  0.15138  0.92955  1.0000
  F   F231      1.0  0.49550  0.63865  0.41966  1.0000
  F   F232      1.0  0.49889  0.63199  0.92663  1.0000
  F   F233      1.0  0.74204  0.13812  0.42745  1.0000
  F   F234      1.0  0.73961  0.14453  0.92029  1.0000
  F   F235      1.0  0.74231  0.64145  0.42881  1.0000
  F   F236      1.0  0.74268  0.64089  0.92565  1.0000
  F   F237      1.0  0.99466  0.13217  0.43006  1.0000
  F   F238      1.0  0.99149  0.13709  0.91829  1.0000
  F   F239      1.0  0.99486  0.64129  0.41370  1.0000
  F   F240      1.0  0.99214  0.63784  0.91067  1.0000
  F   F241      1.0  0.17775  0.01746  0.32714  1.0000
  F   F242      1.0  0.17776  0.02077  0.81482  1.0000
  F   F243      1.0  0.18415  0.52119  0.31811  1.0000
  F   F244      1.0  0.18455  0.51962  0.81916  1.0000
  F   F245      1.0  0.43160  0.01304  0.33243  1.0000
  F   F246      1.0  0.43352  0.01273  0.81865  1.0000
  F   F247      1.0  0.43036  0.51694  0.33279  1.0000
  F   F248      1.0  0.43387  0.51961  0.82738  1.0000
  F   F249      1.0  0.67235  0.02647  0.32533  1.0000
  F   F250      1.0  0.68625  0.00958  0.82096  1.0000
  F   F251      1.0  0.68160  0.52058  0.32525  1.0000
  F   F252      1.0  0.68297  0.50585  0.83861  1.0000
  F   F253      1.0  0.93338  0.00655  0.33835  1.0000
  F   F254      1.0  0.92544  0.01602  0.83583  1.0000
  F   F255      1.0  0.93127  0.50800  0.33915  1.0000
  F   F256      1.0  0.93384  0.51261  0.82768  1.0000
  F   F257      1.0  0.99761  0.24905  0.99901  1.0000
  F   F258      1.0  0.00069  0.24050  0.50891  1.0000
  F   F259      1.0  0.99258  0.73739  0.00665  1.0000
  F   F260      1.0  0.99964  0.73868  0.49774  1.0000
  F   F261      1.0  0.25113  0.24345  0.00216  1.0000
  F   F262      1.0  0.24769  0.25360  0.49843  1.0000
  F   F263      1.0  0.25447  0.74994  0.98944  1.0000
  F   F264      1.0  0.25053  0.74456  0.51060  1.0000
  F   F265      1.0  0.50327  0.25463  0.99353  1.0000
  F   F266      1.0  0.49580  0.25630  0.49345  1.0000
  F   F267      1.0  0.50093  0.75419  0.99387  1.0000
  F   F268      1.0  0.50188  0.73595  0.50852  1.0000
  F   F269      1.0  0.74988  0.24638  0.00161  1.0000
  F   F270      1.0  0.74831  0.24080  0.51688  1.0000
  F   F271      1.0  0.75090  0.75093  0.00580  1.0000
  F   F272      1.0  0.75271  0.74624  0.50804  1.0000
  F   F273      1.0  0.12247  0.99412  0.25394  1.0000
  F   F274      1.0  0.12092  0.98940  0.75850  1.0000
  F   F275      1.0  0.12198  0.51014  0.24645  1.0000
  F   F276      1.0  0.12806  0.50718  0.74566  1.0000
  F   F277      1.0  0.37906  0.99986  0.24237  1.0000
  F   F278      1.0  0.37059  0.98953  0.75565  1.0000
  F   F279      1.0  0.37873  0.49444  0.24956  1.0000
  F   F280      1.0  0.38034  0.50686  0.74725  1.0000
  F   F281      1.0  0.62525  0.00388  0.24102  1.0000
  F   F282      1.0  0.63233  0.00737  0.73258  1.0000
  F   F283      1.0  0.62046  0.49791  0.26421  1.0000
  F   F284      1.0  0.62306  0.49966  0.75048  1.0000
  F   F285      1.0  0.87234  0.00966  0.24725  1.0000
  F   F286      1.0  0.88135  0.00427  0.73863  1.0000
  F   F287      1.0  0.87230  0.49202  0.25525  1.0000
  F   F288      1.0  0.88011  0.50690  0.73959  1.0000
  F   F289      1.0  0.03975  0.03973  0.02210  1.0000
  F   F290      1.0  0.03700  0.02852  0.53139  1.0000
  F   F291      1.0  0.04121  0.54112  0.02075  1.0000
  F   F292      1.0  0.04458  0.53158  0.52078  1.0000
  F   F293      1.0  0.28685  0.03960  0.02923  1.0000
  F   F294      1.0  0.29500  0.02376  0.53510  1.0000
  F   F295      1.0  0.30208  0.52877  0.02489  1.0000
  F   F296      1.0  0.29473  0.52025  0.52012  1.0000
  F   F297      1.0  0.53532  0.03782  0.01267  1.0000
  F   F298      1.0  0.54787  0.02259  0.52123  1.0000
  F   F299      1.0  0.54669  0.52144  0.02453  1.0000
  F   F300      1.0  0.53886  0.53528  0.52783  1.0000
  F   F301      1.0  0.79303  0.03911  0.01519  1.0000
  F   F302      1.0  0.79347  0.02832  0.52573  1.0000
  F   F303      1.0  0.79024  0.52558  0.02267  1.0000
  F   F304      1.0  0.79491  0.52907  0.51694  1.0000
  F   F305      1.0  0.23582  0.40177  0.23465  1.0000
  F   F306      1.0  0.23230  0.42099  0.71727  1.0000
  F   F307      1.0  0.23621  0.90745  0.22579  1.0000
  F   F308      1.0  0.23105  0.91413  0.73131  1.0000
  F   F309      1.0  0.48457  0.41032  0.24914  1.0000
  F   F310      1.0  0.48488  0.38474  0.74066  1.0000
  F   F311      1.0  0.48388  0.91797  0.21063  1.0000
  F   F312      1.0  0.48092  0.92052  0.71316  1.0000
  F   F313      1.0  0.73264  0.39953  0.22311  1.0000
  F   F314      1.0  0.73421  0.42229  0.72590  1.0000
  F   F315      1.0  0.73388  0.91073  0.22711  1.0000
  F   F316      1.0  0.74227  0.91268  0.73195  1.0000
  F   F317      1.0  0.98319  0.42566  0.21927  1.0000
  F   F318      1.0  0.98091  0.42028  0.71695  1.0000
  F   F319      1.0  0.98408  0.91738  0.22289  1.0000
  F   F320      1.0  0.98647  0.90426  0.74277  1.0000
  F   F321      1.0  0.21095  0.46321  0.47831  1.0000
  F   F322      1.0  0.20233  0.45465  0.98604  1.0000
  F   F323      1.0  0.20739  0.96775  0.48584  1.0000
  F   F324      1.0  0.20766  0.97379  0.96862  1.0000
  F   F325      1.0  0.45552  0.47162  0.47839  1.0000
  F   F326      1.0  0.46978  0.45844  0.97750  1.0000
  F   F327      1.0  0.45145  0.96319  0.48549  1.0000
  F   F328      1.0  0.46062  0.97141  0.96863  1.0000
  F   F329      1.0  0.71169  0.47415  0.47643  1.0000
  F   F330      1.0  0.71274  0.47689  0.96934  1.0000
  F   F331      1.0  0.70107  0.97478  0.48000  1.0000
  F   F332      1.0  0.70924  0.95526  0.98124  1.0000
  F   F333      1.0  0.96433  0.48391  0.47255  1.0000
  F   F334      1.0  0.95067  0.46662  0.98746  1.0000
  F   F335      1.0  0.96643  0.97023  0.47356  1.0000
  F   F336      1.0  0.95821  0.96770  0.98085  1.0000
  F   F337      1.0  0.01183  0.09690  0.27410  1.0000
  F   F338      1.0  0.01331  0.08900  0.77281  1.0000
  F   F339      1.0  0.01825  0.58202  0.27694  1.0000
  F   F340      1.0  0.01517  0.57233  0.77770  1.0000
  F   F341      1.0  0.26513  0.08478  0.27191  1.0000
  F   F342      1.0  0.25949  0.09492  0.76698  1.0000
  F   F343      1.0  0.26867  0.57816  0.27681  1.0000
  F   F344      1.0  0.26121  0.57922  0.78070  1.0000
  F   F345      1.0  0.51180  0.08463  0.27783  1.0000
  F   F346      1.0  0.51530  0.09167  0.77703  1.0000
  F   F347      1.0  0.51331  0.59547  0.27143  1.0000
  F   F348      1.0  0.51860  0.58139  0.77294  1.0000
  F   F349      1.0  0.76225  0.08130  0.27989  1.0000
  F   F350      1.0  0.76517  0.09126  0.77047  1.0000
  F   F351      1.0  0.76711  0.59961  0.26684  1.0000
  F   F352      1.0  0.76313  0.59326  0.76891  1.0000
  F   F353      1.0  0.10181  0.40842  0.46526  1.0000
  F   F354      1.0  0.10251  0.42895  0.96446  1.0000
  F   F355      1.0  0.09962  0.91231  0.46683  1.0000
  F   F356      1.0  0.10051  0.90773  0.96888  1.0000
  F   F357      1.0  0.35170  0.39468  0.46083  1.0000
  F   F358      1.0  0.35015  0.40833  0.95968  1.0000
  F   F359      1.0  0.34817  0.90268  0.44041  1.0000
  F   F360      1.0  0.35108  0.90640  0.96961  1.0000
  F   F361      1.0  0.60023  0.41967  0.45832  1.0000
  F   F362      1.0  0.60113  0.39971  0.95753  1.0000
  F   F363      1.0  0.60394  0.90264  0.46173  1.0000
  F   F364      1.0  0.59701  0.92306  0.96646  1.0000
  F   F365      1.0  0.85367  0.41606  0.45063  1.0000
  F   F366      1.0  0.85381  0.41673  0.96229  1.0000
  F   F367      1.0  0.85324  0.91086  0.45948  1.0000
  F   F368      1.0  0.84613  0.91798  0.95612  1.0000
  F   F369      1.0  0.04244  0.28388  0.29373  1.0000
  F   F370      1.0  0.04780  0.31248  0.78848  1.0000
  F   F371      1.0  0.04495  0.79929  0.29342  1.0000
  F   F372      1.0  0.05432  0.80153  0.79384  1.0000
  F   F373      1.0  0.29585  0.29302  0.29183  1.0000
  F   F374      1.0  0.29483  0.30575  0.78226  1.0000
  F   F375      1.0  0.29042  0.79982  0.29801  1.0000
  F   F376      1.0  0.29829  0.78885  0.78425  1.0000
  F   F377      1.0  0.55518  0.29807  0.28339  1.0000
  F   F378      1.0  0.55380  0.29120  0.77161  1.0000
  F   F379      1.0  0.53725  0.80283  0.28897  1.0000
  F   F380      1.0  0.54561  0.80909  0.77915  1.0000
  F   F381      1.0  0.79448  0.29758  0.31215  1.0000
  F   F382      1.0  0.79438  0.29238  0.77851  1.0000
  F   F383      1.0  0.79462  0.78964  0.28251  1.0000
  F   F384      1.0  0.80325  0.80142  0.78381  1.0000
