data_image0
_chemical_formula_structural       Hf96F384
_chemical_formula_sum              "Hf96 F384"
_cell_length_a       31.028
_cell_length_b       15.5142
_cell_length_c       15.5068
_cell_angle_alpha    63.342
_cell_angle_beta     63.342
_cell_angle_gamma    80.1625

_space_group_name_H-M_alt    "P 1"
_space_group_IT_number       1

loop_
  _space_group_symop_operation_xyz
  'x, y, z'

loop_
  _atom_site_type_symbol
  _atom_site_label
  _atom_site_symmetry_multiplicity
  _atom_site_fract_x
  _atom_site_fract_y
  _atom_site_fract_z
  _atom_site_occupancy
  Hf  Hf1       1.0  0.19676  0.11508  0.37117  1.0000
  Hf  Hf2       1.0  0.19764  0.10961  0.87850  1.0000
  Hf  Hf3       1.0  0.19547  0.61866  0.37534  1.0000
  Hf  Hf4       1.0  0.19384  0.61106  0.87411  1.0000
  Hf  Hf5       1.0  0.44392  0.10521  0.37905  1.0000
  Hf  Hf6       1.0  0.44686  0.10641  0.87232  1.0000
  Hf  Hf7       1.0  0.44356  0.60786  0.37631  1.0000
  Hf  Hf8       1.0  0.45077  0.59900  0.87613  1.0000
  Hf  Hf9       1.0  0.69628  0.10146  0.37389  1.0000
  Hf  Hf10      1.0  0.69528  0.09523  0.87686  1.0000
  Hf  Hf11      1.0  0.69780  0.60410  0.37442  1.0000
  Hf  Hf12      1.0  0.69808  0.59919  0.87279  1.0000
  Hf  Hf13      1.0  0.94827  0.11250  0.36610  1.0000
  Hf  Hf14      1.0  0.94953  0.10936  0.87032  1.0000
  Hf  Hf15      1.0  0.94962  0.61578  0.37700  1.0000
  Hf  Hf16      1.0  0.94581  0.61814  0.87334  1.0000
  Hf  Hf17      1.0  0.05222  0.39789  0.12431  1.0000
  Hf  Hf18      1.0  0.04714  0.39362  0.63045  1.0000
  Hf  Hf19      1.0  0.05746  0.88538  0.12797  1.0000
  Hf  Hf20      1.0  0.05256  0.90019  0.62811  1.0000
  Hf  Hf21      1.0  0.30719  0.40110  0.10954  1.0000
  Hf  Hf22      1.0  0.30155  0.39994  0.62432  1.0000
  Hf  Hf23      1.0  0.30793  0.89329  0.11690  1.0000
  Hf  Hf24      1.0  0.30226  0.89347  0.61967  1.0000
  Hf  Hf25      1.0  0.54793  0.38125  0.14101  1.0000
  Hf  Hf26      1.0  0.55139  0.37969  0.63991  1.0000
  Hf  Hf27      1.0  0.55127  0.88866  0.13908  1.0000
  Hf  Hf28      1.0  0.55341  0.89102  0.62870  1.0000
  Hf  Hf29      1.0  0.80268  0.39455  0.12676  1.0000
  Hf  Hf30      1.0  0.80288  0.39508  0.62028  1.0000
  Hf  Hf31      1.0  0.80499  0.89608  0.12580  1.0000
  Hf  Hf32      1.0  0.80471  0.88913  0.62611  1.0000
  Hf  Hf33      1.0  0.05864  0.19300  0.40946  1.0000
  Hf  Hf34      1.0  0.05799  0.18452  0.91600  1.0000
  Hf  Hf35      1.0  0.05262  0.68812  0.41767  1.0000
  Hf  Hf36      1.0  0.05594  0.68425  0.91795  1.0000
  Hf  Hf37      1.0  0.30494  0.18333  0.40994  1.0000
  Hf  Hf38      1.0  0.31139  0.18861  0.90309  1.0000
  Hf  Hf39      1.0  0.30477  0.68679  0.41714  1.0000
  Hf  Hf40      1.0  0.30898  0.68759  0.90896  1.0000
  Hf  Hf41      1.0  0.55469  0.16996  0.42205  1.0000
  Hf  Hf42      1.0  0.55528  0.17670  0.92161  1.0000
  Hf  Hf43      1.0  0.55677  0.66804  0.42177  1.0000
  Hf  Hf44      1.0  0.55835  0.67630  0.91935  1.0000
  Hf  Hf45      1.0  0.80421  0.17636  0.42206  1.0000
  Hf  Hf46      1.0  0.80555  0.18370  0.91724  1.0000
  Hf  Hf47      1.0  0.80914  0.68424  0.42003  1.0000
  Hf  Hf48      1.0  0.80397  0.68604  0.91799  1.0000
  Hf  Hf49      1.0  0.15927  0.39092  0.33482  1.0000
  Hf  Hf50      1.0  0.15601  0.39251  0.83076  1.0000
  Hf  Hf51      1.0  0.15925  0.89597  0.32910  1.0000
  Hf  Hf52      1.0  0.15735  0.89008  0.83780  1.0000
  Hf  Hf53      1.0  0.40330  0.38433  0.34209  1.0000
  Hf  Hf54      1.0  0.40771  0.38878  0.83365  1.0000
  Hf  Hf55      1.0  0.40659  0.88150  0.33730  1.0000
  Hf  Hf56      1.0  0.40902  0.88919  0.82564  1.0000
  Hf  Hf57      1.0  0.65657  0.38494  0.33947  1.0000
  Hf  Hf58      1.0  0.66153  0.37431  0.83606  1.0000
  Hf  Hf59      1.0  0.65436  0.87745  0.34214  1.0000
  Hf  Hf60      1.0  0.66073  0.88006  0.83220  1.0000
  Hf  Hf61      1.0  0.90694  0.38914  0.33214  1.0000
  Hf  Hf62      1.0  0.90582  0.38920  0.83957  1.0000
  Hf  Hf63      1.0  0.91192  0.89158  0.32725  1.0000
  Hf  Hf64      1.0  0.90824  0.89592  0.82647  1.0000
  Hf  Hf65      1.0  0.19539  0.32303  0.08138  1.0000
  Hf  Hf66      1.0  0.19061  0.31950  0.58332  1.0000
  Hf  Hf67      1.0  0.19702  0.82039  0.07550  1.0000
  Hf  Hf68      1.0  0.19087  0.82569  0.58505  1.0000
  Hf  Hf69      1.0  0.44216  0.30903  0.09063  1.0000
  Hf  Hf70      1.0  0.44280  0.31646  0.58197  1.0000
  Hf  Hf71      1.0  0.44858  0.81612  0.07617  1.0000
  Hf  Hf72      1.0  0.44865  0.81245  0.57780  1.0000
  Hf  Hf73      1.0  0.69102  0.31165  0.09341  1.0000
  Hf  Hf74      1.0  0.69473  0.30950  0.58052  1.0000
  Hf  Hf75      1.0  0.69423  0.80522  0.09143  1.0000
  Hf  Hf76      1.0  0.69561  0.80754  0.58864  1.0000
  Hf  Hf77      1.0  0.94282  0.32990  0.07941  1.0000
  Hf  Hf78      1.0  0.94456  0.32278  0.58294  1.0000
  Hf  Hf79      1.0  0.94584  0.82539  0.07582  1.0000
  Hf  Hf80      1.0  0.94617  0.82433  0.57496  1.0000
  Hf  Hf81      1.0  0.09194  0.11986  0.16303  1.0000
  Hf  Hf82      1.0  0.09452  0.12165  0.65738  1.0000
  Hf  Hf83      1.0  0.09167  0.61061  0.16579  1.0000
  Hf  Hf84      1.0  0.08804  0.62290  0.66255  1.0000
  Hf  Hf85      1.0  0.33688  0.11112  0.17131  1.0000
  Hf  Hf86      1.0  0.33664  0.10713  0.66818  1.0000
  Hf  Hf87      1.0  0.34021  0.61204  0.16886  1.0000
  Hf  Hf88      1.0  0.34391  0.61228  0.66300  1.0000
  Hf  Hf89      1.0  0.58945  0.10597  0.16904  1.0000
  Hf  Hf90      1.0  0.59037  0.10547  0.66746  1.0000
  Hf  Hf91      1.0  0.59040  0.60463  0.16962  1.0000
  Hf  Hf92      1.0  0.59456  0.60654  0.66861  1.0000
  Hf  Hf93      1.0  0.84382  0.12012  0.15946  1.0000
  Hf  Hf94      1.0  0.84337  0.11912  0.66210  1.0000
  Hf  Hf95      1.0  0.84196  0.61753  0.16696  1.0000
  Hf  Hf96      1.0  0.84185  0.60389  0.67111  1.0000
  F   F1        1.0  0.07579  0.14710  0.29698  1.0000
  F   F2        1.0  0.08229  0.14617  0.78633  1.0000
  F   F3        1.0  0.07664  0.62808  0.30840  1.0000
  F   F4        1.0  0.07671  0.62842  0.79840  1.0000
  F   F5        1.0  0.32473  0.10426  0.31328  1.0000
  F   F6        1.0  0.33090  0.11532  0.80981  1.0000
  F   F7        1.0  0.32900  0.63149  0.30521  1.0000
  F   F8        1.0  0.33277  0.64029  0.79978  1.0000
  F   F9        1.0  0.57404  0.10228  0.32120  1.0000
  F   F10       1.0  0.58053  0.13254  0.80589  1.0000
  F   F11       1.0  0.57375  0.61483  0.31391  1.0000
  F   F12       1.0  0.57455  0.60287  0.81714  1.0000
  F   F13       1.0  0.82651  0.12429  0.30998  1.0000
  F   F14       1.0  0.83792  0.13979  0.79768  1.0000
  F   F15       1.0  0.83965  0.63696  0.29823  1.0000
  F   F16       1.0  0.83598  0.61866  0.79972  1.0000
  F   F17       1.0  0.18972  0.35352  0.43970  1.0000
  F   F18       1.0  0.18407  0.35504  0.93637  1.0000
  F   F19       1.0  0.18432  0.84611  0.44939  1.0000
  F   F20       1.0  0.19040  0.85807  0.93589  1.0000
  F   F21       1.0  0.43485  0.33954  0.43973  1.0000
  F   F22       1.0  0.43884  0.33117  0.95378  1.0000
  F   F23       1.0  0.42992  0.82778  0.45312  1.0000
  F   F24       1.0  0.43349  0.85105  0.95518  1.0000
  F   F25       1.0  0.69022  0.33660  0.44244  1.0000
  F   F26       1.0  0.68611  0.32787  0.95854  1.0000
  F   F27       1.0  0.68265  0.81967  0.45236  1.0000
  F   F28       1.0  0.69602  0.83291  0.94298  1.0000
  F   F29       1.0  0.93890  0.35906  0.44256  1.0000
  F   F30       1.0  0.93442  0.34344  0.94677  1.0000
  F   F31       1.0  0.94334  0.85465  0.43649  1.0000
  F   F32       1.0  0.93593  0.85697  0.94128  1.0000
  F   F33       1.0  0.18190  0.38621  0.19735  1.0000
  F   F34       1.0  0.16560  0.36693  0.69750  1.0000
  F   F35       1.0  0.16830  0.89407  0.19045  1.0000
  F   F36       1.0  0.16312  0.88029  0.69678  1.0000
  F   F37       1.0  0.42042  0.36482  0.19928  1.0000
  F   F38       1.0  0.41706  0.37055  0.70058  1.0000
  F   F39       1.0  0.41983  0.86780  0.19498  1.0000
  F   F40       1.0  0.42277  0.87544  0.68953  1.0000
  F   F41       1.0  0.67095  0.37765  0.19327  1.0000
  F   F42       1.0  0.67250  0.36804  0.69289  1.0000
  F   F43       1.0  0.67615  0.87609  0.19174  1.0000
  F   F44       1.0  0.67954  0.88556  0.67740  1.0000
  F   F45       1.0  0.91725  0.36804  0.20201  1.0000
  F   F46       1.0  0.92619  0.37840  0.68899  1.0000
  F   F47       1.0  0.92645  0.88783  0.18029  1.0000
  F   F48       1.0  0.92623  0.89966  0.68380  1.0000
  F   F49       1.0  0.05962  0.15168  0.05425  1.0000
  F   F50       1.0  0.07285  0.18402  0.53653  1.0000
  F   F51       1.0  0.06383  0.66523  0.05837  1.0000
  F   F52       1.0  0.06552  0.66827  0.54350  1.0000
  F   F53       1.0  0.31080  0.15695  0.05435  1.0000
  F   F54       1.0  0.30768  0.15293  0.56597  1.0000
  F   F55       1.0  0.30992  0.65225  0.05333  1.0000
  F   F56       1.0  0.31409  0.65517  0.55525  1.0000
  F   F57       1.0  0.56485  0.15820  0.05061  1.0000
  F   F58       1.0  0.56245  0.15576  0.55905  1.0000
  F   F59       1.0  0.55898  0.66410  0.05853  1.0000
  F   F60       1.0  0.56388  0.65180  0.55428  1.0000
  F   F61       1.0  0.81769  0.15145  0.05560  1.0000
  F   F62       1.0  0.81962  0.16576  0.54006  1.0000
  F   F63       1.0  0.82120  0.67250  0.03867  1.0000
  F   F64       1.0  0.81681  0.66534  0.55865  1.0000
  F   F65       1.0  0.19578  0.22050  0.22150  1.0000
  F   F66       1.0  0.19032  0.20220  0.70791  1.0000
  F   F67       1.0  0.19848  0.71218  0.20865  1.0000
  F   F68       1.0  0.20673  0.70352  0.72093  1.0000
  F   F69       1.0  0.45660  0.20279  0.21734  1.0000
  F   F70       1.0  0.45350  0.20411  0.71119  1.0000
  F   F71       1.0  0.45914  0.69863  0.20323  1.0000
  F   F72       1.0  0.45380  0.69767  0.70786  1.0000
  F   F73       1.0  0.70269  0.19235  0.22803  1.0000
  F   F74       1.0  0.70081  0.19326  0.71270  1.0000
  F   F75       1.0  0.70337  0.69526  0.21826  1.0000
  F   F76       1.0  0.70759  0.69601  0.70919  1.0000
  F   F77       1.0  0.95163  0.20025  0.21817  1.0000
  F   F78       1.0  0.95189  0.20177  0.71947  1.0000
  F   F79       1.0  0.94367  0.71311  0.21140  1.0000
  F   F80       1.0  0.94896  0.72281  0.71048  1.0000
  F   F81       1.0  0.14816  0.10984  0.02441  1.0000
  F   F82       1.0  0.15450  0.08780  0.54216  1.0000
  F   F83       1.0  0.15283  0.59675  0.02587  1.0000
  F   F84       1.0  0.14835  0.59263  0.54152  1.0000
  F   F85       1.0  0.39667  0.10768  0.04251  1.0000
  F   F86       1.0  0.39430  0.08374  0.55023  1.0000
  F   F87       1.0  0.39744  0.57531  0.04544  1.0000
  F   F88       1.0  0.39644  0.58758  0.53491  1.0000
  F   F89       1.0  0.64479  0.08536  0.05333  1.0000
  F   F90       1.0  0.64632  0.07984  0.53651  1.0000
  F   F91       1.0  0.64959  0.60366  0.03154  1.0000
  F   F92       1.0  0.65516  0.58516  0.53492  1.0000
  F   F93       1.0  0.90429  0.09187  0.03451  1.0000
  F   F94       1.0  0.90047  0.10389  0.55043  1.0000
  F   F95       1.0  0.90015  0.59133  0.03699  1.0000
  F   F96       1.0  0.89791  0.58294  0.54612  1.0000
  F   F97       1.0  0.15147  0.20022  0.12554  1.0000
  F   F98       1.0  0.14804  0.21436  0.60499  1.0000
  F   F99       1.0  0.15132  0.70190  0.10087  1.0000
  F   F100      1.0  0.15663  0.69552  0.63223  1.0000
  F   F101      1.0  0.39371  0.18965  0.15854  1.0000
  F   F102      1.0  0.40118  0.20299  0.61691  1.0000
  F   F103      1.0  0.40334  0.69700  0.11177  1.0000
  F   F104      1.0  0.40492  0.69234  0.61882  1.0000
  F   F105      1.0  0.64899  0.18422  0.13854  1.0000
  F   F106      1.0  0.64769  0.19294  0.62244  1.0000
  F   F107      1.0  0.64821  0.67943  0.14257  1.0000
  F   F108      1.0  0.65112  0.67885  0.64581  1.0000
  F   F109      1.0  0.90033  0.20080  0.12622  1.0000
  F   F110      1.0  0.90243  0.20998  0.62158  1.0000
  F   F111      1.0  0.90009  0.71369  0.11444  1.0000
  F   F112      1.0  0.89853  0.70234  0.61765  1.0000
  F   F113      1.0  0.10227  0.30979  0.34307  1.0000
  F   F114      1.0  0.09823  0.30333  0.87934  1.0000
  F   F115      1.0  0.09781  0.81453  0.36724  1.0000
  F   F116      1.0  0.09738  0.80942  0.87917  1.0000
  F   F117      1.0  0.34394  0.30771  0.37597  1.0000
  F   F118      1.0  0.35404  0.30401  0.86786  1.0000
  F   F119      1.0  0.34736  0.80632  0.38023  1.0000
  F   F120      1.0  0.35036  0.80542  0.86604  1.0000
  F   F121      1.0  0.59246  0.29129  0.38198  1.0000
  F   F122      1.0  0.60199  0.29683  0.86180  1.0000
  F   F123      1.0  0.59541  0.79384  0.37655  1.0000
  F   F124      1.0  0.60149  0.79322  0.86191  1.0000
  F   F125      1.0  0.85134  0.30060  0.37103  1.0000
  F   F126      1.0  0.84979  0.30071  0.88170  1.0000
  F   F127      1.0  0.85061  0.81783  0.37695  1.0000
  F   F128      1.0  0.85541  0.80511  0.85257  1.0000
  F   F129      1.0  0.07000  0.26500  0.11616  1.0000
  F   F130      1.0  0.05850  0.25801  0.64463  1.0000
  F   F131      1.0  0.06012  0.74337  0.15575  1.0000
  F   F132      1.0  0.06234  0.76408  0.64637  1.0000
  F   F133      1.0  0.30753  0.24730  0.14764  1.0000
  F   F134      1.0  0.30381  0.24359  0.66722  1.0000
  F   F135      1.0  0.31569  0.74538  0.14739  1.0000
  F   F136      1.0  0.31627  0.75444  0.62386  1.0000
  F   F137      1.0  0.56845  0.25264  0.13529  1.0000
  F   F138      1.0  0.56419  0.24598  0.64515  1.0000
  F   F139      1.0  0.56688  0.74319  0.14902  1.0000
  F   F140      1.0  0.57075  0.74613  0.63959  1.0000
  F   F141      1.0  0.81155  0.25422  0.14938  1.0000
  F   F142      1.0  0.80656  0.24747  0.66694  1.0000
  F   F143      1.0  0.81308  0.75179  0.15176  1.0000
  F   F144      1.0  0.81297  0.74523  0.65815  1.0000
  F   F145      1.0  0.12606  0.36861  0.11998  1.0000
  F   F146      1.0  0.12420  0.38672  0.60022  1.0000
  F   F147      1.0  0.12357  0.84027  0.13136  1.0000
  F   F148      1.0  0.12304  0.87848  0.60514  1.0000
  F   F149      1.0  0.37673  0.37178  0.11040  1.0000
  F   F150      1.0  0.37295  0.36447  0.60051  1.0000
  F   F151      1.0  0.37430  0.85806  0.11215  1.0000
  F   F152      1.0  0.37331  0.86433  0.61959  1.0000
  F   F153      1.0  0.62269  0.37152  0.10593  1.0000
  F   F154      1.0  0.62618  0.36825  0.60206  1.0000
  F   F155      1.0  0.62872  0.85638  0.11222  1.0000
  F   F156      1.0  0.62717  0.86865  0.61332  1.0000
  F   F157      1.0  0.87288  0.37369  0.11240  1.0000
  F   F158      1.0  0.87505  0.36140  0.61527  1.0000
  F   F159      1.0  0.87750  0.87384  0.10057  1.0000
  F   F160      1.0  0.87253  0.86134  0.62424  1.0000
  F   F161      1.0  0.18896  0.25077  0.36699  1.0000
  F   F162      1.0  0.18976  0.25822  0.84588  1.0000
  F   F163      1.0  0.19430  0.76052  0.33891  1.0000
  F   F164      1.0  0.17878  0.75197  0.87068  1.0000
  F   F165      1.0  0.42148  0.23327  0.38275  1.0000
  F   F166      1.0  0.44162  0.25595  0.84785  1.0000
  F   F167      1.0  0.43955  0.75497  0.33746  1.0000
  F   F168      1.0  0.43412  0.74485  0.84969  1.0000
  F   F169      1.0  0.67894  0.23387  0.37777  1.0000
  F   F170      1.0  0.68038  0.23176  0.87180  1.0000
  F   F171      1.0  0.68078  0.73621  0.36580  1.0000
  F   F172      1.0  0.69205  0.74231  0.84267  1.0000
  F   F173      1.0  0.94005  0.25332  0.34847  1.0000
  F   F174      1.0  0.93414  0.25005  0.85828  1.0000
  F   F175      1.0  0.93073  0.74910  0.36354  1.0000
  F   F176      1.0  0.93381  0.75392  0.86477  1.0000
  F   F177      1.0  0.12691  0.12777  0.38719  1.0000
  F   F178      1.0  0.12707  0.14573  0.87779  1.0000
  F   F179      1.0  0.12329  0.63371  0.40352  1.0000
  F   F180      1.0  0.12071  0.63638  0.89345  1.0000
  F   F181      1.0  0.37142  0.13405  0.38734  1.0000
  F   F182      1.0  0.37843  0.12530  0.89553  1.0000
  F   F183      1.0  0.37371  0.63222  0.39433  1.0000
  F   F184      1.0  0.37665  0.62843  0.89363  1.0000
  F   F185      1.0  0.62304  0.11521  0.40086  1.0000
  F   F186      1.0  0.62403  0.10531  0.90450  1.0000
  F   F187      1.0  0.62462  0.61409  0.39732  1.0000
  F   F188      1.0  0.62913  0.61429  0.89108  1.0000
  F   F189      1.0  0.87801  0.11649  0.39961  1.0000
  F   F190      1.0  0.87809  0.11362  0.89300  1.0000
  F   F191      1.0  0.87472  0.63960  0.40295  1.0000
  F   F192      1.0  0.87674  0.63477  0.89126  1.0000
  F   F193      1.0  0.00303  0.37768  0.07757  1.0000
  F   F194      1.0  0.01084  0.36505  0.56522  1.0000
  F   F195      1.0  0.01311  0.86291  0.06807  1.0000
  F   F196      1.0  0.01008  0.86815  0.56287  1.0000
  F   F197      1.0  0.25959  0.34897  0.07062  1.0000
  F   F198      1.0  0.25579  0.36136  0.56926  1.0000
  F   F199      1.0  0.25821  0.86219  0.07444  1.0000
  F   F200      1.0  0.25573  0.86294  0.57127  1.0000
  F   F201      1.0  0.50522  0.35505  0.08771  1.0000
  F   F202      1.0  0.50580  0.35973  0.58666  1.0000
  F   F203      1.0  0.50710  0.87702  0.07356  1.0000
  F   F204      1.0  0.50720  0.85589  0.58517  1.0000
  F   F205      1.0  0.75144  0.35329  0.08761  1.0000
  F   F206      1.0  0.75879  0.35930  0.57224  1.0000
  F   F207      1.0  0.75367  0.87108  0.07190  1.0000
  F   F208      1.0  0.75720  0.86626  0.56853  1.0000
  F   F209      1.0  0.06395  0.49288  0.16725  1.0000
  F   F210      1.0  0.06597  0.50100  0.67675  1.0000
  F   F211      1.0  0.07839  0.99584  0.15525  1.0000
  F   F212      1.0  0.07146  0.00366  0.65874  1.0000
  F   F213      1.0  0.31852  0.49197  0.17885  1.0000
  F   F214      1.0  0.32183  0.47890  0.68412  1.0000
  F   F215      1.0  0.32117  0.98282  0.17603  1.0000
  F   F216      1.0  0.31840  0.98053  0.67922  1.0000
  F   F217      1.0  0.56670  0.48637  0.17187  1.0000
  F   F218      1.0  0.56619  0.47392  0.69384  1.0000
  F   F219      1.0  0.57149  0.97146  0.18884  1.0000
  F   F220      1.0  0.57250  0.96440  0.69057  1.0000
  F   F221      1.0  0.82192  0.48605  0.16784  1.0000
  F   F222      1.0  0.81459  0.48163  0.67756  1.0000
  F   F223      1.0  0.81987  0.99134  0.16367  1.0000
  F   F224      1.0  0.82345  0.99182  0.65674  1.0000
  F   F225      1.0  0.24317  0.14387  0.41581  1.0000
  F   F226      1.0  0.24611  0.13758  0.92078  1.0000
  F   F227      1.0  0.23729  0.63398  0.43954  1.0000
  F   F228      1.0  0.24668  0.65192  0.90850  1.0000
  F   F229      1.0  0.49340  0.13422  0.42647  1.0000
  F   F230      1.0  0.49427  0.13676  0.91893  1.0000
  F   F231      1.0  0.49197  0.62624  0.43174  1.0000
  F   F232      1.0  0.49417  0.63334  0.92619  1.0000
  F   F233      1.0  0.73781  0.13682  0.42812  1.0000
  F   F234      1.0  0.74334  0.14348  0.92110  1.0000
  F   F235      1.0  0.75195  0.64133  0.41512  1.0000
  F   F236      1.0  0.74716  0.64037  0.92034  1.0000
  F   F237      1.0  0.99114  0.13966  0.42007  1.0000
  F   F238      1.0  0.99484  0.15712  0.90795  1.0000
  F   F239      1.0  0.99173  0.66154  0.41907  1.0000
  F   F240      1.0  0.99511  0.64789  0.91825  1.0000
  F   F241      1.0  0.18391  0.01726  0.31480  1.0000
  F   F242      1.0  0.18130  0.02116  0.81795  1.0000
  F   F243      1.0  0.18575  0.52100  0.30253  1.0000
  F   F244      1.0  0.17986  0.52970  0.81836  1.0000
  F   F245      1.0  0.43127  0.00454  0.33555  1.0000
  F   F246      1.0  0.43180  0.01474  0.82622  1.0000
  F   F247      1.0  0.42581  0.51372  0.33573  1.0000
  F   F248      1.0  0.42793  0.50127  0.85024  1.0000
  F   F249      1.0  0.67869  0.00055  0.32596  1.0000
  F   F250      1.0  0.67625  0.01038  0.83426  1.0000
  F   F251      1.0  0.67762  0.50459  0.33087  1.0000
  F   F252      1.0  0.68034  0.49972  0.83507  1.0000
  F   F253      1.0  0.93382  0.02048  0.30727  1.0000
  F   F254      1.0  0.93522  0.01925  0.80983  1.0000
  F   F255      1.0  0.92744  0.51662  0.33787  1.0000
  F   F256      1.0  0.92741  0.52598  0.81914  1.0000
  F   F257      1.0  0.99907  0.26367  0.99661  1.0000
  F   F258      1.0  0.99639  0.24956  0.49020  1.0000
  F   F259      1.0  0.99809  0.75750  0.99416  1.0000
  F   F260      1.0  0.99675  0.75204  0.50801  1.0000
  F   F261      1.0  0.24565  0.24656  0.00402  1.0000
  F   F262      1.0  0.24726  0.24151  0.50155  1.0000
  F   F263      1.0  0.25636  0.76995  0.98022  1.0000
  F   F264      1.0  0.25356  0.75974  0.49732  1.0000
  F   F265      1.0  0.49616  0.24013  0.01362  1.0000
  F   F266      1.0  0.50205  0.25937  0.48779  1.0000
  F   F267      1.0  0.50033  0.74911  0.00090  1.0000
  F   F268      1.0  0.50179  0.74301  0.49466  1.0000
  F   F269      1.0  0.74865  0.23916  0.01125  1.0000
  F   F270      1.0  0.75456  0.25197  0.50512  1.0000
  F   F271      1.0  0.74633  0.71857  0.03292  1.0000
  F   F272      1.0  0.75450  0.75041  0.49681  1.0000
  F   F273      1.0  0.12702  0.02072  0.24060  1.0000
  F   F274      1.0  0.12261  0.00842  0.75945  1.0000
  F   F275      1.0  0.11902  0.49262  0.25395  1.0000
  F   F276      1.0  0.12580  0.50775  0.74731  1.0000
  F   F277      1.0  0.37715  0.99415  0.24973  1.0000
  F   F278      1.0  0.37878  0.00469  0.74222  1.0000
  F   F279      1.0  0.37770  0.49483  0.24774  1.0000
  F   F280      1.0  0.38503  0.50276  0.73869  1.0000
  F   F281      1.0  0.62221  0.99319  0.25006  1.0000
  F   F282      1.0  0.62312  0.99605  0.76476  1.0000
  F   F283      1.0  0.62344  0.48729  0.26053  1.0000
  F   F284      1.0  0.63105  0.49418  0.73748  1.0000
  F   F285      1.0  0.87622  0.00529  0.23630  1.0000
  F   F286      1.0  0.86859  0.99615  0.75891  1.0000
  F   F287      1.0  0.86942  0.49539  0.26311  1.0000
  F   F288      1.0  0.87401  0.49091  0.74347  1.0000
  F   F289      1.0  0.04472  0.03210  0.00698  1.0000
  F   F290      1.0  0.04371  0.03988  0.51739  1.0000
  F   F291      1.0  0.04451  0.53118  0.01611  1.0000
  F   F292      1.0  0.03480  0.53550  0.53673  1.0000
  F   F293      1.0  0.30637  0.02787  0.01135  1.0000
  F   F294      1.0  0.29141  0.03470  0.51956  1.0000
  F   F295      1.0  0.29170  0.53081  0.01594  1.0000
  F   F296      1.0  0.28648  0.53857  0.52696  1.0000
  F   F297      1.0  0.54195  0.02619  0.03487  1.0000
  F   F298      1.0  0.53659  0.01865  0.53894  1.0000
  F   F299      1.0  0.54398  0.51997  0.02830  1.0000
  F   F300      1.0  0.54330  0.52212  0.53477  1.0000
  F   F301      1.0  0.78965  0.03359  0.01822  1.0000
  F   F302      1.0  0.79334  0.03175  0.52504  1.0000
  F   F303      1.0  0.79929  0.53810  0.01294  1.0000
  F   F304      1.0  0.79671  0.53208  0.51139  1.0000
  F   F305      1.0  0.24580  0.40971  0.22215  1.0000
  F   F306      1.0  0.23702  0.43010  0.72933  1.0000
  F   F307      1.0  0.23933  0.91809  0.21806  1.0000
  F   F308      1.0  0.23373  0.91181  0.72384  1.0000
  F   F309      1.0  0.48399  0.40266  0.23879  1.0000
  F   F310      1.0  0.48178  0.42374  0.73422  1.0000
  F   F311      1.0  0.48375  0.91367  0.23199  1.0000
  F   F312      1.0  0.48168  0.90525  0.75350  1.0000
  F   F313      1.0  0.73421  0.40229  0.23489  1.0000
  F   F314      1.0  0.73606  0.40323  0.72728  1.0000
  F   F315      1.0  0.73865  0.89509  0.24716  1.0000
  F   F316      1.0  0.73243  0.92318  0.72696  1.0000
  F   F317      1.0  0.98080  0.42895  0.22184  1.0000
  F   F318      1.0  0.98119  0.42139  0.72638  1.0000
  F   F319      1.0  0.98949  0.91254  0.22656  1.0000
  F   F320      1.0  0.98802  0.90586  0.73795  1.0000
  F   F321      1.0  0.20661  0.48414  0.46768  1.0000
  F   F322      1.0  0.20595  0.46793  0.98073  1.0000
  F   F323      1.0  0.20705  0.96821  0.47400  1.0000
  F   F324      1.0  0.19855  0.97333  0.98429  1.0000
  F   F325      1.0  0.45455  0.46802  0.47259  1.0000
  F   F326      1.0  0.46489  0.45797  0.96745  1.0000
  F   F327      1.0  0.46242  0.96472  0.47241  1.0000
  F   F328      1.0  0.45587  0.97549  0.97954  1.0000
  F   F329      1.0  0.71464  0.46837  0.46790  1.0000
  F   F330      1.0  0.70972  0.46112  0.97687  1.0000
  F   F331      1.0  0.71649  0.94423  0.46332  1.0000
  F   F332      1.0  0.70934  0.97271  0.96580  1.0000
  F   F333      1.0  0.96256  0.47792  0.48721  1.0000
  F   F334      1.0  0.96090  0.47186  0.96639  1.0000
  F   F335      1.0  0.94835  0.97904  0.47823  1.0000
  F   F336      1.0  0.96910  0.97407  0.95602  1.0000
  F   F337      1.0  0.02085  0.08753  0.26211  1.0000
  F   F338      1.0  0.01627  0.08883  0.76507  1.0000
  F   F339      1.0  0.01195  0.58897  0.27018  1.0000
  F   F340      1.0  0.01135  0.59947  0.76501  1.0000
  F   F341      1.0  0.25991  0.09209  0.26861  1.0000
  F   F342      1.0  0.26588  0.07713  0.77205  1.0000
  F   F343      1.0  0.26566  0.60490  0.26188  1.0000
  F   F344      1.0  0.26720  0.58457  0.77852  1.0000
  F   F345      1.0  0.51131  0.08200  0.27229  1.0000
  F   F346      1.0  0.51606  0.09196  0.76768  1.0000
  F   F347      1.0  0.51138  0.58695  0.28282  1.0000
  F   F348      1.0  0.51285  0.58047  0.76325  1.0000
  F   F349      1.0  0.76624  0.07931  0.27933  1.0000
  F   F350      1.0  0.76802  0.07208  0.76979  1.0000
  F   F351      1.0  0.76595  0.57562  0.28492  1.0000
  F   F352      1.0  0.76684  0.56548  0.78305  1.0000
  F   F353      1.0  0.10108  0.41451  0.45396  1.0000
  F   F354      1.0  0.10177  0.42692  0.95429  1.0000
  F   F355      1.0  0.10457  0.91189  0.45798  1.0000
  F   F356      1.0  0.10797  0.89862  0.96560  1.0000
  F   F357      1.0  0.34253  0.41836  0.46512  1.0000
  F   F358      1.0  0.34522  0.40664  0.95459  1.0000
  F   F359      1.0  0.34685  0.92062  0.45742  1.0000
  F   F360      1.0  0.35281  0.90226  0.95211  1.0000
  F   F361      1.0  0.59919  0.39680  0.46014  1.0000
  F   F362      1.0  0.60525  0.39533  0.94593  1.0000
  F   F363      1.0  0.59969  0.91373  0.46251  1.0000
  F   F364      1.0  0.60742  0.88112  0.96270  1.0000
  F   F365      1.0  0.84680  0.38270  0.47757  1.0000
  F   F366      1.0  0.85309  0.41402  0.96654  1.0000
  F   F367      1.0  0.85037  0.90455  0.47623  1.0000
  F   F368      1.0  0.84826  0.89429  0.96932  1.0000
  F   F369      1.0  0.04201  0.31395  0.28292  1.0000
  F   F370      1.0  0.04328  0.31526  0.79271  1.0000
  F   F371      1.0  0.04587  0.79838  0.29253  1.0000
  F   F372      1.0  0.04991  0.79858  0.78868  1.0000
  F   F373      1.0  0.30587  0.28522  0.28049  1.0000
  F   F374      1.0  0.29427  0.29950  0.80409  1.0000
  F   F375      1.0  0.30471  0.80003  0.27952  1.0000
  F   F376      1.0  0.29130  0.80418  0.78428  1.0000
  F   F377      1.0  0.54323  0.28722  0.29521  1.0000
  F   F378      1.0  0.53844  0.29014  0.80201  1.0000
  F   F379      1.0  0.54402  0.79265  0.29613  1.0000
  F   F380      1.0  0.54554  0.77301  0.79082  1.0000
  F   F381      1.0  0.79831  0.29844  0.28675  1.0000
  F   F382      1.0  0.79840  0.30151  0.80215  1.0000
  F   F383      1.0  0.80870  0.80707  0.28490  1.0000
  F   F384      1.0  0.79037  0.80179  0.79534  1.0000
