data_image0
_chemical_formula_structural       Hf96F384
_chemical_formula_sum              "Hf96 F384"
_cell_length_a       31.0097
_cell_length_b       15.5058
_cell_length_c       15.4974
_cell_angle_alpha    63.342
_cell_angle_beta     63.342
_cell_angle_gamma    80.1625

_space_group_name_H-M_alt    "P 1"
_space_group_IT_number       1

loop_
  _space_group_symop_operation_xyz
  'x, y, z'

loop_
  _atom_site_type_symbol
  _atom_site_label
  _atom_site_symmetry_multiplicity
  _atom_site_fract_x
  _atom_site_fract_y
  _atom_site_fract_z
  _atom_site_occupancy
  Hf  Hf1       1.0  0.19626  0.10434  0.37587  1.0000
  Hf  Hf2       1.0  0.19834  0.10701  0.87489  1.0000
  Hf  Hf3       1.0  0.19853  0.60421  0.37090  1.0000
  Hf  Hf4       1.0  0.19737  0.60279  0.87850  1.0000
  Hf  Hf5       1.0  0.44614  0.11365  0.37223  1.0000
  Hf  Hf6       1.0  0.44766  0.09778  0.87661  1.0000
  Hf  Hf7       1.0  0.44688  0.61014  0.37448  1.0000
  Hf  Hf8       1.0  0.44900  0.61170  0.85723  1.0000
  Hf  Hf9       1.0  0.69412  0.10677  0.37167  1.0000
  Hf  Hf10      1.0  0.69101  0.11232  0.87236  1.0000
  Hf  Hf11      1.0  0.69691  0.61356  0.37001  1.0000
  Hf  Hf12      1.0  0.70047  0.61051  0.86646  1.0000
  Hf  Hf13      1.0  0.94520  0.10954  0.37772  1.0000
  Hf  Hf14      1.0  0.94510  0.10508  0.87571  1.0000
  Hf  Hf15      1.0  0.94247  0.60327  0.38008  1.0000
  Hf  Hf16      1.0  0.94568  0.60473  0.87563  1.0000
  Hf  Hf17      1.0  0.05486  0.38643  0.13028  1.0000
  Hf  Hf18      1.0  0.05076  0.38980  0.63069  1.0000
  Hf  Hf19      1.0  0.05330  0.88651  0.12790  1.0000
  Hf  Hf20      1.0  0.05334  0.89305  0.62814  1.0000
  Hf  Hf21      1.0  0.30352  0.39403  0.12404  1.0000
  Hf  Hf22      1.0  0.30257  0.38560  0.63364  1.0000
  Hf  Hf23      1.0  0.30521  0.88656  0.14282  1.0000
  Hf  Hf24      1.0  0.30182  0.89060  0.63048  1.0000
  Hf  Hf25      1.0  0.55484  0.39137  0.12787  1.0000
  Hf  Hf26      1.0  0.55670  0.39444  0.62007  1.0000
  Hf  Hf27      1.0  0.55217  0.89200  0.12607  1.0000
  Hf  Hf28      1.0  0.55428  0.89339  0.62814  1.0000
  Hf  Hf29      1.0  0.80454  0.39090  0.12398  1.0000
  Hf  Hf30      1.0  0.80174  0.39184  0.62494  1.0000
  Hf  Hf31      1.0  0.80317  0.90103  0.11918  1.0000
  Hf  Hf32      1.0  0.80406  0.89272  0.61908  1.0000
  Hf  Hf33      1.0  0.05581  0.17601  0.41887  1.0000
  Hf  Hf34      1.0  0.05658  0.18374  0.91336  1.0000
  Hf  Hf35      1.0  0.06031  0.68166  0.41203  1.0000
  Hf  Hf36      1.0  0.05321  0.67947  0.92269  1.0000
  Hf  Hf37      1.0  0.30432  0.19062  0.41143  1.0000
  Hf  Hf38      1.0  0.30798  0.17709  0.91612  1.0000
  Hf  Hf39      1.0  0.30355  0.67063  0.43077  1.0000
  Hf  Hf40      1.0  0.30620  0.68117  0.91834  1.0000
  Hf  Hf41      1.0  0.55336  0.18304  0.41606  1.0000
  Hf  Hf42      1.0  0.55278  0.18221  0.91842  1.0000
  Hf  Hf43      1.0  0.55708  0.68166  0.41509  1.0000
  Hf  Hf44      1.0  0.55800  0.68197  0.91593  1.0000
  Hf  Hf45      1.0  0.80226  0.18429  0.42170  1.0000
  Hf  Hf46      1.0  0.80670  0.19025  0.91053  1.0000
  Hf  Hf47      1.0  0.80665  0.68828  0.41442  1.0000
  Hf  Hf48      1.0  0.80754  0.68904  0.90971  1.0000
  Hf  Hf49      1.0  0.15837  0.37570  0.34463  1.0000
  Hf  Hf50      1.0  0.15757  0.38399  0.83870  1.0000
  Hf  Hf51      1.0  0.16044  0.88201  0.33474  1.0000
  Hf  Hf52      1.0  0.15876  0.88980  0.83653  1.0000
  Hf  Hf53      1.0  0.40873  0.39336  0.33372  1.0000
  Hf  Hf54      1.0  0.41062  0.38513  0.83062  1.0000
  Hf  Hf55      1.0  0.40607  0.88794  0.33509  1.0000
  Hf  Hf56      1.0  0.41062  0.88993  0.82704  1.0000
  Hf  Hf57      1.0  0.66059  0.39665  0.32874  1.0000
  Hf  Hf58      1.0  0.65470  0.38901  0.83835  1.0000
  Hf  Hf59      1.0  0.65438  0.88944  0.33755  1.0000
  Hf  Hf60      1.0  0.65975  0.88749  0.83064  1.0000
  Hf  Hf61      1.0  0.90859  0.38525  0.33057  1.0000
  Hf  Hf62      1.0  0.91020  0.38768  0.83122  1.0000
  Hf  Hf63      1.0  0.91119  0.88736  0.33088  1.0000
  Hf  Hf64      1.0  0.90806  0.88963  0.83484  1.0000
  Hf  Hf65      1.0  0.19529  0.31248  0.08571  1.0000
  Hf  Hf66      1.0  0.19090  0.31002  0.59479  1.0000
  Hf  Hf67      1.0  0.19716  0.82276  0.07593  1.0000
  Hf  Hf68      1.0  0.19345  0.81933  0.58822  1.0000
  Hf  Hf69      1.0  0.44288  0.32135  0.08794  1.0000
  Hf  Hf70      1.0  0.44849  0.33040  0.57785  1.0000
  Hf  Hf71      1.0  0.44688  0.81385  0.07795  1.0000
  Hf  Hf72      1.0  0.44344  0.81642  0.57732  1.0000
  Hf  Hf73      1.0  0.69842  0.32716  0.07185  1.0000
  Hf  Hf74      1.0  0.69142  0.31795  0.58814  1.0000
  Hf  Hf75      1.0  0.69315  0.82773  0.07746  1.0000
  Hf  Hf76      1.0  0.69651  0.81691  0.57820  1.0000
  Hf  Hf77      1.0  0.94460  0.31956  0.08285  1.0000
  Hf  Hf78      1.0  0.94438  0.32065  0.57629  1.0000
  Hf  Hf79      1.0  0.94137  0.81497  0.09092  1.0000
  Hf  Hf80      1.0  0.94604  0.81257  0.58372  1.0000
  Hf  Hf81      1.0  0.09097  0.10735  0.17046  1.0000
  Hf  Hf82      1.0  0.09133  0.11139  0.66286  1.0000
  Hf  Hf83      1.0  0.08840  0.59725  0.17736  1.0000
  Hf  Hf84      1.0  0.09104  0.61460  0.66951  1.0000
  Hf  Hf85      1.0  0.34336  0.10346  0.17038  1.0000
  Hf  Hf86      1.0  0.34321  0.11089  0.66229  1.0000
  Hf  Hf87      1.0  0.34188  0.61142  0.16754  1.0000
  Hf  Hf88      1.0  0.34220  0.61472  0.66507  1.0000
  Hf  Hf89      1.0  0.59089  0.11188  0.16791  1.0000
  Hf  Hf90      1.0  0.59259  0.11751  0.66156  1.0000
  Hf  Hf91      1.0  0.59251  0.61322  0.16283  1.0000
  Hf  Hf92      1.0  0.59219  0.61372  0.66701  1.0000
  Hf  Hf93      1.0  0.84074  0.11694  0.16339  1.0000
  Hf  Hf94      1.0  0.83803  0.11131  0.66559  1.0000
  Hf  Hf95      1.0  0.84056  0.61393  0.16515  1.0000
  Hf  Hf96      1.0  0.84092  0.60982  0.66570  1.0000
  F   F1        1.0  0.07627  0.12408  0.30916  1.0000
  F   F2        1.0  0.07434  0.11602  0.80653  1.0000
  F   F3        1.0  0.08123  0.63065  0.29658  1.0000
  F   F4        1.0  0.07889  0.62915  0.80956  1.0000
  F   F5        1.0  0.32567  0.12928  0.30453  1.0000
  F   F6        1.0  0.33645  0.11840  0.80766  1.0000
  F   F7        1.0  0.32459  0.62527  0.30827  1.0000
  F   F8        1.0  0.32852  0.64800  0.79520  1.0000
  F   F9        1.0  0.57561  0.11857  0.31173  1.0000
  F   F10       1.0  0.57763  0.11901  0.79746  1.0000
  F   F11       1.0  0.57602  0.63877  0.29414  1.0000
  F   F12       1.0  0.57889  0.62779  0.80628  1.0000
  F   F13       1.0  0.82749  0.13313  0.29855  1.0000
  F   F14       1.0  0.82710  0.13271  0.80565  1.0000
  F   F15       1.0  0.82984  0.64050  0.30509  1.0000
  F   F16       1.0  0.82960  0.64142  0.79594  1.0000
  F   F17       1.0  0.18825  0.33281  0.45236  1.0000
  F   F18       1.0  0.18429  0.33824  0.95035  1.0000
  F   F19       1.0  0.18746  0.84244  0.44329  1.0000
  F   F20       1.0  0.18657  0.83695  0.95283  1.0000
  F   F21       1.0  0.42951  0.34416  0.46153  1.0000
  F   F22       1.0  0.43264  0.33368  0.94886  1.0000
  F   F23       1.0  0.43846  0.84720  0.44636  1.0000
  F   F24       1.0  0.44127  0.83909  0.94769  1.0000
  F   F25       1.0  0.67616  0.33155  0.45734  1.0000
  F   F26       1.0  0.68392  0.33984  0.94798  1.0000
  F   F27       1.0  0.68298  0.85139  0.44922  1.0000
  F   F28       1.0  0.68803  0.85263  0.94282  1.0000
  F   F29       1.0  0.93426  0.33553  0.44338  1.0000
  F   F30       1.0  0.94347  0.34455  0.93245  1.0000
  F   F31       1.0  0.94095  0.85944  0.43736  1.0000
  F   F32       1.0  0.92472  0.83941  0.96389  1.0000
  F   F33       1.0  0.16814  0.34939  0.21433  1.0000
  F   F34       1.0  0.16470  0.36404  0.70027  1.0000
  F   F35       1.0  0.17056  0.87172  0.19730  1.0000
  F   F36       1.0  0.16288  0.85681  0.72033  1.0000
  F   F37       1.0  0.41860  0.37385  0.19990  1.0000
  F   F38       1.0  0.42452  0.38452  0.69389  1.0000
  F   F39       1.0  0.41578  0.85508  0.20261  1.0000
  F   F40       1.0  0.42670  0.86805  0.68959  1.0000
  F   F41       1.0  0.67805  0.38624  0.18928  1.0000
  F   F42       1.0  0.67290  0.38131  0.69603  1.0000
  F   F43       1.0  0.66617  0.85771  0.20451  1.0000
  F   F44       1.0  0.66818  0.85467  0.70092  1.0000
  F   F45       1.0  0.92164  0.38138  0.18741  1.0000
  F   F46       1.0  0.92187  0.36424  0.69445  1.0000
  F   F47       1.0  0.92001  0.88043  0.19466  1.0000
  F   F48       1.0  0.92122  0.87119  0.70090  1.0000
  F   F49       1.0  0.05896  0.15954  0.05385  1.0000
  F   F50       1.0  0.05961  0.14260  0.55628  1.0000
  F   F51       1.0  0.06759  0.65415  0.05403  1.0000
  F   F52       1.0  0.06423  0.67494  0.55636  1.0000
  F   F53       1.0  0.31469  0.14778  0.05733  1.0000
  F   F54       1.0  0.31698  0.15368  0.55301  1.0000
  F   F55       1.0  0.31413  0.65623  0.05424  1.0000
  F   F56       1.0  0.31247  0.64670  0.56260  1.0000
  F   F57       1.0  0.56533  0.16028  0.04908  1.0000
  F   F58       1.0  0.55872  0.16073  0.55725  1.0000
  F   F59       1.0  0.57018  0.66426  0.04013  1.0000
  F   F60       1.0  0.56688  0.66553  0.55421  1.0000
  F   F61       1.0  0.81886  0.17413  0.04054  1.0000
  F   F62       1.0  0.80776  0.14625  0.56406  1.0000
  F   F63       1.0  0.81384  0.66015  0.05379  1.0000
  F   F64       1.0  0.82684  0.66980  0.53456  1.0000
  F   F65       1.0  0.20908  0.19746  0.21135  1.0000
  F   F66       1.0  0.20760  0.19461  0.71909  1.0000
  F   F67       1.0  0.20590  0.69862  0.19157  1.0000
  F   F68       1.0  0.20120  0.69966  0.71069  1.0000
  F   F69       1.0  0.45709  0.20329  0.20513  1.0000
  F   F70       1.0  0.45567  0.21230  0.68993  1.0000
  F   F71       1.0  0.45157  0.69501  0.21452  1.0000
  F   F72       1.0  0.46088  0.68541  0.70254  1.0000
  F   F73       1.0  0.70524  0.21912  0.19371  1.0000
  F   F74       1.0  0.70988  0.21192  0.71178  1.0000
  F   F75       1.0  0.70980  0.70413  0.20935  1.0000
  F   F76       1.0  0.70966  0.69738  0.70044  1.0000
  F   F77       1.0  0.95090  0.20272  0.20701  1.0000
  F   F78       1.0  0.95587  0.21021  0.70439  1.0000
  F   F79       1.0  0.94465  0.69991  0.22444  1.0000
  F   F80       1.0  0.94962  0.70034  0.70801  1.0000
  F   F81       1.0  0.15213  0.08795  0.04825  1.0000
  F   F82       1.0  0.14684  0.08377  0.54680  1.0000
  F   F83       1.0  0.15023  0.56570  0.03803  1.0000
  F   F84       1.0  0.14796  0.60500  0.53406  1.0000
  F   F85       1.0  0.40220  0.09689  0.03956  1.0000
  F   F86       1.0  0.39916  0.10299  0.52032  1.0000
  F   F87       1.0  0.40060  0.59136  0.04110  1.0000
  F   F88       1.0  0.39919  0.59441  0.54667  1.0000
  F   F89       1.0  0.64613  0.09558  0.02982  1.0000
  F   F90       1.0  0.64782  0.10576  0.53340  1.0000
  F   F91       1.0  0.64949  0.58163  0.04079  1.0000
  F   F92       1.0  0.65297  0.59077  0.54343  1.0000
  F   F93       1.0  0.89898  0.09898  0.03763  1.0000
  F   F94       1.0  0.90026  0.11186  0.53124  1.0000
  F   F95       1.0  0.89754  0.59285  0.04036  1.0000
  F   F96       1.0  0.89683  0.57429  0.53609  1.0000
  F   F97       1.0  0.15209  0.19047  0.13270  1.0000
  F   F98       1.0  0.15109  0.19692  0.63679  1.0000
  F   F99       1.0  0.14642  0.68257  0.11747  1.0000
  F   F100      1.0  0.14945  0.70335  0.62497  1.0000
  F   F101      1.0  0.39605  0.20003  0.13743  1.0000
  F   F102      1.0  0.40118  0.18468  0.62573  1.0000
  F   F103      1.0  0.39613  0.71125  0.12535  1.0000
  F   F104      1.0  0.40115  0.69692  0.63069  1.0000
  F   F105      1.0  0.64581  0.18667  0.12975  1.0000
  F   F106      1.0  0.65551  0.19337  0.63877  1.0000
  F   F107      1.0  0.65115  0.70151  0.13304  1.0000
  F   F108      1.0  0.65445  0.69833  0.62032  1.0000
  F   F109      1.0  0.89906  0.20560  0.11706  1.0000
  F   F110      1.0  0.89702  0.20655  0.62815  1.0000
  F   F111      1.0  0.89660  0.69689  0.12159  1.0000
  F   F112      1.0  0.90316  0.68883  0.60830  1.0000
  F   F113      1.0  0.09656  0.29670  0.39329  1.0000
  F   F114      1.0  0.09568  0.30232  0.88429  1.0000
  F   F115      1.0  0.10311  0.78583  0.36841  1.0000
  F   F116      1.0  0.09888  0.79891  0.89241  1.0000
  F   F117      1.0  0.35252  0.30703  0.36505  1.0000
  F   F118      1.0  0.34688  0.29893  0.87456  1.0000
  F   F119      1.0  0.34824  0.80483  0.37494  1.0000
  F   F120      1.0  0.34914  0.80043  0.84782  1.0000
  F   F121      1.0  0.59989  0.29608  0.38069  1.0000
  F   F122      1.0  0.59166  0.31083  0.88734  1.0000
  F   F123      1.0  0.59647  0.80449  0.37660  1.0000
  F   F124      1.0  0.59851  0.80583  0.88397  1.0000
  F   F125      1.0  0.84680  0.30292  0.39358  1.0000
  F   F126      1.0  0.84804  0.30847  0.87527  1.0000
  F   F127      1.0  0.85029  0.80992  0.36959  1.0000
  F   F128      1.0  0.84782  0.80860  0.87183  1.0000
  F   F129      1.0  0.06814  0.24370  0.14291  1.0000
  F   F130      1.0  0.06730  0.24983  0.63002  1.0000
  F   F131      1.0  0.06388  0.75547  0.13131  1.0000
  F   F132      1.0  0.05811  0.75094  0.66655  1.0000
  F   F133      1.0  0.31936  0.24876  0.13966  1.0000
  F   F134      1.0  0.31384  0.25372  0.63875  1.0000
  F   F135      1.0  0.31949  0.74695  0.14738  1.0000
  F   F136      1.0  0.32279  0.75698  0.61317  1.0000
  F   F137      1.0  0.56104  0.25331  0.14451  1.0000
  F   F138      1.0  0.56402  0.25769  0.63465  1.0000
  F   F139      1.0  0.56941  0.75019  0.13063  1.0000
  F   F140      1.0  0.56413  0.75075  0.65409  1.0000
  F   F141      1.0  0.80911  0.25097  0.14588  1.0000
  F   F142      1.0  0.80708  0.25021  0.64508  1.0000
  F   F143      1.0  0.81305  0.75904  0.14906  1.0000
  F   F144      1.0  0.81275  0.75134  0.63174  1.0000
  F   F145      1.0  0.12581  0.36539  0.11702  1.0000
  F   F146      1.0  0.11983  0.36711  0.62070  1.0000
  F   F147      1.0  0.12481  0.87381  0.10947  1.0000
  F   F148      1.0  0.12525  0.87765  0.59755  1.0000
  F   F149      1.0  0.37887  0.38370  0.09479  1.0000
  F   F150      1.0  0.37457  0.35252  0.63157  1.0000
  F   F151      1.0  0.37528  0.88268  0.08376  1.0000
  F   F152      1.0  0.37334  0.87019  0.60823  1.0000
  F   F153      1.0  0.62075  0.34373  0.13712  1.0000
  F   F154      1.0  0.62538  0.37502  0.61791  1.0000
  F   F155      1.0  0.62216  0.88205  0.10632  1.0000
  F   F156      1.0  0.62716  0.87365  0.60276  1.0000
  F   F157      1.0  0.87960  0.37378  0.09306  1.0000
  F   F158      1.0  0.87211  0.37785  0.60366  1.0000
  F   F159      1.0  0.87292  0.88819  0.10852  1.0000
  F   F160      1.0  0.87362  0.84681  0.63018  1.0000
  F   F161      1.0  0.18483  0.24057  0.36971  1.0000
  F   F162      1.0  0.17844  0.24761  0.86755  1.0000
  F   F163      1.0  0.19280  0.74972  0.34006  1.0000
  F   F164      1.0  0.18388  0.73701  0.86536  1.0000
  F   F165      1.0  0.43895  0.25964  0.35520  1.0000
  F   F166      1.0  0.43710  0.24772  0.84374  1.0000
  F   F167      1.0  0.44214  0.75073  0.34938  1.0000
  F   F168      1.0  0.43160  0.74214  0.86512  1.0000
  F   F169      1.0  0.68882  0.25383  0.34242  1.0000
  F   F170      1.0  0.66977  0.24867  0.87653  1.0000
  F   F171      1.0  0.67757  0.74566  0.37701  1.0000
  F   F172      1.0  0.68913  0.75477  0.85728  1.0000
  F   F173      1.0  0.94563  0.25601  0.34454  1.0000
  F   F174      1.0  0.93410  0.24481  0.85201  1.0000
  F   F175      1.0  0.93003  0.75110  0.36924  1.0000
  F   F176      1.0  0.93594  0.74504  0.86034  1.0000
  F   F177      1.0  0.12729  0.13369  0.38375  1.0000
  F   F178      1.0  0.12557  0.14097  0.87666  1.0000
  F   F179      1.0  0.12512  0.61342  0.40354  1.0000
  F   F180      1.0  0.12696  0.63421  0.88963  1.0000
  F   F181      1.0  0.37555  0.15358  0.37205  1.0000
  F   F182      1.0  0.38513  0.12844  0.88183  1.0000
  F   F183      1.0  0.37442  0.63222  0.39959  1.0000
  F   F184      1.0  0.37560  0.63235  0.88353  1.0000
  F   F185      1.0  0.62196  0.12268  0.40576  1.0000
  F   F186      1.0  0.62178  0.14750  0.87556  1.0000
  F   F187      1.0  0.62441  0.62272  0.39625  1.0000
  F   F188      1.0  0.63184  0.63506  0.87860  1.0000
  F   F189      1.0  0.87493  0.14065  0.38591  1.0000
  F   F190      1.0  0.87792  0.12282  0.89318  1.0000
  F   F191      1.0  0.87591  0.62755  0.39390  1.0000
  F   F192      1.0  0.87608  0.64327  0.87853  1.0000
  F   F193      1.0  0.00942  0.36365  0.07239  1.0000
  F   F194      1.0  0.00930  0.36495  0.57563  1.0000
  F   F195      1.0  0.00648  0.86718  0.06122  1.0000
  F   F196      1.0  0.00636  0.86683  0.57063  1.0000
  F   F197      1.0  0.25785  0.34929  0.08691  1.0000
  F   F198      1.0  0.25174  0.36704  0.58710  1.0000
  F   F199      1.0  0.25819  0.84710  0.09592  1.0000
  F   F200      1.0  0.25177  0.85606  0.59457  1.0000
  F   F201      1.0  0.50866  0.37918  0.06948  1.0000
  F   F202      1.0  0.51288  0.38681  0.55120  1.0000
  F   F203      1.0  0.50929  0.84097  0.08347  1.0000
  F   F204      1.0  0.51109  0.84895  0.57472  1.0000
  F   F205      1.0  0.76257  0.36898  0.05820  1.0000
  F   F206      1.0  0.75684  0.37277  0.56827  1.0000
  F   F207      1.0  0.75441  0.87822  0.07288  1.0000
  F   F208      1.0  0.76079  0.87691  0.56112  1.0000
  F   F209      1.0  0.06291  0.47963  0.18785  1.0000
  F   F210      1.0  0.06588  0.49192  0.67558  1.0000
  F   F211      1.0  0.06871  0.98875  0.16619  1.0000
  F   F212      1.0  0.06961  0.98529  0.67465  1.0000
  F   F213      1.0  0.32000  0.48267  0.17321  1.0000
  F   F214      1.0  0.32522  0.47762  0.66409  1.0000
  F   F215      1.0  0.31808  0.97774  0.19430  1.0000
  F   F216      1.0  0.31613  0.98163  0.68235  1.0000
  F   F217      1.0  0.57204  0.48329  0.16862  1.0000
  F   F218      1.0  0.57199  0.48456  0.66454  1.0000
  F   F219      1.0  0.56724  0.99138  0.16560  1.0000
  F   F220      1.0  0.56891  0.98274  0.67764  1.0000
  F   F221      1.0  0.82547  0.48330  0.16868  1.0000
  F   F222      1.0  0.81942  0.49114  0.67185  1.0000
  F   F223      1.0  0.81213  0.00376  0.17166  1.0000
  F   F224      1.0  0.82151  0.98500  0.66518  1.0000
  F   F225      1.0  0.23943  0.12887  0.44442  1.0000
  F   F226      1.0  0.24263  0.12655  0.93756  1.0000
  F   F227      1.0  0.24237  0.62267  0.44186  1.0000
  F   F228      1.0  0.24225  0.62533  0.93578  1.0000
  F   F229      1.0  0.49221  0.14666  0.41698  1.0000
  F   F230      1.0  0.49280  0.13094  0.92905  1.0000
  F   F231      1.0  0.49433  0.63834  0.41775  1.0000
  F   F232      1.0  0.49124  0.64062  0.92068  1.0000
  F   F233      1.0  0.74221  0.14899  0.41924  1.0000
  F   F234      1.0  0.73600  0.15831  0.90903  1.0000
  F   F235      1.0  0.74313  0.64940  0.42109  1.0000
  F   F236      1.0  0.74121  0.63881  0.92911  1.0000
  F   F237      1.0  0.99228  0.13101  0.43297  1.0000
  F   F238      1.0  0.99211  0.13781  0.93018  1.0000
  F   F239      1.0  0.99144  0.64560  0.42408  1.0000
  F   F240      1.0  0.99037  0.64197  0.92878  1.0000
  F   F241      1.0  0.17305  0.01302  0.34135  1.0000
  F   F242      1.0  0.18538  0.01742  0.82259  1.0000
  F   F243      1.0  0.17910  0.51041  0.32871  1.0000
  F   F244      1.0  0.18214  0.50775  0.82686  1.0000
  F   F245      1.0  0.42771  0.02417  0.32515  1.0000
  F   F246      1.0  0.43499  0.00231  0.82930  1.0000
  F   F247      1.0  0.42294  0.51633  0.34027  1.0000
  F   F248      1.0  0.42941  0.50924  0.82428  1.0000
  F   F249      1.0  0.68324  0.02363  0.31308  1.0000
  F   F250      1.0  0.67772  0.01964  0.82660  1.0000
  F   F251      1.0  0.68953  0.51826  0.30812  1.0000
  F   F252      1.0  0.68198  0.50656  0.82978  1.0000
  F   F253      1.0  0.93098  0.02546  0.31109  1.0000
  F   F254      1.0  0.93467  0.02028  0.80760  1.0000
  F   F255      1.0  0.93118  0.51866  0.31332  1.0000
  F   F256      1.0  0.92473  0.52252  0.82811  1.0000
  F   F257      1.0  0.99792  0.24212  0.00786  1.0000
  F   F258      1.0  0.00059  0.25993  0.49416  1.0000
  F   F259      1.0  0.99113  0.74118  0.01965  1.0000
  F   F260      1.0  0.00375  0.76051  0.48748  1.0000
  F   F261      1.0  0.25198  0.25780  0.99417  1.0000
  F   F262      1.0  0.25235  0.24585  0.51527  1.0000
  F   F263      1.0  0.25384  0.75794  0.98361  1.0000
  F   F264      1.0  0.24861  0.75034  0.50710  1.0000
  F   F265      1.0  0.49661  0.25132  0.99633  1.0000
  F   F266      1.0  0.49606  0.25339  0.49126  1.0000
  F   F267      1.0  0.50277  0.74452  0.99708  1.0000
  F   F268      1.0  0.49752  0.74149  0.49840  1.0000
  F   F269      1.0  0.74909  0.24888  0.99702  1.0000
  F   F270      1.0  0.74783  0.27390  0.48198  1.0000
  F   F271      1.0  0.75290  0.76483  0.00447  1.0000
  F   F272      1.0  0.75431  0.76365  0.48864  1.0000
  F   F273      1.0  0.12499  0.00346  0.25428  1.0000
  F   F274      1.0  0.13180  0.00277  0.73751  1.0000
  F   F275      1.0  0.12927  0.49152  0.25247  1.0000
  F   F276      1.0  0.12222  0.49920  0.75916  1.0000
  F   F277      1.0  0.38063  0.99956  0.24598  1.0000
  F   F278      1.0  0.37867  0.00236  0.73874  1.0000
  F   F279      1.0  0.37962  0.50848  0.24603  1.0000
  F   F280      1.0  0.36866  0.50490  0.75761  1.0000
  F   F281      1.0  0.62096  0.99937  0.25659  1.0000
  F   F282      1.0  0.62417  0.99727  0.74586  1.0000
  F   F283      1.0  0.62837  0.51457  0.24402  1.0000
  F   F284      1.0  0.61880  0.49779  0.75963  1.0000
  F   F285      1.0  0.87221  0.00577  0.25465  1.0000
  F   F286      1.0  0.86839  0.99803  0.75603  1.0000
  F   F287      1.0  0.87468  0.51278  0.25051  1.0000
  F   F288      1.0  0.87458  0.49782  0.75499  1.0000
  F   F289      1.0  0.03905  0.03677  0.01462  1.0000
  F   F290      1.0  0.05066  0.02185  0.51440  1.0000
  F   F291      1.0  0.04662  0.52959  0.02159  1.0000
  F   F292      1.0  0.04364  0.53005  0.52414  1.0000
  F   F293      1.0  0.30974  0.02065  0.01832  1.0000
  F   F294      1.0  0.29483  0.02878  0.53085  1.0000
  F   F295      1.0  0.29358  0.52513  0.02692  1.0000
  F   F296      1.0  0.29621  0.52765  0.52202  1.0000
  F   F297      1.0  0.53818  0.02980  0.02445  1.0000
  F   F298      1.0  0.53738  0.02567  0.53144  1.0000
  F   F299      1.0  0.54140  0.53854  0.01728  1.0000
  F   F300      1.0  0.54263  0.53826  0.51486  1.0000
  F   F301      1.0  0.78536  0.04465  0.02507  1.0000
  F   F302      1.0  0.79733  0.03213  0.50977  1.0000
  F   F303      1.0  0.79879  0.52787  0.01059  1.0000
  F   F304      1.0  0.78775  0.53959  0.52877  1.0000
  F   F305      1.0  0.23351  0.41063  0.22636  1.0000
  F   F306      1.0  0.23376  0.41695  0.72049  1.0000
  F   F307      1.0  0.23424  0.92235  0.23129  1.0000
  F   F308      1.0  0.22982  0.91395  0.73630  1.0000
  F   F309      1.0  0.48216  0.41652  0.23649  1.0000
  F   F310      1.0  0.48945  0.42013  0.73058  1.0000
  F   F311      1.0  0.47902  0.92211  0.22663  1.0000
  F   F312      1.0  0.48618  0.88973  0.73936  1.0000
  F   F313      1.0  0.74321  0.40093  0.23904  1.0000
  F   F314      1.0  0.73759  0.41078  0.73714  1.0000
  F   F315      1.0  0.72914  0.90157  0.24214  1.0000
  F   F316      1.0  0.73405  0.92619  0.71545  1.0000
  F   F317      1.0  0.98530  0.41524  0.22606  1.0000
  F   F318      1.0  0.98320  0.42846  0.72892  1.0000
  F   F319      1.0  0.98567  0.90414  0.22275  1.0000
  F   F320      1.0  0.98716  0.90204  0.74715  1.0000
  F   F321      1.0  0.19771  0.46494  0.49085  1.0000
  F   F322      1.0  0.21351  0.45607  0.97964  1.0000
  F   F323      1.0  0.20944  0.95604  0.48144  1.0000
  F   F324      1.0  0.21333  0.96038  0.97739  1.0000
  F   F325      1.0  0.45523  0.48071  0.47884  1.0000
  F   F326      1.0  0.45347  0.47189  0.96837  1.0000
  F   F327      1.0  0.45607  0.96538  0.48315  1.0000
  F   F328      1.0  0.46558  0.96872  0.97299  1.0000
  F   F329      1.0  0.70786  0.47916  0.47065  1.0000
  F   F330      1.0  0.71324  0.47360  0.96720  1.0000
  F   F331      1.0  0.69960  0.97915  0.48141  1.0000
  F   F332      1.0  0.70643  0.98297  0.97097  1.0000
  F   F333      1.0  0.96232  0.46424  0.47365  1.0000
  F   F334      1.0  0.95755  0.47647  0.97611  1.0000
  F   F335      1.0  0.94686  0.97992  0.48444  1.0000
  F   F336      1.0  0.95646  0.97471  0.97358  1.0000
  F   F337      1.0  0.01120  0.07597  0.28691  1.0000
  F   F338      1.0  0.01500  0.08665  0.75822  1.0000
  F   F339      1.0  0.01257  0.59400  0.27866  1.0000
  F   F340      1.0  0.01387  0.57974  0.78755  1.0000
  F   F341      1.0  0.26275  0.08578  0.27907  1.0000
  F   F342      1.0  0.26695  0.08918  0.77910  1.0000
  F   F343      1.0  0.26532  0.58150  0.27308  1.0000
  F   F344      1.0  0.26792  0.58109  0.77135  1.0000
  F   F345      1.0  0.50980  0.07979  0.27324  1.0000
  F   F346      1.0  0.51659  0.09176  0.76048  1.0000
  F   F347      1.0  0.51485  0.57909  0.26502  1.0000
  F   F348      1.0  0.52022  0.57496  0.76827  1.0000
  F   F349      1.0  0.76110  0.08614  0.27081  1.0000
  F   F350      1.0  0.76985  0.07590  0.77481  1.0000
  F   F351      1.0  0.76672  0.57318  0.28191  1.0000
  F   F352      1.0  0.76663  0.57897  0.78096  1.0000
  F   F353      1.0  0.10447  0.41188  0.45941  1.0000
  F   F354      1.0  0.10086  0.40020  0.97093  1.0000
  F   F355      1.0  0.09749  0.87825  0.46940  1.0000
  F   F356      1.0  0.10378  0.91863  0.96424  1.0000
  F   F357      1.0  0.35123  0.41133  0.46433  1.0000
  F   F358      1.0  0.35097  0.40538  0.96164  1.0000
  F   F359      1.0  0.34916  0.92459  0.45983  1.0000
  F   F360      1.0  0.35108  0.89215  0.94712  1.0000
  F   F361      1.0  0.60403  0.41883  0.45831  1.0000
  F   F362      1.0  0.60059  0.42552  0.96666  1.0000
  F   F363      1.0  0.60007  0.90580  0.46215  1.0000
  F   F364      1.0  0.60102  0.91320  0.95498  1.0000
  F   F365      1.0  0.85205  0.41391  0.46046  1.0000
  F   F366      1.0  0.85298  0.38947  0.96366  1.0000
  F   F367      1.0  0.85592  0.90557  0.46408  1.0000
  F   F368      1.0  0.84638  0.91377  0.96516  1.0000
  F   F369      1.0  0.05099  0.29726  0.29136  1.0000
  F   F370      1.0  0.04198  0.29690  0.78568  1.0000
  F   F371      1.0  0.05119  0.79329  0.28331  1.0000
  F   F372      1.0  0.05042  0.80682  0.79844  1.0000
  F   F373      1.0  0.28991  0.30182  0.29354  1.0000
  F   F374      1.0  0.28783  0.29221  0.79383  1.0000
  F   F375      1.0  0.29508  0.79514  0.29773  1.0000
  F   F376      1.0  0.29010  0.79687  0.79034  1.0000
  F   F377      1.0  0.54116  0.29503  0.30177  1.0000
  F   F378      1.0  0.54645  0.29065  0.78894  1.0000
  F   F379      1.0  0.54058  0.79811  0.28496  1.0000
  F   F380      1.0  0.55051  0.80525  0.78773  1.0000
  F   F381      1.0  0.80862  0.29700  0.28507  1.0000
  F   F382      1.0  0.79868  0.30546  0.78880  1.0000
  F   F383      1.0  0.79351  0.80263  0.28763  1.0000
  F   F384      1.0  0.79050  0.79927  0.78970  1.0000
