data_image0
_chemical_formula_structural       Hf96F384
_chemical_formula_sum              "Hf96 F384"
_cell_length_a       31.0598
_cell_length_b       15.5307
_cell_length_c       15.512
_cell_angle_alpha    63.342
_cell_angle_beta     63.342
_cell_angle_gamma    80.1625

_space_group_name_H-M_alt    "P 1"
_space_group_IT_number       1

loop_
  _space_group_symop_operation_xyz
  'x, y, z'

loop_
  _atom_site_type_symbol
  _atom_site_label
  _atom_site_symmetry_multiplicity
  _atom_site_fract_x
  _atom_site_fract_y
  _atom_site_fract_z
  _atom_site_occupancy
  Hf  Hf1       1.0  0.19406  0.11249  0.37275  1.0000
  Hf  Hf2       1.0  0.19319  0.10220  0.87844  1.0000
  Hf  Hf3       1.0  0.19747  0.61192  0.37088  1.0000
  Hf  Hf4       1.0  0.19497  0.60524  0.87963  1.0000
  Hf  Hf5       1.0  0.44959  0.10924  0.37327  1.0000
  Hf  Hf6       1.0  0.44477  0.10378  0.89056  1.0000
  Hf  Hf7       1.0  0.44817  0.59991  0.37751  1.0000
  Hf  Hf8       1.0  0.44540  0.60240  0.88138  1.0000
  Hf  Hf9       1.0  0.69610  0.11569  0.36971  1.0000
  Hf  Hf10      1.0  0.69635  0.10834  0.87972  1.0000
  Hf  Hf11      1.0  0.69331  0.60849  0.37423  1.0000
  Hf  Hf12      1.0  0.69707  0.59570  0.88490  1.0000
  Hf  Hf13      1.0  0.94532  0.11650  0.36299  1.0000
  Hf  Hf14      1.0  0.94901  0.10802  0.86449  1.0000
  Hf  Hf15      1.0  0.94724  0.61477  0.36792  1.0000
  Hf  Hf16      1.0  0.94338  0.60814  0.87491  1.0000
  Hf  Hf17      1.0  0.04736  0.39028  0.13539  1.0000
  Hf  Hf18      1.0  0.05447  0.39818  0.61727  1.0000
  Hf  Hf19      1.0  0.05528  0.89576  0.12277  1.0000
  Hf  Hf20      1.0  0.05295  0.88156  0.62816  1.0000
  Hf  Hf21      1.0  0.30175  0.39303  0.11818  1.0000
  Hf  Hf22      1.0  0.30270  0.39403  0.63025  1.0000
  Hf  Hf23      1.0  0.30528  0.89165  0.11503  1.0000
  Hf  Hf24      1.0  0.30104  0.88648  0.62113  1.0000
  Hf  Hf25      1.0  0.55179  0.38557  0.12982  1.0000
  Hf  Hf26      1.0  0.55223  0.39798  0.62600  1.0000
  Hf  Hf27      1.0  0.55608  0.89307  0.11616  1.0000
  Hf  Hf28      1.0  0.55328  0.89075  0.63067  1.0000
  Hf  Hf29      1.0  0.80486  0.39097  0.12581  1.0000
  Hf  Hf30      1.0  0.80515  0.39645  0.63329  1.0000
  Hf  Hf31      1.0  0.80469  0.89437  0.12208  1.0000
  Hf  Hf32      1.0  0.80683  0.89783  0.62614  1.0000
  Hf  Hf33      1.0  0.04744  0.17531  0.43170  1.0000
  Hf  Hf34      1.0  0.05804  0.19304  0.91152  1.0000
  Hf  Hf35      1.0  0.05636  0.68841  0.41377  1.0000
  Hf  Hf36      1.0  0.05659  0.67231  0.91297  1.0000
  Hf  Hf37      1.0  0.30518  0.18292  0.41388  1.0000
  Hf  Hf38      1.0  0.30415  0.17779  0.92406  1.0000
  Hf  Hf39      1.0  0.30475  0.68241  0.41818  1.0000
  Hf  Hf40      1.0  0.30686  0.67889  0.91507  1.0000
  Hf  Hf41      1.0  0.55507  0.17785  0.41802  1.0000
  Hf  Hf42      1.0  0.56049  0.18966  0.91190  1.0000
  Hf  Hf43      1.0  0.55418  0.68413  0.40965  1.0000
  Hf  Hf44      1.0  0.55506  0.67962  0.91737  1.0000
  Hf  Hf45      1.0  0.80220  0.17939  0.41724  1.0000
  Hf  Hf46      1.0  0.80849  0.18908  0.92293  1.0000
  Hf  Hf47      1.0  0.80822  0.68293  0.41077  1.0000
  Hf  Hf48      1.0  0.80783  0.68041  0.91422  1.0000
  Hf  Hf49      1.0  0.15750  0.39207  0.33606  1.0000
  Hf  Hf50      1.0  0.16025  0.38712  0.84195  1.0000
  Hf  Hf51      1.0  0.15744  0.88497  0.33876  1.0000
  Hf  Hf52      1.0  0.15511  0.88530  0.83573  1.0000
  Hf  Hf53      1.0  0.40940  0.38088  0.33358  1.0000
  Hf  Hf54      1.0  0.40734  0.38486  0.83596  1.0000
  Hf  Hf55      1.0  0.40667  0.88383  0.33470  1.0000
  Hf  Hf56      1.0  0.40918  0.89067  0.82863  1.0000
  Hf  Hf57      1.0  0.65650  0.39922  0.32742  1.0000
  Hf  Hf58      1.0  0.65711  0.38771  0.84699  1.0000
  Hf  Hf59      1.0  0.65983  0.89344  0.32967  1.0000
  Hf  Hf60      1.0  0.66162  0.88824  0.82615  1.0000
  Hf  Hf61      1.0  0.90448  0.38783  0.34147  1.0000
  Hf  Hf62      1.0  0.90880  0.38637  0.83676  1.0000
  Hf  Hf63      1.0  0.91108  0.89344  0.32931  1.0000
  Hf  Hf64      1.0  0.91317  0.89417  0.82735  1.0000
  Hf  Hf65      1.0  0.19202  0.30897  0.09060  1.0000
  Hf  Hf66      1.0  0.19510  0.31755  0.58787  1.0000
  Hf  Hf67      1.0  0.19437  0.81989  0.08055  1.0000
  Hf  Hf68      1.0  0.19490  0.81662  0.58072  1.0000
  Hf  Hf69      1.0  0.44400  0.31003  0.08018  1.0000
  Hf  Hf70      1.0  0.44205  0.30360  0.59686  1.0000
  Hf  Hf71      1.0  0.44426  0.81075  0.08752  1.0000
  Hf  Hf72      1.0  0.44220  0.82507  0.58558  1.0000
  Hf  Hf73      1.0  0.69363  0.31295  0.09250  1.0000
  Hf  Hf74      1.0  0.69494  0.32348  0.57868  1.0000
  Hf  Hf75      1.0  0.69460  0.81567  0.08412  1.0000
  Hf  Hf76      1.0  0.69544  0.82067  0.58014  1.0000
  Hf  Hf77      1.0  0.94109  0.31613  0.08947  1.0000
  Hf  Hf78      1.0  0.94724  0.32834  0.57557  1.0000
  Hf  Hf79      1.0  0.94835  0.81333  0.08046  1.0000
  Hf  Hf80      1.0  0.94445  0.81829  0.58308  1.0000
  Hf  Hf81      1.0  0.08782  0.10629  0.17338  1.0000
  Hf  Hf82      1.0  0.09377  0.11769  0.66137  1.0000
  Hf  Hf83      1.0  0.09546  0.62119  0.15796  1.0000
  Hf  Hf84      1.0  0.09132  0.60750  0.66296  1.0000
  Hf  Hf85      1.0  0.33656  0.11246  0.17382  1.0000
  Hf  Hf86      1.0  0.33812  0.10469  0.66953  1.0000
  Hf  Hf87      1.0  0.34304  0.60592  0.16926  1.0000
  Hf  Hf88      1.0  0.33955  0.60158  0.67032  1.0000
  Hf  Hf89      1.0  0.59263  0.10248  0.16807  1.0000
  Hf  Hf90      1.0  0.59594  0.11713  0.66501  1.0000
  Hf  Hf91      1.0  0.58804  0.61513  0.16662  1.0000
  Hf  Hf92      1.0  0.59046  0.61788  0.66505  1.0000
  Hf  Hf93      1.0  0.84094  0.10753  0.17563  1.0000
  Hf  Hf94      1.0  0.84531  0.12271  0.66092  1.0000
  Hf  Hf95      1.0  0.83690  0.60967  0.17174  1.0000
  Hf  Hf96      1.0  0.84505  0.62283  0.65630  1.0000
  F   F1        1.0  0.07916  0.12775  0.30464  1.0000
  F   F2        1.0  0.07641  0.13977  0.79630  1.0000
  F   F3        1.0  0.08157  0.64191  0.29899  1.0000
  F   F4        1.0  0.07901  0.61967  0.80058  1.0000
  F   F5        1.0  0.32586  0.11962  0.30813  1.0000
  F   F6        1.0  0.33503  0.13393  0.80332  1.0000
  F   F7        1.0  0.32989  0.60248  0.30700  1.0000
  F   F8        1.0  0.33334  0.62408  0.80259  1.0000
  F   F9        1.0  0.58420  0.12554  0.30434  1.0000
  F   F10       1.0  0.57882  0.14488  0.79739  1.0000
  F   F11       1.0  0.57955  0.62705  0.30002  1.0000
  F   F12       1.0  0.58445  0.63152  0.80671  1.0000
  F   F13       1.0  0.81680  0.10731  0.31807  1.0000
  F   F14       1.0  0.84338  0.16275  0.78849  1.0000
  F   F15       1.0  0.83208  0.61101  0.31605  1.0000
  F   F16       1.0  0.83322  0.62803  0.79813  1.0000
  F   F17       1.0  0.17138  0.34205  0.46735  1.0000
  F   F18       1.0  0.18972  0.33387  0.94447  1.0000
  F   F19       1.0  0.18116  0.83656  0.45194  1.0000
  F   F20       1.0  0.18703  0.84448  0.94009  1.0000
  F   F21       1.0  0.43306  0.32587  0.45479  1.0000
  F   F22       1.0  0.43898  0.33891  0.94537  1.0000
  F   F23       1.0  0.43400  0.84988  0.44389  1.0000
  F   F24       1.0  0.43147  0.82874  0.94629  1.0000
  F   F25       1.0  0.68169  0.34863  0.43982  1.0000
  F   F26       1.0  0.69459  0.35058  0.94757  1.0000
  F   F27       1.0  0.69262  0.85116  0.43492  1.0000
  F   F28       1.0  0.68620  0.85176  0.94473  1.0000
  F   F29       1.0  0.93649  0.33689  0.44428  1.0000
  F   F30       1.0  0.92868  0.32406  0.95964  1.0000
  F   F31       1.0  0.93037  0.83747  0.45396  1.0000
  F   F32       1.0  0.93723  0.83466  0.94431  1.0000
  F   F33       1.0  0.16764  0.37522  0.20227  1.0000
  F   F34       1.0  0.17781  0.38133  0.68994  1.0000
  F   F35       1.0  0.16919  0.87423  0.19594  1.0000
  F   F36       1.0  0.17734  0.87892  0.68911  1.0000
  F   F37       1.0  0.41778  0.34109  0.21036  1.0000
  F   F38       1.0  0.42632  0.35871  0.70249  1.0000
  F   F39       1.0  0.42149  0.86480  0.19681  1.0000
  F   F40       1.0  0.42335  0.89221  0.68447  1.0000
  F   F41       1.0  0.67160  0.38273  0.18910  1.0000
  F   F42       1.0  0.66672  0.36527  0.70671  1.0000
  F   F43       1.0  0.66800  0.86992  0.20482  1.0000
  F   F44       1.0  0.67039  0.88010  0.69001  1.0000
  F   F45       1.0  0.92421  0.37926  0.18811  1.0000
  F   F46       1.0  0.92941  0.36655  0.69120  1.0000
  F   F47       1.0  0.92131  0.86888  0.18897  1.0000
  F   F48       1.0  0.92927  0.88578  0.67989  1.0000
  F   F49       1.0  0.07324  0.17342  0.03506  1.0000
  F   F50       1.0  0.06250  0.14194  0.55882  1.0000
  F   F51       1.0  0.07614  0.66859  0.03347  1.0000
  F   F52       1.0  0.05745  0.65588  0.55832  1.0000
  F   F53       1.0  0.31011  0.14109  0.06576  1.0000
  F   F54       1.0  0.30810  0.15707  0.56380  1.0000
  F   F55       1.0  0.31406  0.66485  0.05495  1.0000
  F   F56       1.0  0.30574  0.65736  0.56743  1.0000
  F   F57       1.0  0.57239  0.16789  0.04271  1.0000
  F   F58       1.0  0.55927  0.15474  0.56320  1.0000
  F   F59       1.0  0.56112  0.65834  0.05077  1.0000
  F   F60       1.0  0.56023  0.66003  0.55716  1.0000
  F   F61       1.0  0.81977  0.16195  0.05140  1.0000
  F   F62       1.0  0.81665  0.16472  0.54750  1.0000
  F   F63       1.0  0.81172  0.65660  0.05839  1.0000
  F   F64       1.0  0.82127  0.65615  0.54555  1.0000
  F   F65       1.0  0.18907  0.19224  0.21378  1.0000
  F   F66       1.0  0.20653  0.19157  0.71814  1.0000
  F   F67       1.0  0.19717  0.70830  0.21134  1.0000
  F   F68       1.0  0.21468  0.70668  0.70137  1.0000
  F   F69       1.0  0.45932  0.18856  0.21766  1.0000
  F   F70       1.0  0.45727  0.18760  0.70093  1.0000
  F   F71       1.0  0.45190  0.69758  0.21535  1.0000
  F   F72       1.0  0.43020  0.70156  0.70650  1.0000
  F   F73       1.0  0.69416  0.20301  0.22789  1.0000
  F   F74       1.0  0.70976  0.20336  0.71256  1.0000
  F   F75       1.0  0.70791  0.71252  0.21225  1.0000
  F   F76       1.0  0.69855  0.70926  0.71232  1.0000
  F   F77       1.0  0.95780  0.20220  0.20243  1.0000
  F   F78       1.0  0.96360  0.20290  0.69042  1.0000
  F   F79       1.0  0.96568  0.69979  0.20616  1.0000
  F   F80       1.0  0.95136  0.70617  0.71425  1.0000
  F   F81       1.0  0.14992  0.08118  0.03654  1.0000
  F   F82       1.0  0.14647  0.11932  0.52678  1.0000
  F   F83       1.0  0.15292  0.58327  0.03345  1.0000
  F   F84       1.0  0.14855  0.58924  0.54671  1.0000
  F   F85       1.0  0.39566  0.09747  0.04544  1.0000
  F   F86       1.0  0.39970  0.08352  0.53376  1.0000
  F   F87       1.0  0.40133  0.61138  0.03274  1.0000
  F   F88       1.0  0.39363  0.56925  0.53279  1.0000
  F   F89       1.0  0.64910  0.08458  0.02549  1.0000
  F   F90       1.0  0.65197  0.09293  0.53579  1.0000
  F   F91       1.0  0.65084  0.61115  0.03990  1.0000
  F   F92       1.0  0.64776  0.58200  0.55105  1.0000
  F   F93       1.0  0.90141  0.10350  0.05771  1.0000
  F   F94       1.0  0.90122  0.10846  0.52319  1.0000
  F   F95       1.0  0.89480  0.58803  0.04422  1.0000
  F   F96       1.0  0.90010  0.59661  0.52674  1.0000
  F   F97       1.0  0.14873  0.18780  0.11746  1.0000
  F   F98       1.0  0.15577  0.20184  0.63228  1.0000
  F   F99       1.0  0.15005  0.70737  0.11686  1.0000
  F   F100      1.0  0.15476  0.68665  0.62464  1.0000
  F   F101      1.0  0.40041  0.18849  0.14281  1.0000
  F   F102      1.0  0.40007  0.19517  0.61886  1.0000
  F   F103      1.0  0.40089  0.69040  0.13904  1.0000
  F   F104      1.0  0.39789  0.68639  0.59022  1.0000
  F   F105      1.0  0.65739  0.18154  0.10433  1.0000
  F   F106      1.0  0.65513  0.20392  0.62759  1.0000
  F   F107      1.0  0.66232  0.69134  0.13187  1.0000
  F   F108      1.0  0.65030  0.70093  0.60857  1.0000
  F   F109      1.0  0.89418  0.20831  0.15253  1.0000
  F   F110      1.0  0.91002  0.19924  0.60516  1.0000
  F   F111      1.0  0.90028  0.69538  0.13484  1.0000
  F   F112      1.0  0.90971  0.67865  0.61980  1.0000
  F   F113      1.0  0.09648  0.31791  0.37597  1.0000
  F   F114      1.0  0.09960  0.31143  0.85630  1.0000
  F   F115      1.0  0.09727  0.80647  0.37486  1.0000
  F   F116      1.0  0.09979  0.80603  0.86602  1.0000
  F   F117      1.0  0.34245  0.31943  0.36945  1.0000
  F   F118      1.0  0.35161  0.28679  0.90091  1.0000
  F   F119      1.0  0.34410  0.81840  0.37826  1.0000
  F   F120      1.0  0.35696  0.78503  0.89045  1.0000
  F   F121      1.0  0.59473  0.30468  0.37108  1.0000
  F   F122      1.0  0.59046  0.31328  0.89300  1.0000
  F   F123      1.0  0.59081  0.80447  0.35874  1.0000
  F   F124      1.0  0.60367  0.79627  0.87554  1.0000
  F   F125      1.0  0.84710  0.30571  0.37345  1.0000
  F   F126      1.0  0.84857  0.30801  0.87587  1.0000
  F   F127      1.0  0.84990  0.81849  0.37830  1.0000
  F   F128      1.0  0.85249  0.80456  0.86007  1.0000
  F   F129      1.0  0.05831  0.24486  0.15233  1.0000
  F   F130      1.0  0.06566  0.25808  0.62978  1.0000
  F   F131      1.0  0.07245  0.76145  0.12605  1.0000
  F   F132      1.0  0.06278  0.74643  0.63351  1.0000
  F   F133      1.0  0.32590  0.25909  0.11081  1.0000
  F   F134      1.0  0.30511  0.24954  0.65927  1.0000
  F   F135      1.0  0.31267  0.75217  0.13929  1.0000
  F   F136      1.0  0.30551  0.74447  0.67072  1.0000
  F   F137      1.0  0.56028  0.23645  0.15599  1.0000
  F   F138      1.0  0.57085  0.25297  0.63558  1.0000
  F   F139      1.0  0.57824  0.75148  0.12467  1.0000
  F   F140      1.0  0.56017  0.75064  0.66055  1.0000
  F   F141      1.0  0.81927  0.26149  0.13478  1.0000
  F   F142      1.0  0.81828  0.25464  0.64355  1.0000
  F   F143      1.0  0.81134  0.75729  0.14822  1.0000
  F   F144      1.0  0.81778  0.75658  0.63905  1.0000
  F   F145      1.0  0.12464  0.35742  0.10862  1.0000
  F   F146      1.0  0.12209  0.37364  0.61902  1.0000
  F   F147      1.0  0.12194  0.87263  0.11062  1.0000
  F   F148      1.0  0.12186  0.85033  0.63950  1.0000
  F   F149      1.0  0.37747  0.37951  0.08905  1.0000
  F   F150      1.0  0.37138  0.35537  0.61819  1.0000
  F   F151      1.0  0.38111  0.87333  0.08502  1.0000
  F   F152      1.0  0.37345  0.86118  0.60529  1.0000
  F   F153      1.0  0.62479  0.35122  0.12112  1.0000
  F   F154      1.0  0.62396  0.38513  0.59350  1.0000
  F   F155      1.0  0.63006  0.88773  0.09595  1.0000
  F   F156      1.0  0.62862  0.87025  0.59548  1.0000
  F   F157      1.0  0.87432  0.38489  0.11189  1.0000
  F   F158      1.0  0.87678  0.37195  0.60949  1.0000
  F   F159      1.0  0.87814  0.85908  0.10441  1.0000
  F   F160      1.0  0.87418  0.85984  0.62469  1.0000
  F   F161      1.0  0.19531  0.25486  0.34336  1.0000
  F   F162      1.0  0.18605  0.24029  0.86351  1.0000
  F   F163      1.0  0.18630  0.74890  0.35691  1.0000
  F   F164      1.0  0.18508  0.74363  0.85513  1.0000
  F   F165      1.0  0.44155  0.24747  0.34881  1.0000
  F   F166      1.0  0.44245  0.24449  0.85767  1.0000
  F   F167      1.0  0.43221  0.74105  0.36965  1.0000
  F   F168      1.0  0.44966  0.75138  0.81153  1.0000
  F   F169      1.0  0.68185  0.26217  0.35081  1.0000
  F   F170      1.0  0.67894  0.24634  0.87786  1.0000
  F   F171      1.0  0.67118  0.74953  0.37303  1.0000
  F   F172      1.0  0.68660  0.73943  0.86254  1.0000
  F   F173      1.0  0.93117  0.25641  0.34991  1.0000
  F   F174      1.0  0.93611  0.24747  0.85151  1.0000
  F   F175      1.0  0.94151  0.76170  0.34114  1.0000
  F   F176      1.0  0.93215  0.74321  0.86193  1.0000
  F   F177      1.0  0.12086  0.14222  0.39015  1.0000
  F   F178      1.0  0.12513  0.12593  0.87910  1.0000
  F   F179      1.0  0.12340  0.62972  0.40060  1.0000
  F   F180      1.0  0.12252  0.62767  0.89321  1.0000
  F   F181      1.0  0.37302  0.15544  0.38304  1.0000
  F   F182      1.0  0.37762  0.12926  0.89788  1.0000
  F   F183      1.0  0.37410  0.64584  0.38163  1.0000
  F   F184      1.0  0.37378  0.61307  0.90605  1.0000
  F   F185      1.0  0.62443  0.11047  0.40413  1.0000
  F   F186      1.0  0.62990  0.13149  0.87964  1.0000
  F   F187      1.0  0.62352  0.61413  0.39492  1.0000
  F   F188      1.0  0.62724  0.62640  0.90154  1.0000
  F   F189      1.0  0.87281  0.13673  0.37884  1.0000
  F   F190      1.0  0.87640  0.10524  0.91081  1.0000
  F   F191      1.0  0.87892  0.66276  0.36596  1.0000
  F   F192      1.0  0.87439  0.62827  0.89592  1.0000
  F   F193      1.0  0.00676  0.36331  0.07613  1.0000
  F   F194      1.0  0.01058  0.37211  0.55711  1.0000
  F   F195      1.0  0.00691  0.86606  0.07282  1.0000
  F   F196      1.0  0.01140  0.86903  0.56195  1.0000
  F   F197      1.0  0.25285  0.33529  0.10554  1.0000
  F   F198      1.0  0.25895  0.37350  0.56436  1.0000
  F   F199      1.0  0.25674  0.85032  0.07811  1.0000
  F   F200      1.0  0.26259  0.88806  0.54304  1.0000
  F   F201      1.0  0.50675  0.37370  0.07688  1.0000
  F   F202      1.0  0.50715  0.36122  0.57471  1.0000
  F   F203      1.0  0.50736  0.86783  0.08137  1.0000
  F   F204      1.0  0.50574  0.84500  0.59556  1.0000
  F   F205      1.0  0.75896  0.35572  0.07702  1.0000
  F   F206      1.0  0.75644  0.36971  0.56728  1.0000
  F   F207      1.0  0.76621  0.87042  0.06096  1.0000
  F   F208      1.0  0.75989  0.86813  0.56765  1.0000
  F   F209      1.0  0.07039  0.49569  0.15866  1.0000
  F   F210      1.0  0.06563  0.48070  0.68403  1.0000
  F   F211      1.0  0.06528  0.98324  0.18352  1.0000
  F   F212      1.0  0.07282  0.98337  0.65681  1.0000
  F   F213      1.0  0.32375  0.47989  0.16741  1.0000
  F   F214      1.0  0.32395  0.47969  0.66459  1.0000
  F   F215      1.0  0.32210  0.97366  0.17546  1.0000
  F   F216      1.0  0.31764  0.98756  0.66543  1.0000
  F   F217      1.0  0.56948  0.48918  0.16420  1.0000
  F   F218      1.0  0.56774  0.48523  0.68276  1.0000
  F   F219      1.0  0.57249  0.99003  0.15819  1.0000
  F   F220      1.0  0.57494  0.97798  0.67331  1.0000
  F   F221      1.0  0.81513  0.48617  0.18070  1.0000
  F   F222      1.0  0.81832  0.48687  0.68524  1.0000
  F   F223      1.0  0.82015  0.98486  0.18115  1.0000
  F   F224      1.0  0.82277  0.99190  0.66912  1.0000
  F   F225      1.0  0.24405  0.12386  0.43933  1.0000
  F   F226      1.0  0.24498  0.13591  0.92324  1.0000
  F   F227      1.0  0.24416  0.64115  0.41716  1.0000
  F   F228      1.0  0.24633  0.63768  0.92206  1.0000
  F   F229      1.0  0.49305  0.13299  0.42834  1.0000
  F   F230      1.0  0.49598  0.14211  0.92123  1.0000
  F   F231      1.0  0.49102  0.62783  0.43146  1.0000
  F   F232      1.0  0.49501  0.62664  0.92864  1.0000
  F   F233      1.0  0.73880  0.15220  0.41975  1.0000
  F   F234      1.0  0.75419  0.14730  0.89602  1.0000
  F   F235      1.0  0.74547  0.65165  0.40770  1.0000
  F   F236      1.0  0.74723  0.63623  0.92242  1.0000
  F   F237      1.0  0.99098  0.13163  0.42604  1.0000
  F   F238      1.0  0.99295  0.14590  0.90269  1.0000
  F   F239      1.0  0.99424  0.64209  0.41821  1.0000
  F   F240      1.0  0.99336  0.63119  0.92736  1.0000
  F   F241      1.0  0.17642  0.01423  0.32342  1.0000
  F   F242      1.0  0.18191  0.01403  0.81566  1.0000
  F   F243      1.0  0.17595  0.51604  0.33933  1.0000
  F   F244      1.0  0.18196  0.51725  0.82336  1.0000
  F   F245      1.0  0.42193  0.02275  0.33908  1.0000
  F   F246      1.0  0.43082  0.01436  0.83900  1.0000
  F   F247      1.0  0.42933  0.50938  0.33513  1.0000
  F   F248      1.0  0.42396  0.51847  0.83411  1.0000
  F   F249      1.0  0.68481  0.01626  0.31753  1.0000
  F   F250      1.0  0.68842  0.01176  0.81734  1.0000
  F   F251      1.0  0.68497  0.52114  0.32091  1.0000
  F   F252      1.0  0.68108  0.50388  0.84009  1.0000
  F   F253      1.0  0.93569  0.01685  0.31899  1.0000
  F   F254      1.0  0.94134  0.01510  0.79908  1.0000
  F   F255      1.0  0.92853  0.52472  0.32701  1.0000
  F   F256      1.0  0.93116  0.52187  0.81167  1.0000
  F   F257      1.0  0.99807  0.25525  0.00149  1.0000
  F   F258      1.0  0.00565  0.26182  0.48734  1.0000
  F   F259      1.0  0.00193  0.74381  0.99890  1.0000
  F   F260      1.0  0.00089  0.75876  0.49418  1.0000
  F   F261      1.0  0.25165  0.24634  0.00896  1.0000
  F   F262      1.0  0.25019  0.24993  0.49730  1.0000
  F   F263      1.0  0.25070  0.75069  0.99753  1.0000
  F   F264      1.0  0.25281  0.75935  0.48547  1.0000
  F   F265      1.0  0.49831  0.23430  0.01846  1.0000
  F   F266      1.0  0.50050  0.24954  0.48673  1.0000
  F   F267      1.0  0.49957  0.74794  0.00349  1.0000
  F   F268      1.0  0.49906  0.74749  0.50323  1.0000
  F   F269      1.0  0.75358  0.23920  0.01731  1.0000
  F   F270      1.0  0.74511  0.25750  0.48744  1.0000
  F   F271      1.0  0.76019  0.76956  0.97916  1.0000
  F   F272      1.0  0.74318  0.72376  0.51378  1.0000
  F   F273      1.0  0.11849  0.99746  0.25458  1.0000
  F   F274      1.0  0.11711  0.99297  0.76104  1.0000
  F   F275      1.0  0.13134  0.52053  0.23354  1.0000
  F   F276      1.0  0.12252  0.48843  0.75865  1.0000
  F   F277      1.0  0.36701  0.00131  0.25421  1.0000
  F   F278      1.0  0.36698  0.00093  0.75960  1.0000
  F   F279      1.0  0.37935  0.49641  0.24027  1.0000
  F   F280      1.0  0.37397  0.49333  0.75174  1.0000
  F   F281      1.0  0.61831  0.98731  0.25531  1.0000
  F   F282      1.0  0.62976  0.01090  0.74402  1.0000
  F   F283      1.0  0.62361  0.50220  0.23857  1.0000
  F   F284      1.0  0.62641  0.49927  0.75810  1.0000
  F   F285      1.0  0.87931  0.01097  0.25084  1.0000
  F   F286      1.0  0.87486  0.00112  0.74457  1.0000
  F   F287      1.0  0.87526  0.49153  0.24178  1.0000
  F   F288      1.0  0.88090  0.50018  0.73975  1.0000
  F   F289      1.0  0.04120  0.03753  0.03050  1.0000
  F   F290      1.0  0.04137  0.02226  0.52380  1.0000
  F   F291      1.0  0.04266  0.52658  0.02871  1.0000
  F   F292      1.0  0.03538  0.54046  0.53066  1.0000
  F   F293      1.0  0.29591  0.02243  0.01405  1.0000
  F   F294      1.0  0.29632  0.02656  0.52906  1.0000
  F   F295      1.0  0.28099  0.52115  0.04494  1.0000
  F   F296      1.0  0.29657  0.53652  0.51760  1.0000
  F   F297      1.0  0.54617  0.03300  0.01390  1.0000
  F   F298      1.0  0.54044  0.03136  0.53404  1.0000
  F   F299      1.0  0.54475  0.52647  0.02051  1.0000
  F   F300      1.0  0.53737  0.53942  0.53226  1.0000
  F   F301      1.0  0.78955  0.04092  0.03165  1.0000
  F   F302      1.0  0.78389  0.04695  0.52568  1.0000
  F   F303      1.0  0.79314  0.52876  0.02370  1.0000
  F   F304      1.0  0.78950  0.53571  0.51281  1.0000
  F   F305      1.0  0.22881  0.41913  0.23721  1.0000
  F   F306      1.0  0.23587  0.42503  0.72598  1.0000
  F   F307      1.0  0.23483  0.91679  0.23314  1.0000
  F   F308      1.0  0.23450  0.90326  0.72761  1.0000
  F   F309      1.0  0.47959  0.42260  0.22343  1.0000
  F   F310      1.0  0.48517  0.41185  0.73990  1.0000
  F   F311      1.0  0.47619  0.92166  0.21664  1.0000
  F   F312      1.0  0.48640  0.91402  0.73724  1.0000
  F   F313      1.0  0.73363  0.42651  0.22400  1.0000
  F   F314      1.0  0.73299  0.41473  0.73062  1.0000
  F   F315      1.0  0.73894  0.89250  0.23855  1.0000
  F   F316      1.0  0.73440  0.90738  0.73278  1.0000
  F   F317      1.0  0.98319  0.41462  0.24708  1.0000
  F   F318      1.0  0.98798  0.40031  0.72403  1.0000
  F   F319      1.0  0.98085  0.91947  0.22310  1.0000
  F   F320      1.0  0.98562  0.90587  0.73316  1.0000
  F   F321      1.0  0.20799  0.47382  0.47810  1.0000
  F   F322      1.0  0.20871  0.47167  0.97370  1.0000
  F   F323      1.0  0.20090  0.98013  0.48418  1.0000
  F   F324      1.0  0.20396  0.96828  0.98464  1.0000
  F   F325      1.0  0.46421  0.45922  0.46061  1.0000
  F   F326      1.0  0.45942  0.46686  0.97882  1.0000
  F   F327      1.0  0.46532  0.96104  0.47308  1.0000
  F   F328      1.0  0.45839  0.96306  0.99000  1.0000
  F   F329      1.0  0.70327  0.46987  0.48528  1.0000
  F   F330      1.0  0.71789  0.46394  0.97794  1.0000
  F   F331      1.0  0.71174  0.97380  0.47322  1.0000
  F   F332      1.0  0.70903  0.97443  0.96932  1.0000
  F   F333      1.0  0.96109  0.46745  0.46695  1.0000
  F   F334      1.0  0.95322  0.46632  0.97351  1.0000
  F   F335      1.0  0.95636  0.96494  0.47343  1.0000
  F   F336      1.0  0.95292  0.97632  0.96258  1.0000
  F   F337      1.0  0.01235  0.09204  0.26472  1.0000
  F   F338      1.0  0.02103  0.08347  0.75807  1.0000
  F   F339      1.0  0.02541  0.58519  0.26752  1.0000
  F   F340      1.0  0.01316  0.59381  0.77014  1.0000
  F   F341      1.0  0.25946  0.08542  0.27897  1.0000
  F   F342      1.0  0.27041  0.08995  0.77616  1.0000
  F   F343      1.0  0.26253  0.57291  0.27254  1.0000
  F   F344      1.0  0.26238  0.57781  0.77975  1.0000
  F   F345      1.0  0.51630  0.06248  0.27110  1.0000
  F   F346      1.0  0.51691  0.08656  0.77267  1.0000
  F   F347      1.0  0.51770  0.58921  0.26644  1.0000
  F   F348      1.0  0.51001  0.60349  0.75756  1.0000
  F   F349      1.0  0.76123  0.09226  0.26373  1.0000
  F   F350      1.0  0.77618  0.07524  0.77851  1.0000
  F   F351      1.0  0.76541  0.57684  0.28126  1.0000
  F   F352      1.0  0.76223  0.60994  0.75885  1.0000
  F   F353      1.0  0.09583  0.41851  0.46398  1.0000
  F   F354      1.0  0.10079  0.39910  0.96601  1.0000
  F   F355      1.0  0.10685  0.90314  0.46103  1.0000
  F   F356      1.0  0.10120  0.91058  0.95350  1.0000
  F   F357      1.0  0.35067  0.39509  0.46887  1.0000
  F   F358      1.0  0.34433  0.42260  0.95706  1.0000
  F   F359      1.0  0.35050  0.90485  0.46096  1.0000
  F   F360      1.0  0.34403  0.90171  0.96377  1.0000
  F   F361      1.0  0.59931  0.42298  0.44248  1.0000
  F   F362      1.0  0.60706  0.40701  0.97552  1.0000
  F   F363      1.0  0.59841  0.89917  0.46458  1.0000
  F   F364      1.0  0.60548  0.92194  0.95208  1.0000
  F   F365      1.0  0.85062  0.42144  0.45884  1.0000
  F   F366      1.0  0.84886  0.41146  0.95979  1.0000
  F   F367      1.0  0.85060  0.93374  0.46813  1.0000
  F   F368      1.0  0.85569  0.92024  0.94085  1.0000
  F   F369      1.0  0.04454  0.29694  0.28977  1.0000
  F   F370      1.0  0.04058  0.29482  0.79417  1.0000
  F   F371      1.0  0.03952  0.80496  0.28313  1.0000
  F   F372      1.0  0.04665  0.78814  0.78488  1.0000
  F   F373      1.0  0.30041  0.29078  0.26969  1.0000
  F   F374      1.0  0.30291  0.30158  0.79969  1.0000
  F   F375      1.0  0.30890  0.78050  0.27851  1.0000
  F   F376      1.0  0.30108  0.80058  0.80547  1.0000
  F   F377      1.0  0.54557  0.28975  0.28264  1.0000
  F   F378      1.0  0.55335  0.30678  0.78515  1.0000
  F   F379      1.0  0.52964  0.79627  0.27980  1.0000
  F   F380      1.0  0.54651  0.78841  0.79918  1.0000
  F   F381      1.0  0.79609  0.29355  0.28399  1.0000
  F   F382      1.0  0.79416  0.31281  0.79333  1.0000
  F   F383      1.0  0.79727  0.80540  0.29714  1.0000
  F   F384      1.0  0.79907  0.80017  0.79087  1.0000
