data_image0
_chemical_formula_structural       Hf96F384
_chemical_formula_sum              "Hf96 F384"
_cell_length_a       31.044
_cell_length_b       15.5202
_cell_length_c       15.512
_cell_angle_alpha    63.342
_cell_angle_beta     63.342
_cell_angle_gamma    80.1625

_space_group_name_H-M_alt    "P 1"
_space_group_IT_number       1

loop_
  _space_group_symop_operation_xyz
  'x, y, z'

loop_
  _atom_site_type_symbol
  _atom_site_label
  _atom_site_symmetry_multiplicity
  _atom_site_fract_x
  _atom_site_fract_y
  _atom_site_fract_z
  _atom_site_occupancy
  Hf  Hf1       1.0  0.19333  0.11447  0.37116  1.0000
  Hf  Hf2       1.0  0.19497  0.10874  0.87806  1.0000
  Hf  Hf3       1.0  0.19765  0.61207  0.36179  1.0000
  Hf  Hf4       1.0  0.19922  0.60808  0.86430  1.0000
  Hf  Hf5       1.0  0.44716  0.10761  0.37673  1.0000
  Hf  Hf6       1.0  0.44363  0.11037  0.87425  1.0000
  Hf  Hf7       1.0  0.44354  0.60919  0.38046  1.0000
  Hf  Hf8       1.0  0.44659  0.60493  0.87465  1.0000
  Hf  Hf9       1.0  0.69405  0.10856  0.36955  1.0000
  Hf  Hf10      1.0  0.69685  0.10378  0.87633  1.0000
  Hf  Hf11      1.0  0.69229  0.61120  0.38205  1.0000
  Hf  Hf12      1.0  0.69383  0.60471  0.87308  1.0000
  Hf  Hf13      1.0  0.94275  0.10113  0.38959  1.0000
  Hf  Hf14      1.0  0.94134  0.10655  0.88222  1.0000
  Hf  Hf15      1.0  0.94295  0.60012  0.38250  1.0000
  Hf  Hf16      1.0  0.94658  0.60925  0.87584  1.0000
  Hf  Hf17      1.0  0.05446  0.39298  0.12821  1.0000
  Hf  Hf18      1.0  0.05782  0.38607  0.62376  1.0000
  Hf  Hf19      1.0  0.05917  0.89272  0.12043  1.0000
  Hf  Hf20      1.0  0.05312  0.87954  0.63054  1.0000
  Hf  Hf21      1.0  0.30356  0.40191  0.11376  1.0000
  Hf  Hf22      1.0  0.30617  0.40262  0.61169  1.0000
  Hf  Hf23      1.0  0.30385  0.89098  0.13349  1.0000
  Hf  Hf24      1.0  0.30507  0.89583  0.62489  1.0000
  Hf  Hf25      1.0  0.55602  0.39746  0.11984  1.0000
  Hf  Hf26      1.0  0.55586  0.39553  0.61968  1.0000
  Hf  Hf27      1.0  0.55117  0.89051  0.11915  1.0000
  Hf  Hf28      1.0  0.55346  0.88841  0.63471  1.0000
  Hf  Hf29      1.0  0.80318  0.39562  0.12343  1.0000
  Hf  Hf30      1.0  0.80746  0.39402  0.62004  1.0000
  Hf  Hf31      1.0  0.80606  0.89193  0.12674  1.0000
  Hf  Hf32      1.0  0.80625  0.89348  0.61907  1.0000
  Hf  Hf33      1.0  0.05513  0.17345  0.41913  1.0000
  Hf  Hf34      1.0  0.05264  0.18257  0.91675  1.0000
  Hf  Hf35      1.0  0.05769  0.67257  0.41887  1.0000
  Hf  Hf36      1.0  0.05707  0.67475  0.91929  1.0000
  Hf  Hf37      1.0  0.31181  0.18795  0.40644  1.0000
  Hf  Hf38      1.0  0.30451  0.18947  0.91788  1.0000
  Hf  Hf39      1.0  0.30613  0.69676  0.41156  1.0000
  Hf  Hf40      1.0  0.30753  0.68217  0.91399  1.0000
  Hf  Hf41      1.0  0.55556  0.18617  0.42112  1.0000
  Hf  Hf42      1.0  0.55725  0.19336  0.91276  1.0000
  Hf  Hf43      1.0  0.55674  0.68659  0.41479  1.0000
  Hf  Hf44      1.0  0.55595  0.68528  0.91839  1.0000
  Hf  Hf45      1.0  0.80318  0.17519  0.41910  1.0000
  Hf  Hf46      1.0  0.80457  0.17525  0.92566  1.0000
  Hf  Hf47      1.0  0.80289  0.67803  0.42288  1.0000
  Hf  Hf48      1.0  0.80649  0.68001  0.92414  1.0000
  Hf  Hf49      1.0  0.16281  0.38824  0.33272  1.0000
  Hf  Hf50      1.0  0.15778  0.38225  0.83144  1.0000
  Hf  Hf51      1.0  0.15731  0.89253  0.32398  1.0000
  Hf  Hf52      1.0  0.16137  0.89110  0.82889  1.0000
  Hf  Hf53      1.0  0.41110  0.38246  0.33397  1.0000
  Hf  Hf54      1.0  0.41251  0.38774  0.82564  1.0000
  Hf  Hf55      1.0  0.40777  0.89840  0.32665  1.0000
  Hf  Hf56      1.0  0.40956  0.89596  0.82882  1.0000
  Hf  Hf57      1.0  0.65783  0.38440  0.32963  1.0000
  Hf  Hf58      1.0  0.65821  0.38236  0.83643  1.0000
  Hf  Hf59      1.0  0.65947  0.88618  0.33931  1.0000
  Hf  Hf60      1.0  0.66074  0.88184  0.83583  1.0000
  Hf  Hf61      1.0  0.90268  0.37973  0.34129  1.0000
  Hf  Hf62      1.0  0.91178  0.38070  0.83628  1.0000
  Hf  Hf63      1.0  0.91017  0.88642  0.33527  1.0000
  Hf  Hf64      1.0  0.90907  0.88359  0.83911  1.0000
  Hf  Hf65      1.0  0.19277  0.32215  0.08296  1.0000
  Hf  Hf66      1.0  0.19669  0.31502  0.58144  1.0000
  Hf  Hf67      1.0  0.19584  0.82455  0.07683  1.0000
  Hf  Hf68      1.0  0.19462  0.81635  0.58418  1.0000
  Hf  Hf69      1.0  0.44524  0.31684  0.08227  1.0000
  Hf  Hf70      1.0  0.44356  0.32260  0.57792  1.0000
  Hf  Hf71      1.0  0.44181  0.81346  0.08457  1.0000
  Hf  Hf72      1.0  0.44616  0.82319  0.58094  1.0000
  Hf  Hf73      1.0  0.69422  0.31728  0.07759  1.0000
  Hf  Hf74      1.0  0.69452  0.31398  0.57927  1.0000
  Hf  Hf75      1.0  0.69602  0.81589  0.08567  1.0000
  Hf  Hf76      1.0  0.69407  0.81442  0.58848  1.0000
  Hf  Hf77      1.0  0.94425  0.32325  0.08230  1.0000
  Hf  Hf78      1.0  0.94207  0.30558  0.59365  1.0000
  Hf  Hf79      1.0  0.94250  0.82134  0.08810  1.0000
  Hf  Hf80      1.0  0.94290  0.80756  0.59044  1.0000
  Hf  Hf81      1.0  0.08950  0.12129  0.16078  1.0000
  Hf  Hf82      1.0  0.08609  0.09553  0.66948  1.0000
  Hf  Hf83      1.0  0.09037  0.61064  0.17703  1.0000
  Hf  Hf84      1.0  0.09472  0.60859  0.66534  1.0000
  Hf  Hf85      1.0  0.33973  0.12015  0.16001  1.0000
  Hf  Hf86      1.0  0.33966  0.12491  0.65918  1.0000
  Hf  Hf87      1.0  0.34125  0.61289  0.16471  1.0000
  Hf  Hf88      1.0  0.34197  0.61077  0.66522  1.0000
  Hf  Hf89      1.0  0.59068  0.11533  0.16305  1.0000
  Hf  Hf90      1.0  0.59033  0.11336  0.66869  1.0000
  Hf  Hf91      1.0  0.59181  0.60880  0.16729  1.0000
  Hf  Hf92      1.0  0.59052  0.61068  0.67207  1.0000
  Hf  Hf93      1.0  0.84251  0.11639  0.15996  1.0000
  Hf  Hf94      1.0  0.83289  0.09922  0.68468  1.0000
  Hf  Hf95      1.0  0.83906  0.60572  0.17827  1.0000
  Hf  Hf96      1.0  0.84272  0.60698  0.66848  1.0000
  F   F1        1.0  0.07775  0.11799  0.30670  1.0000
  F   F2        1.0  0.07328  0.12419  0.80470  1.0000
  F   F3        1.0  0.08319  0.62725  0.30283  1.0000
  F   F4        1.0  0.08017  0.60496  0.81390  1.0000
  F   F5        1.0  0.32888  0.13399  0.30311  1.0000
  F   F6        1.0  0.32852  0.14149  0.79566  1.0000
  F   F7        1.0  0.32551  0.64670  0.29894  1.0000
  F   F8        1.0  0.32639  0.61284  0.81555  1.0000
  F   F9        1.0  0.57633  0.12299  0.30294  1.0000
  F   F10       1.0  0.57994  0.14386  0.79730  1.0000
  F   F11       1.0  0.57971  0.63198  0.30858  1.0000
  F   F12       1.0  0.58640  0.63962  0.80015  1.0000
  F   F13       1.0  0.82466  0.11801  0.30527  1.0000
  F   F14       1.0  0.82045  0.10249  0.82551  1.0000
  F   F15       1.0  0.82469  0.61961  0.31470  1.0000
  F   F16       1.0  0.82951  0.61970  0.80748  1.0000
  F   F17       1.0  0.19933  0.35359  0.43113  1.0000
  F   F18       1.0  0.19085  0.33733  0.94510  1.0000
  F   F19       1.0  0.17802  0.83737  0.44958  1.0000
  F   F20       1.0  0.17963  0.83393  0.94933  1.0000
  F   F21       1.0  0.43849  0.33834  0.44151  1.0000
  F   F22       1.0  0.43617  0.33452  0.94331  1.0000
  F   F23       1.0  0.44009  0.85540  0.43924  1.0000
  F   F24       1.0  0.44098  0.85336  0.94277  1.0000
  F   F25       1.0  0.68516  0.35220  0.43738  1.0000
  F   F26       1.0  0.68383  0.34271  0.94697  1.0000
  F   F27       1.0  0.69088  0.84740  0.44336  1.0000
  F   F28       1.0  0.67950  0.82718  0.95495  1.0000
  F   F29       1.0  0.92705  0.32732  0.45547  1.0000
  F   F30       1.0  0.94408  0.35793  0.94372  1.0000
  F   F31       1.0  0.93611  0.84516  0.45250  1.0000
  F   F32       1.0  0.92518  0.83283  0.96588  1.0000
  F   F33       1.0  0.17029  0.36596  0.20681  1.0000
  F   F34       1.0  0.17280  0.35706  0.70429  1.0000
  F   F35       1.0  0.16613  0.85416  0.20348  1.0000
  F   F36       1.0  0.16935  0.87569  0.68712  1.0000
  F   F37       1.0  0.42393  0.39436  0.18250  1.0000
  F   F38       1.0  0.41686  0.36739  0.69291  1.0000
  F   F39       1.0  0.42165  0.88381  0.19056  1.0000
  F   F40       1.0  0.41777  0.87894  0.70046  1.0000
  F   F41       1.0  0.66913  0.37271  0.19470  1.0000
  F   F42       1.0  0.67137  0.38136  0.69688  1.0000
  F   F43       1.0  0.67550  0.87827  0.18698  1.0000
  F   F44       1.0  0.67304  0.85831  0.70800  1.0000
  F   F45       1.0  0.92861  0.39515  0.18129  1.0000
  F   F46       1.0  0.92354  0.36653  0.69858  1.0000
  F   F47       1.0  0.92994  0.89040  0.18220  1.0000
  F   F48       1.0  0.92100  0.86431  0.69958  1.0000
  F   F49       1.0  0.06258  0.15753  0.04825  1.0000
  F   F50       1.0  0.05790  0.14407  0.55935  1.0000
  F   F51       1.0  0.05596  0.65435  0.05957  1.0000
  F   F52       1.0  0.06658  0.65536  0.55235  1.0000
  F   F53       1.0  0.30964  0.16595  0.06015  1.0000
  F   F54       1.0  0.32219  0.15815  0.54319  1.0000
  F   F55       1.0  0.32569  0.67278  0.03479  1.0000
  F   F56       1.0  0.31826  0.67048  0.54214  1.0000
  F   F57       1.0  0.56575  0.18212  0.04379  1.0000
  F   F58       1.0  0.56822  0.16054  0.54891  1.0000
  F   F59       1.0  0.57308  0.65745  0.04375  1.0000
  F   F60       1.0  0.57119  0.67160  0.55058  1.0000
  F   F61       1.0  0.81746  0.15659  0.04762  1.0000
  F   F62       1.0  0.80776  0.16094  0.55678  1.0000
  F   F63       1.0  0.81028  0.64411  0.06611  1.0000
  F   F64       1.0  0.82207  0.66671  0.54449  1.0000
  F   F65       1.0  0.20560  0.20449  0.21468  1.0000
  F   F66       1.0  0.21057  0.21055  0.72754  1.0000
  F   F67       1.0  0.21647  0.70453  0.20405  1.0000
  F   F68       1.0  0.20341  0.69998  0.70535  1.0000
  F   F69       1.0  0.44803  0.19950  0.21010  1.0000
  F   F70       1.0  0.45833  0.20555  0.69847  1.0000
  F   F71       1.0  0.44492  0.71217  0.22678  1.0000
  F   F72       1.0  0.45487  0.70551  0.71646  1.0000
  F   F73       1.0  0.70452  0.20849  0.21064  1.0000
  F   F74       1.0  0.70855  0.20575  0.70677  1.0000
  F   F75       1.0  0.70214  0.69450  0.21909  1.0000
  F   F76       1.0  0.70044  0.69005  0.70986  1.0000
  F   F77       1.0  0.93784  0.20768  0.22017  1.0000
  F   F78       1.0  0.94929  0.21374  0.72766  1.0000
  F   F79       1.0  0.94977  0.70106  0.22791  1.0000
  F   F80       1.0  0.95219  0.69553  0.70864  1.0000
  F   F81       1.0  0.15470  0.10051  0.03879  1.0000
  F   F82       1.0  0.14413  0.08977  0.54065  1.0000
  F   F83       1.0  0.14919  0.62012  0.04194  1.0000
  F   F84       1.0  0.14616  0.59600  0.54226  1.0000
  F   F85       1.0  0.40096  0.11218  0.01695  1.0000
  F   F86       1.0  0.40094  0.08044  0.53628  1.0000
  F   F87       1.0  0.39938  0.58893  0.03112  1.0000
  F   F88       1.0  0.40130  0.58592  0.54993  1.0000
  F   F89       1.0  0.64698  0.10224  0.03916  1.0000
  F   F90       1.0  0.64529  0.09232  0.54628  1.0000
  F   F91       1.0  0.64696  0.59090  0.03905  1.0000
  F   F92       1.0  0.64928  0.57381  0.54917  1.0000
  F   F93       1.0  0.89846  0.06862  0.04610  1.0000
  F   F94       1.0  0.89983  0.10475  0.54173  1.0000
  F   F95       1.0  0.89945  0.60223  0.04581  1.0000
  F   F96       1.0  0.89839  0.57921  0.54154  1.0000
  F   F97       1.0  0.15249  0.19937  0.13760  1.0000
  F   F98       1.0  0.16288  0.20082  0.61556  1.0000
  F   F99       1.0  0.15118  0.70305  0.15680  1.0000
  F   F100      1.0  0.14715  0.69663  0.63806  1.0000
  F   F101      1.0  0.39988  0.20343  0.10723  1.0000
  F   F102      1.0  0.40034  0.20632  0.60999  1.0000
  F   F103      1.0  0.40097  0.69332  0.12411  1.0000
  F   F104      1.0  0.39953  0.70657  0.63486  1.0000
  F   F105      1.0  0.65275  0.19658  0.13090  1.0000
  F   F106      1.0  0.65170  0.20276  0.62472  1.0000
  F   F107      1.0  0.65053  0.68931  0.13006  1.0000
  F   F108      1.0  0.64977  0.70000  0.61062  1.0000
  F   F109      1.0  0.89900  0.20417  0.10695  1.0000
  F   F110      1.0  0.90088  0.18882  0.65180  1.0000
  F   F111      1.0  0.90078  0.69644  0.13387  1.0000
  F   F112      1.0  0.90334  0.68215  0.62461  1.0000
  F   F113      1.0  0.10030  0.29130  0.39248  1.0000
  F   F114      1.0  0.09409  0.30530  0.86549  1.0000
  F   F115      1.0  0.08740  0.79589  0.38173  1.0000
  F   F116      1.0  0.10181  0.80894  0.86132  1.0000
  F   F117      1.0  0.35354  0.30527  0.36895  1.0000
  F   F118      1.0  0.34965  0.31654  0.88009  1.0000
  F   F119      1.0  0.34732  0.81066  0.35963  1.0000
  F   F120      1.0  0.34358  0.81621  0.87605  1.0000
  F   F121      1.0  0.59675  0.30038  0.37706  1.0000
  F   F122      1.0  0.59811  0.31135  0.86703  1.0000
  F   F123      1.0  0.60471  0.80094  0.36395  1.0000
  F   F124      1.0  0.59996  0.80000  0.87364  1.0000
  F   F125      1.0  0.84785  0.30201  0.36151  1.0000
  F   F126      1.0  0.84982  0.29279  0.86602  1.0000
  F   F127      1.0  0.84852  0.81618  0.36203  1.0000
  F   F128      1.0  0.85136  0.79898  0.88396  1.0000
  F   F129      1.0  0.06255  0.25058  0.14806  1.0000
  F   F130      1.0  0.07481  0.24323  0.63141  1.0000
  F   F131      1.0  0.07534  0.76118  0.11402  1.0000
  F   F132      1.0  0.06842  0.74548  0.63994  1.0000
  F   F133      1.0  0.30872  0.25941  0.15080  1.0000
  F   F134      1.0  0.30894  0.26763  0.63802  1.0000
  F   F135      1.0  0.30683  0.75597  0.14436  1.0000
  F   F136      1.0  0.31411  0.75300  0.64393  1.0000
  F   F137      1.0  0.56637  0.25980  0.14567  1.0000
  F   F138      1.0  0.56370  0.25183  0.64758  1.0000
  F   F139      1.0  0.55803  0.75736  0.13238  1.0000
  F   F140      1.0  0.55715  0.74768  0.66160  1.0000
  F   F141      1.0  0.80969  0.24568  0.14909  1.0000
  F   F142      1.0  0.81961  0.24715  0.64278  1.0000
  F   F143      1.0  0.82640  0.75589  0.12401  1.0000
  F   F144      1.0  0.80294  0.74039  0.66122  1.0000
  F   F145      1.0  0.12220  0.36287  0.10380  1.0000
  F   F146      1.0  0.12867  0.37362  0.60518  1.0000
  F   F147      1.0  0.13486  0.90116  0.07466  1.0000
  F   F148      1.0  0.12336  0.87087  0.60857  1.0000
  F   F149      1.0  0.37710  0.37020  0.10314  1.0000
  F   F150      1.0  0.37584  0.37882  0.58975  1.0000
  F   F151      1.0  0.37210  0.83632  0.12884  1.0000
  F   F152      1.0  0.37678  0.88592  0.59522  1.0000
  F   F153      1.0  0.62773  0.38694  0.09543  1.0000
  F   F154      1.0  0.62289  0.36503  0.61874  1.0000
  F   F155      1.0  0.62257  0.86097  0.11727  1.0000
  F   F156      1.0  0.62517  0.86675  0.61883  1.0000
  F   F157      1.0  0.87545  0.37266  0.10882  1.0000
  F   F158      1.0  0.87573  0.37514  0.60315  1.0000
  F   F159      1.0  0.87669  0.88421  0.11237  1.0000
  F   F160      1.0  0.87227  0.86029  0.62452  1.0000
  F   F161      1.0  0.18225  0.25350  0.37413  1.0000
  F   F162      1.0  0.16493  0.24067  0.89744  1.0000
  F   F163      1.0  0.16947  0.75216  0.36384  1.0000
  F   F164      1.0  0.19298  0.75127  0.84484  1.0000
  F   F165      1.0  0.44041  0.25346  0.34320  1.0000
  F   F166      1.0  0.43993  0.25617  0.83447  1.0000
  F   F167      1.0  0.42327  0.75467  0.38038  1.0000
  F   F168      1.0  0.43062  0.75085  0.86645  1.0000
  F   F169      1.0  0.67805  0.24966  0.36135  1.0000
  F   F170      1.0  0.69169  0.24560  0.85563  1.0000
  F   F171      1.0  0.68883  0.75143  0.36576  1.0000
  F   F172      1.0  0.69584  0.74786  0.84115  1.0000
  F   F173      1.0  0.93216  0.24849  0.34943  1.0000
  F   F174      1.0  0.92396  0.24032  0.89478  1.0000
  F   F175      1.0  0.93247  0.74175  0.36868  1.0000
  F   F176      1.0  0.93934  0.74208  0.85698  1.0000
  F   F177      1.0  0.12545  0.13117  0.39263  1.0000
  F   F178      1.0  0.12276  0.12851  0.88735  1.0000
  F   F179      1.0  0.12711  0.61160  0.38949  1.0000
  F   F180      1.0  0.13079  0.64026  0.88495  1.0000
  F   F181      1.0  0.37719  0.13867  0.37680  1.0000
  F   F182      1.0  0.37849  0.15388  0.86862  1.0000
  F   F183      1.0  0.37625  0.63100  0.39236  1.0000
  F   F184      1.0  0.38198  0.63306  0.86882  1.0000
  F   F185      1.0  0.62382  0.12790  0.39830  1.0000
  F   F186      1.0  0.62701  0.14455  0.88757  1.0000
  F   F187      1.0  0.62403  0.61727  0.41039  1.0000
  F   F188      1.0  0.62749  0.63132  0.89368  1.0000
  F   F189      1.0  0.86783  0.12003  0.40473  1.0000
  F   F190      1.0  0.87493  0.12375  0.88645  1.0000
  F   F191      1.0  0.87066  0.63550  0.38836  1.0000
  F   F192      1.0  0.87544  0.64271  0.89434  1.0000
  F   F193      1.0  0.01018  0.36933  0.06457  1.0000
  F   F194      1.0  0.00798  0.34753  0.59655  1.0000
  F   F195      1.0  0.00991  0.86555  0.06693  1.0000
  F   F196      1.0  0.00553  0.86431  0.57447  1.0000
  F   F197      1.0  0.25780  0.36568  0.05888  1.0000
  F   F198      1.0  0.25682  0.37398  0.56642  1.0000
  F   F199      1.0  0.25487  0.86939  0.06910  1.0000
  F   F200      1.0  0.25872  0.86980  0.56356  1.0000
  F   F201      1.0  0.50850  0.39141  0.06245  1.0000
  F   F202      1.0  0.50750  0.37682  0.56312  1.0000
  F   F203      1.0  0.50566  0.87283  0.05084  1.0000
  F   F204      1.0  0.51097  0.86345  0.57722  1.0000
  F   F205      1.0  0.75860  0.35791  0.06984  1.0000
  F   F206      1.0  0.76057  0.35937  0.57859  1.0000
  F   F207      1.0  0.75986  0.84612  0.08779  1.0000
  F   F208      1.0  0.75351  0.87176  0.56521  1.0000
  F   F209      1.0  0.06913  0.48138  0.18467  1.0000
  F   F210      1.0  0.06592  0.47817  0.68759  1.0000
  F   F211      1.0  0.06757  0.98253  0.19048  1.0000
  F   F212      1.0  0.06503  0.96802  0.68929  1.0000
  F   F213      1.0  0.31806  0.50018  0.16753  1.0000
  F   F214      1.0  0.32468  0.48556  0.66948  1.0000
  F   F215      1.0  0.32965  0.98444  0.15887  1.0000
  F   F216      1.0  0.31564  0.98344  0.67764  1.0000
  F   F217      1.0  0.56927  0.48550  0.17089  1.0000
  F   F218      1.0  0.56613  0.48244  0.68156  1.0000
  F   F219      1.0  0.56294  0.98779  0.17585  1.0000
  F   F220      1.0  0.56889  0.98745  0.67897  1.0000
  F   F221      1.0  0.81735  0.48522  0.17070  1.0000
  F   F222      1.0  0.81765  0.48448  0.67974  1.0000
  F   F223      1.0  0.81664  0.98253  0.18372  1.0000
  F   F224      1.0  0.81611  0.98628  0.67263  1.0000
  F   F225      1.0  0.24463  0.13448  0.42253  1.0000
  F   F226      1.0  0.24315  0.14407  0.91063  1.0000
  F   F227      1.0  0.23989  0.65013  0.42405  1.0000
  F   F228      1.0  0.24759  0.63884  0.90543  1.0000
  F   F229      1.0  0.49331  0.14064  0.41748  1.0000
  F   F230      1.0  0.49175  0.14282  0.91998  1.0000
  F   F231      1.0  0.49171  0.65570  0.40670  1.0000
  F   F232      1.0  0.49371  0.63746  0.92400  1.0000
  F   F233      1.0  0.73861  0.14645  0.42288  1.0000
  F   F234      1.0  0.73889  0.12168  0.93829  1.0000
  F   F235      1.0  0.74250  0.62904  0.44220  1.0000
  F   F236      1.0  0.75062  0.63615  0.92689  1.0000
  F   F237      1.0  0.99337  0.13136  0.42856  1.0000
  F   F238      1.0  0.98985  0.13483  0.93111  1.0000
  F   F239      1.0  0.99359  0.62985  0.42625  1.0000
  F   F240      1.0  0.99585  0.62863  0.93011  1.0000
  F   F241      1.0  0.17984  0.01794  0.32705  1.0000
  F   F242      1.0  0.18274  0.02229  0.82481  1.0000
  F   F243      1.0  0.18878  0.51476  0.29828  1.0000
  F   F244      1.0  0.18187  0.49937  0.84358  1.0000
  F   F245      1.0  0.43120  0.02013  0.31535  1.0000
  F   F246      1.0  0.42788  0.01940  0.81772  1.0000
  F   F247      1.0  0.43341  0.51260  0.32761  1.0000
  F   F248      1.0  0.44053  0.50879  0.81240  1.0000
  F   F249      1.0  0.67972  0.01848  0.31469  1.0000
  F   F250      1.0  0.67839  0.01597  0.83583  1.0000
  F   F251      1.0  0.67937  0.51487  0.32907  1.0000
  F   F252      1.0  0.68218  0.50136  0.82382  1.0000
  F   F253      1.0  0.92893  0.01313  0.33975  1.0000
  F   F254      1.0  0.93396  0.01151  0.82162  1.0000
  F   F255      1.0  0.93059  0.50897  0.32238  1.0000
  F   F256      1.0  0.92492  0.52309  0.82942  1.0000
  F   F257      1.0  0.99210  0.22481  0.02243  1.0000
  F   F258      1.0  0.99814  0.24396  0.50319  1.0000
  F   F259      1.0  0.99571  0.74921  0.00226  1.0000
  F   F260      1.0  0.99729  0.72570  0.51292  1.0000
  F   F261      1.0  0.24198  0.23251  0.01804  1.0000
  F   F262      1.0  0.25649  0.24854  0.50119  1.0000
  F   F263      1.0  0.24614  0.74246  0.00916  1.0000
  F   F264      1.0  0.24837  0.74433  0.50248  1.0000
  F   F265      1.0  0.50235  0.26525  0.99299  1.0000
  F   F266      1.0  0.50071  0.24842  0.49992  1.0000
  F   F267      1.0  0.50079  0.74242  0.01254  1.0000
  F   F268      1.0  0.50079  0.74671  0.51327  1.0000
  F   F269      1.0  0.74814  0.24880  0.99263  1.0000
  F   F270      1.0  0.75004  0.26322  0.48209  1.0000
  F   F271      1.0  0.75118  0.76554  0.99493  1.0000
  F   F272      1.0  0.75463  0.75223  0.50167  1.0000
  F   F273      1.0  0.13146  0.00429  0.23547  1.0000
  F   F274      1.0  0.13913  0.01393  0.72518  1.0000
  F   F275      1.0  0.12260  0.49282  0.26700  1.0000
  F   F276      1.0  0.13256  0.49288  0.74140  1.0000
  F   F277      1.0  0.37001  0.01477  0.24438  1.0000
  F   F278      1.0  0.37057  0.00960  0.75412  1.0000
  F   F279      1.0  0.38228  0.51459  0.23526  1.0000
  F   F280      1.0  0.37883  0.50189  0.74910  1.0000
  F   F281      1.0  0.62477  0.99379  0.24696  1.0000
  F   F282      1.0  0.63015  0.01144  0.74068  1.0000
  F   F283      1.0  0.62303  0.50363  0.25402  1.0000
  F   F284      1.0  0.61783  0.50081  0.76375  1.0000
  F   F285      1.0  0.88307  0.00519  0.25056  1.0000
  F   F286      1.0  0.88097  0.99594  0.74535  1.0000
  F   F287      1.0  0.86927  0.48511  0.26224  1.0000
  F   F288      1.0  0.87180  0.48868  0.75852  1.0000
  F   F289      1.0  0.04541  0.02284  0.03393  1.0000
  F   F290      1.0  0.04463  0.01957  0.53107  1.0000
  F   F291      1.0  0.04481  0.52973  0.03322  1.0000
  F   F292      1.0  0.04088  0.52922  0.52587  1.0000
  F   F293      1.0  0.29628  0.04126  0.01459  1.0000
  F   F294      1.0  0.29361  0.03478  0.52791  1.0000
  F   F295      1.0  0.28846  0.54024  0.02572  1.0000
  F   F296      1.0  0.29228  0.53838  0.52151  1.0000
  F   F297      1.0  0.54648  0.03217  0.01445  1.0000
  F   F298      1.0  0.54441  0.02841  0.52175  1.0000
  F   F299      1.0  0.54438  0.54655  0.02337  1.0000
  F   F300      1.0  0.54038  0.54497  0.51733  1.0000
  F   F301      1.0  0.78164  0.02779  0.04190  1.0000
  F   F302      1.0  0.79523  0.02753  0.50945  1.0000
  F   F303      1.0  0.80627  0.52580  0.00177  1.0000
  F   F304      1.0  0.78674  0.52996  0.53057  1.0000
  F   F305      1.0  0.23653  0.40110  0.21920  1.0000
  F   F306      1.0  0.23407  0.41528  0.71888  1.0000
  F   F307      1.0  0.23617  0.92046  0.22178  1.0000
  F   F308      1.0  0.23028  0.91984  0.73425  1.0000
  F   F309      1.0  0.48876  0.40508  0.23357  1.0000
  F   F310      1.0  0.48628  0.42201  0.70927  1.0000
  F   F311      1.0  0.48244  0.92427  0.21601  1.0000
  F   F312      1.0  0.48531  0.91033  0.73311  1.0000
  F   F313      1.0  0.73225  0.40957  0.23057  1.0000
  F   F314      1.0  0.73795  0.39469  0.72922  1.0000
  F   F315      1.0  0.74014  0.90439  0.24653  1.0000
  F   F316      1.0  0.73956  0.91313  0.73074  1.0000
  F   F317      1.0  0.98724  0.39916  0.24056  1.0000
  F   F318      1.0  0.98447  0.41014  0.73050  1.0000
  F   F319      1.0  0.98726  0.90661  0.23224  1.0000
  F   F320      1.0  0.97921  0.89903  0.73655  1.0000
  F   F321      1.0  0.19996  0.47910  0.48184  1.0000
  F   F322      1.0  0.19800  0.47931  0.99459  1.0000
  F   F323      1.0  0.19722  0.97075  0.48414  1.0000
  F   F324      1.0  0.21407  0.97916  0.95723  1.0000
  F   F325      1.0  0.45499  0.47598  0.47285  1.0000
  F   F326      1.0  0.46110  0.47065  0.96625  1.0000
  F   F327      1.0  0.47243  0.97053  0.45675  1.0000
  F   F328      1.0  0.43904  0.97211  0.99705  1.0000
  F   F329      1.0  0.70686  0.46439  0.48164  1.0000
  F   F330      1.0  0.71164  0.47420  0.97262  1.0000
  F   F331      1.0  0.70735  0.97999  0.47356  1.0000
  F   F332      1.0  0.71251  0.96179  0.96811  1.0000
  F   F333      1.0  0.95634  0.45392  0.49267  1.0000
  F   F334      1.0  0.95521  0.48028  0.97954  1.0000
  F   F335      1.0  0.95685  0.97462  0.48091  1.0000
  F   F336      1.0  0.96445  0.97206  0.96376  1.0000
  F   F337      1.0  0.01811  0.10330  0.26352  1.0000
  F   F338      1.0  0.01089  0.09480  0.76688  1.0000
  F   F339      1.0  0.01530  0.58224  0.27139  1.0000
  F   F340      1.0  0.01432  0.60180  0.76564  1.0000
  F   F341      1.0  0.26362  0.08687  0.27152  1.0000
  F   F342      1.0  0.26760  0.09874  0.76343  1.0000
  F   F343      1.0  0.26601  0.58484  0.26853  1.0000
  F   F344      1.0  0.26764  0.59477  0.75944  1.0000
  F   F345      1.0  0.51493  0.10902  0.25103  1.0000
  F   F346      1.0  0.50951  0.08350  0.77170  1.0000
  F   F347      1.0  0.51511  0.59960  0.26442  1.0000
  F   F348      1.0  0.51961  0.58650  0.76519  1.0000
  F   F349      1.0  0.76142  0.09401  0.26865  1.0000
  F   F350      1.0  0.76204  0.07540  0.76754  1.0000
  F   F351      1.0  0.76459  0.59454  0.27517  1.0000
  F   F352      1.0  0.75831  0.57779  0.77720  1.0000
  F   F353      1.0  0.10642  0.40878  0.46289  1.0000
  F   F354      1.0  0.09727  0.41287  0.95708  1.0000
  F   F355      1.0  0.09651  0.89322  0.45016  1.0000
  F   F356      1.0  0.10430  0.92021  0.94993  1.0000
  F   F357      1.0  0.35358  0.41144  0.45144  1.0000
  F   F358      1.0  0.35570  0.42533  0.94746  1.0000
  F   F359      1.0  0.34897  0.91703  0.45167  1.0000
  F   F360      1.0  0.35622  0.90895  0.97828  1.0000
  F   F361      1.0  0.60179  0.39083  0.46446  1.0000
  F   F362      1.0  0.60280  0.39949  0.96092  1.0000
  F   F363      1.0  0.60013  0.89917  0.46351  1.0000
  F   F364      1.0  0.60212  0.90930  0.95202  1.0000
  F   F365      1.0  0.85018  0.41445  0.45664  1.0000
  F   F366      1.0  0.85662  0.38317  0.96795  1.0000
  F   F367      1.0  0.85329  0.90181  0.46211  1.0000
  F   F368      1.0  0.84778  0.92858  0.96029  1.0000
  F   F369      1.0  0.05454  0.28339  0.29024  1.0000
  F   F370      1.0  0.04436  0.29341  0.78688  1.0000
  F   F371      1.0  0.05139  0.79690  0.27615  1.0000
  F   F372      1.0  0.04548  0.78092  0.79016  1.0000
  F   F373      1.0  0.30110  0.30604  0.28837  1.0000
  F   F374      1.0  0.29852  0.30722  0.79379  1.0000
  F   F375      1.0  0.28927  0.81104  0.30057  1.0000
  F   F376      1.0  0.29296  0.79858  0.79237  1.0000
  F   F377      1.0  0.54914  0.29259  0.29890  1.0000
  F   F378      1.0  0.54733  0.30341  0.78730  1.0000
  F   F379      1.0  0.54592  0.79087  0.29454  1.0000
  F   F380      1.0  0.53793  0.80505  0.80090  1.0000
  F   F381      1.0  0.79900  0.30167  0.28552  1.0000
  F   F382      1.0  0.80383  0.28945  0.78393  1.0000
  F   F383      1.0  0.79997  0.78616  0.27910  1.0000
  F   F384      1.0  0.80145  0.79220  0.79913  1.0000
