data_image0
_chemical_formula_structural       Hf96F384
_chemical_formula_sum              "Hf96 F384"
_cell_length_a       31.0546
_cell_length_b       15.5298
_cell_length_c       15.5126
_cell_angle_alpha    63.342
_cell_angle_beta     63.342
_cell_angle_gamma    80.1625

_space_group_name_H-M_alt    "P 1"
_space_group_IT_number       1

loop_
  _space_group_symop_operation_xyz
  'x, y, z'

loop_
  _atom_site_type_symbol
  _atom_site_label
  _atom_site_symmetry_multiplicity
  _atom_site_fract_x
  _atom_site_fract_y
  _atom_site_fract_z
  _atom_site_occupancy
  Hf  Hf1       1.0  0.19660  0.10937  0.37521  1.0000
  Hf  Hf2       1.0  0.19894  0.11006  0.87432  1.0000
  Hf  Hf3       1.0  0.19399  0.60549  0.37834  1.0000
  Hf  Hf4       1.0  0.19961  0.61550  0.86661  1.0000
  Hf  Hf5       1.0  0.44654  0.10715  0.37798  1.0000
  Hf  Hf6       1.0  0.44731  0.10777  0.87439  1.0000
  Hf  Hf7       1.0  0.44770  0.60679  0.37019  1.0000
  Hf  Hf8       1.0  0.44659  0.60785  0.87819  1.0000
  Hf  Hf9       1.0  0.69965  0.11078  0.35953  1.0000
  Hf  Hf10      1.0  0.69276  0.10308  0.88128  1.0000
  Hf  Hf11      1.0  0.69470  0.59615  0.38684  1.0000
  Hf  Hf12      1.0  0.69428  0.60511  0.88074  1.0000
  Hf  Hf13      1.0  0.94685  0.10129  0.38080  1.0000
  Hf  Hf14      1.0  0.94811  0.10140  0.87219  1.0000
  Hf  Hf15      1.0  0.94528  0.60502  0.38494  1.0000
  Hf  Hf16      1.0  0.94474  0.60617  0.86792  1.0000
  Hf  Hf17      1.0  0.05069  0.39000  0.13521  1.0000
  Hf  Hf18      1.0  0.04994  0.38497  0.63746  1.0000
  Hf  Hf19      1.0  0.05599  0.89340  0.12180  1.0000
  Hf  Hf20      1.0  0.05510  0.89488  0.62449  1.0000
  Hf  Hf21      1.0  0.30163  0.40639  0.12295  1.0000
  Hf  Hf22      1.0  0.30602  0.40033  0.61724  1.0000
  Hf  Hf23      1.0  0.30967  0.90604  0.10785  1.0000
  Hf  Hf24      1.0  0.30338  0.88837  0.62881  1.0000
  Hf  Hf25      1.0  0.55327  0.37957  0.12878  1.0000
  Hf  Hf26      1.0  0.55225  0.39245  0.62999  1.0000
  Hf  Hf27      1.0  0.55251  0.90092  0.11830  1.0000
  Hf  Hf28      1.0  0.55918  0.88814  0.62104  1.0000
  Hf  Hf29      1.0  0.79953  0.38809  0.13615  1.0000
  Hf  Hf30      1.0  0.80389  0.38740  0.62944  1.0000
  Hf  Hf31      1.0  0.80420  0.88978  0.11477  1.0000
  Hf  Hf32      1.0  0.80730  0.89111  0.61553  1.0000
  Hf  Hf33      1.0  0.05464  0.18086  0.42369  1.0000
  Hf  Hf34      1.0  0.05330  0.18451  0.91964  1.0000
  Hf  Hf35      1.0  0.05623  0.69032  0.40976  1.0000
  Hf  Hf36      1.0  0.05814  0.67756  0.91123  1.0000
  Hf  Hf37      1.0  0.30508  0.17938  0.42013  1.0000
  Hf  Hf38      1.0  0.30647  0.19656  0.91123  1.0000
  Hf  Hf39      1.0  0.31057  0.69508  0.40690  1.0000
  Hf  Hf40      1.0  0.30819  0.69027  0.91388  1.0000
  Hf  Hf41      1.0  0.55409  0.17566  0.42384  1.0000
  Hf  Hf42      1.0  0.55627  0.19226  0.91148  1.0000
  Hf  Hf43      1.0  0.55611  0.68268  0.41736  1.0000
  Hf  Hf44      1.0  0.55449  0.68899  0.91142  1.0000
  Hf  Hf45      1.0  0.80999  0.17785  0.41181  1.0000
  Hf  Hf46      1.0  0.80297  0.17793  0.92359  1.0000
  Hf  Hf47      1.0  0.80401  0.67446  0.42519  1.0000
  Hf  Hf48      1.0  0.80312  0.67860  0.93142  1.0000
  Hf  Hf49      1.0  0.15586  0.39698  0.33244  1.0000
  Hf  Hf50      1.0  0.15836  0.38857  0.83056  1.0000
  Hf  Hf51      1.0  0.16129  0.88973  0.32801  1.0000
  Hf  Hf52      1.0  0.16020  0.88950  0.83689  1.0000
  Hf  Hf53      1.0  0.40972  0.39097  0.33029  1.0000
  Hf  Hf54      1.0  0.40888  0.39662  0.82804  1.0000
  Hf  Hf55      1.0  0.40922  0.89733  0.33035  1.0000
  Hf  Hf56      1.0  0.41632  0.89311  0.81772  1.0000
  Hf  Hf57      1.0  0.65634  0.37836  0.33728  1.0000
  Hf  Hf58      1.0  0.65572  0.38937  0.83289  1.0000
  Hf  Hf59      1.0  0.66122  0.88291  0.33225  1.0000
  Hf  Hf60      1.0  0.65754  0.88186  0.83434  1.0000
  Hf  Hf61      1.0  0.90740  0.38407  0.33753  1.0000
  Hf  Hf62      1.0  0.90456  0.38158  0.84086  1.0000
  Hf  Hf63      1.0  0.90946  0.88342  0.33110  1.0000
  Hf  Hf64      1.0  0.91203  0.88907  0.82540  1.0000
  Hf  Hf65      1.0  0.19314  0.32322  0.08268  1.0000
  Hf  Hf66      1.0  0.19134  0.31478  0.58445  1.0000
  Hf  Hf67      1.0  0.19539  0.82160  0.07740  1.0000
  Hf  Hf68      1.0  0.19663  0.82197  0.57769  1.0000
  Hf  Hf69      1.0  0.44119  0.31688  0.08705  1.0000
  Hf  Hf70      1.0  0.44593  0.32364  0.58263  1.0000
  Hf  Hf71      1.0  0.44312  0.81909  0.08272  1.0000
  Hf  Hf72      1.0  0.44392  0.82148  0.58637  1.0000
  Hf  Hf73      1.0  0.69380  0.32013  0.07922  1.0000
  Hf  Hf74      1.0  0.69444  0.31151  0.58717  1.0000
  Hf  Hf75      1.0  0.69489  0.81427  0.08781  1.0000
  Hf  Hf76      1.0  0.69370  0.80975  0.58022  1.0000
  Hf  Hf77      1.0  0.94505  0.32197  0.07825  1.0000
  Hf  Hf78      1.0  0.94550  0.32088  0.58375  1.0000
  Hf  Hf79      1.0  0.94604  0.80825  0.08548  1.0000
  Hf  Hf80      1.0  0.94282  0.81756  0.58266  1.0000
  Hf  Hf81      1.0  0.08815  0.11367  0.17019  1.0000
  Hf  Hf82      1.0  0.09010  0.11443  0.67381  1.0000
  Hf  Hf83      1.0  0.09409  0.62004  0.15290  1.0000
  Hf  Hf84      1.0  0.09342  0.60737  0.66867  1.0000
  Hf  Hf85      1.0  0.34370  0.11677  0.16059  1.0000
  Hf  Hf86      1.0  0.34268  0.11722  0.67044  1.0000
  Hf  Hf87      1.0  0.33944  0.61938  0.16987  1.0000
  Hf  Hf88      1.0  0.34514  0.62027  0.64813  1.0000
  Hf  Hf89      1.0  0.58890  0.10947  0.17335  1.0000
  Hf  Hf90      1.0  0.59112  0.11349  0.66424  1.0000
  Hf  Hf91      1.0  0.58998  0.60939  0.16700  1.0000
  Hf  Hf92      1.0  0.58813  0.60373  0.67230  1.0000
  Hf  Hf93      1.0  0.84694  0.11495  0.15428  1.0000
  Hf  Hf94      1.0  0.84010  0.10654  0.66860  1.0000
  Hf  Hf95      1.0  0.83802  0.60313  0.17684  1.0000
  Hf  Hf96      1.0  0.83300  0.60141  0.68604  1.0000
  F   F1        1.0  0.08276  0.14216  0.29626  1.0000
  F   F2        1.0  0.08631  0.14059  0.79759  1.0000
  F   F3        1.0  0.06866  0.62188  0.30583  1.0000
  F   F4        1.0  0.07356  0.61670  0.81367  1.0000
  F   F5        1.0  0.33962  0.13732  0.29638  1.0000
  F   F6        1.0  0.32888  0.14339  0.80139  1.0000
  F   F7        1.0  0.33783  0.63804  0.28737  1.0000
  F   F8        1.0  0.33618  0.65314  0.79213  1.0000
  F   F9        1.0  0.57849  0.13620  0.29540  1.0000
  F   F10       1.0  0.57718  0.13700  0.80214  1.0000
  F   F11       1.0  0.57756  0.61174  0.30787  1.0000
  F   F12       1.0  0.57798  0.62615  0.80256  1.0000
  F   F13       1.0  0.83508  0.13488  0.28799  1.0000
  F   F14       1.0  0.82949  0.14295  0.79361  1.0000
  F   F15       1.0  0.82802  0.61102  0.31750  1.0000
  F   F16       1.0  0.82257  0.61160  0.82784  1.0000
  F   F17       1.0  0.18991  0.36832  0.43332  1.0000
  F   F18       1.0  0.18438  0.33629  0.95207  1.0000
  F   F19       1.0  0.18289  0.84640  0.44658  1.0000
  F   F20       1.0  0.18747  0.83760  0.94605  1.0000
  F   F21       1.0  0.43844  0.34243  0.44100  1.0000
  F   F22       1.0  0.43020  0.35229  0.94428  1.0000
  F   F23       1.0  0.42815  0.83506  0.45406  1.0000
  F   F24       1.0  0.43944  0.83928  0.93707  1.0000
  F   F25       1.0  0.68124  0.31726  0.45223  1.0000
  F   F26       1.0  0.69082  0.34781  0.94076  1.0000
  F   F27       1.0  0.69558  0.82283  0.44588  1.0000
  F   F28       1.0  0.67843  0.84089  0.95994  1.0000
  F   F29       1.0  0.93464  0.32786  0.45844  1.0000
  F   F30       1.0  0.93341  0.34926  0.94362  1.0000
  F   F31       1.0  0.94031  0.84740  0.43565  1.0000
  F   F32       1.0  0.93491  0.83151  0.95210  1.0000
  F   F33       1.0  0.16204  0.36764  0.20746  1.0000
  F   F34       1.0  0.17702  0.37632  0.69794  1.0000
  F   F35       1.0  0.17612  0.88285  0.19082  1.0000
  F   F36       1.0  0.16502  0.86161  0.70744  1.0000
  F   F37       1.0  0.41145  0.37152  0.20676  1.0000
  F   F38       1.0  0.40784  0.36041  0.71083  1.0000
  F   F39       1.0  0.42363  0.88060  0.19087  1.0000
  F   F40       1.0  0.42652  0.89659  0.68032  1.0000
  F   F41       1.0  0.67255  0.37196  0.19335  1.0000
  F   F42       1.0  0.67112  0.37938  0.68537  1.0000
  F   F43       1.0  0.66888  0.86989  0.20443  1.0000
  F   F44       1.0  0.67602  0.86712  0.69481  1.0000
  F   F45       1.0  0.92444  0.37434  0.18768  1.0000
  F   F46       1.0  0.92386  0.38411  0.69202  1.0000
  F   F47       1.0  0.92562  0.87167  0.18995  1.0000
  F   F48       1.0  0.91800  0.86384  0.70018  1.0000
  F   F49       1.0  0.06291  0.16464  0.05514  1.0000
  F   F50       1.0  0.06334  0.14391  0.56488  1.0000
  F   F51       1.0  0.05664  0.65368  0.06328  1.0000
  F   F52       1.0  0.06524  0.66000  0.54396  1.0000
  F   F53       1.0  0.31436  0.15932  0.05512  1.0000
  F   F54       1.0  0.31141  0.15247  0.56390  1.0000
  F   F55       1.0  0.31573  0.65117  0.05441  1.0000
  F   F56       1.0  0.31551  0.65348  0.54823  1.0000
  F   F57       1.0  0.56804  0.16666  0.03888  1.0000
  F   F58       1.0  0.56506  0.16327  0.55204  1.0000
  F   F59       1.0  0.56520  0.65287  0.04627  1.0000
  F   F60       1.0  0.56533  0.66537  0.55034  1.0000
  F   F61       1.0  0.81534  0.16476  0.04933  1.0000
  F   F62       1.0  0.81002  0.14610  0.56103  1.0000
  F   F63       1.0  0.81160  0.64458  0.06597  1.0000
  F   F64       1.0  0.82239  0.66737  0.55503  1.0000
  F   F65       1.0  0.21343  0.21143  0.20698  1.0000
  F   F66       1.0  0.19626  0.19011  0.71174  1.0000
  F   F67       1.0  0.21274  0.70729  0.18381  1.0000
  F   F68       1.0  0.20795  0.69785  0.70704  1.0000
  F   F69       1.0  0.44950  0.20027  0.22896  1.0000
  F   F70       1.0  0.45980  0.20148  0.71343  1.0000
  F   F71       1.0  0.44883  0.70606  0.20373  1.0000
  F   F72       1.0  0.44289  0.70754  0.72577  1.0000
  F   F73       1.0  0.70024  0.19855  0.21033  1.0000
  F   F74       1.0  0.70227  0.19754  0.73814  1.0000
  F   F75       1.0  0.70052  0.69574  0.21729  1.0000
  F   F76       1.0  0.70274  0.70779  0.70633  1.0000
  F   F77       1.0  0.95239  0.20304  0.21640  1.0000
  F   F78       1.0  0.94814  0.20879  0.71738  1.0000
  F   F79       1.0  0.94316  0.69380  0.20787  1.0000
  F   F80       1.0  0.95014  0.69071  0.69646  1.0000
  F   F81       1.0  0.15162  0.10407  0.03627  1.0000
  F   F82       1.0  0.15259  0.08920  0.53398  1.0000
  F   F83       1.0  0.15602  0.59578  0.02058  1.0000
  F   F84       1.0  0.14392  0.59664  0.53146  1.0000
  F   F85       1.0  0.39507  0.09425  0.03233  1.0000
  F   F86       1.0  0.39890  0.11822  0.54122  1.0000
  F   F87       1.0  0.40044  0.59123  0.03625  1.0000
  F   F88       1.0  0.40609  0.59871  0.52458  1.0000
  F   F89       1.0  0.64667  0.08260  0.04438  1.0000
  F   F90       1.0  0.65048  0.09436  0.55088  1.0000
  F   F91       1.0  0.64287  0.57039  0.04915  1.0000
  F   F92       1.0  0.64245  0.55582  0.54942  1.0000
  F   F93       1.0  0.90448  0.08545  0.03689  1.0000
  F   F94       1.0  0.89596  0.09035  0.54135  1.0000
  F   F95       1.0  0.90276  0.58676  0.01654  1.0000
  F   F96       1.0  0.89992  0.55771  0.54981  1.0000
  F   F97       1.0  0.14838  0.20352  0.12426  1.0000
  F   F98       1.0  0.14733  0.21221  0.60087  1.0000
  F   F99       1.0  0.15011  0.69555  0.13116  1.0000
  F   F100      1.0  0.15071  0.69687  0.62466  1.0000
  F   F101      1.0  0.40556  0.20214  0.11824  1.0000
  F   F102      1.0  0.40584  0.21253  0.63703  1.0000
  F   F103      1.0  0.40258  0.70829  0.10259  1.0000
  F   F104      1.0  0.39854  0.69443  0.62397  1.0000
  F   F105      1.0  0.64572  0.20599  0.12613  1.0000
  F   F106      1.0  0.65728  0.19363  0.64028  1.0000
  F   F107      1.0  0.64972  0.68615  0.12079  1.0000
  F   F108      1.0  0.64465  0.68423  0.62370  1.0000
  F   F109      1.0  0.90205  0.20079  0.11455  1.0000
  F   F110      1.0  0.89640  0.19891  0.62838  1.0000
  F   F111      1.0  0.89688  0.68695  0.12516  1.0000
  F   F112      1.0  0.89369  0.68728  0.61921  1.0000
  F   F113      1.0  0.09658  0.30325  0.36847  1.0000
  F   F114      1.0  0.09554  0.29637  0.87213  1.0000
  F   F115      1.0  0.09910  0.80977  0.36520  1.0000
  F   F116      1.0  0.09879  0.80662  0.88092  1.0000
  F   F117      1.0  0.34914  0.29432  0.37817  1.0000
  F   F118      1.0  0.34421  0.32438  0.88971  1.0000
  F   F119      1.0  0.34633  0.80870  0.39261  1.0000
  F   F120      1.0  0.35127  0.81005  0.86836  1.0000
  F   F121      1.0  0.59547  0.29773  0.38104  1.0000
  F   F122      1.0  0.59159  0.31556  0.85618  1.0000
  F   F123      1.0  0.59759  0.80556  0.38118  1.0000
  F   F124      1.0  0.59702  0.80009  0.88354  1.0000
  F   F125      1.0  0.84821  0.30342  0.38568  1.0000
  F   F126      1.0  0.84786  0.29255  0.85948  1.0000
  F   F127      1.0  0.84379  0.79650  0.38235  1.0000
  F   F128      1.0  0.84727  0.81340  0.89996  1.0000
  F   F129      1.0  0.06255  0.25381  0.14837  1.0000
  F   F130      1.0  0.05777  0.24114  0.66281  1.0000
  F   F131      1.0  0.07036  0.76069  0.12348  1.0000
  F   F132      1.0  0.07254  0.75075  0.62348  1.0000
  F   F133      1.0  0.32242  0.25748  0.12696  1.0000
  F   F134      1.0  0.31092  0.24953  0.64673  1.0000
  F   F135      1.0  0.31330  0.75233  0.13860  1.0000
  F   F136      1.0  0.31695  0.75339  0.62690  1.0000
  F   F137      1.0  0.55452  0.24301  0.14620  1.0000
  F   F138      1.0  0.57437  0.25047  0.63019  1.0000
  F   F139      1.0  0.56144  0.76284  0.13118  1.0000
  F   F140      1.0  0.56285  0.75311  0.64904  1.0000
  F   F141      1.0  0.81265  0.24512  0.15459  1.0000
  F   F142      1.0  0.81509  0.24932  0.63972  1.0000
  F   F143      1.0  0.80850  0.74722  0.14578  1.0000
  F   F144      1.0  0.79930  0.74878  0.67034  1.0000
  F   F145      1.0  0.12374  0.38506  0.09579  1.0000
  F   F146      1.0  0.12316  0.36770  0.62314  1.0000
  F   F147      1.0  0.12802  0.86907  0.11312  1.0000
  F   F148      1.0  0.12512  0.87029  0.61046  1.0000
  F   F149      1.0  0.37678  0.37362  0.10616  1.0000
  F   F150      1.0  0.37270  0.37529  0.60212  1.0000
  F   F151      1.0  0.37634  0.87623  0.10360  1.0000
  F   F152      1.0  0.37339  0.85821  0.62975  1.0000
  F   F153      1.0  0.62228  0.37808  0.10954  1.0000
  F   F154      1.0  0.62190  0.35737  0.62078  1.0000
  F   F155      1.0  0.62376  0.85844  0.12679  1.0000
  F   F156      1.0  0.62447  0.84701  0.62649  1.0000
  F   F157      1.0  0.87356  0.37119  0.09970  1.0000
  F   F158      1.0  0.87232  0.35856  0.62369  1.0000
  F   F159      1.0  0.88019  0.85658  0.11557  1.0000
  F   F160      1.0  0.87323  0.84937  0.62135  1.0000
  F   F161      1.0  0.18260  0.24727  0.35987  1.0000
  F   F162      1.0  0.18436  0.25179  0.85255  1.0000
  F   F163      1.0  0.18870  0.75152  0.35412  1.0000
  F   F164      1.0  0.18570  0.75673  0.84745  1.0000
  F   F165      1.0  0.43773  0.25460  0.36414  1.0000
  F   F166      1.0  0.43046  0.25563  0.86472  1.0000
  F   F167      1.0  0.44332  0.74352  0.34277  1.0000
  F   F168      1.0  0.44497  0.75298  0.83995  1.0000
  F   F169      1.0  0.69134  0.24548  0.34559  1.0000
  F   F170      1.0  0.66556  0.24384  0.89129  1.0000
  F   F171      1.0  0.68457  0.74113  0.36332  1.0000
  F   F172      1.0  0.67450  0.74077  0.88544  1.0000
  F   F173      1.0  0.93828  0.25259  0.36243  1.0000
  F   F174      1.0  0.93336  0.24616  0.87158  1.0000
  F   F175      1.0  0.93750  0.74667  0.35874  1.0000
  F   F176      1.0  0.94293  0.74550  0.83902  1.0000
  F   F177      1.0  0.12448  0.12494  0.39714  1.0000
  F   F178      1.0  0.12584  0.11944  0.90834  1.0000
  F   F179      1.0  0.12331  0.65744  0.36602  1.0000
  F   F180      1.0  0.12709  0.63974  0.88354  1.0000
  F   F181      1.0  0.37597  0.09968  0.41737  1.0000
  F   F182      1.0  0.37690  0.14477  0.88314  1.0000
  F   F183      1.0  0.37881  0.63503  0.38629  1.0000
  F   F184      1.0  0.37322  0.62661  0.89665  1.0000
  F   F185      1.0  0.62595  0.11604  0.41589  1.0000
  F   F186      1.0  0.62126  0.12446  0.90071  1.0000
  F   F187      1.0  0.62535  0.64148  0.37396  1.0000
  F   F188      1.0  0.62587  0.63565  0.88110  1.0000
  F   F189      1.0  0.87931  0.15394  0.37875  1.0000
  F   F190      1.0  0.87904  0.11132  0.89278  1.0000
  F   F191      1.0  0.87638  0.63506  0.39685  1.0000
  F   F192      1.0  0.87443  0.64416  0.88143  1.0000
  F   F193      1.0  0.00744  0.35558  0.07486  1.0000
  F   F194      1.0  0.00446  0.35263  0.59206  1.0000
  F   F195      1.0  0.00909  0.86365  0.07675  1.0000
  F   F196      1.0  0.00673  0.86265  0.58051  1.0000
  F   F197      1.0  0.25561  0.36208  0.07964  1.0000
  F   F198      1.0  0.25599  0.36087  0.56434  1.0000
  F   F199      1.0  0.25806  0.86377  0.06722  1.0000
  F   F200      1.0  0.26040  0.86348  0.56679  1.0000
  F   F201      1.0  0.50275  0.36224  0.09300  1.0000
  F   F202      1.0  0.50973  0.35259  0.57765  1.0000
  F   F203      1.0  0.50785  0.86298  0.06422  1.0000
  F   F204      1.0  0.50968  0.85489  0.56729  1.0000
  F   F205      1.0  0.75511  0.34814  0.08492  1.0000
  F   F206      1.0  0.76078  0.36721  0.57287  1.0000
  F   F207      1.0  0.75356  0.86170  0.08167  1.0000
  F   F208      1.0  0.75694  0.87277  0.55601  1.0000
  F   F209      1.0  0.06983  0.49092  0.17120  1.0000
  F   F210      1.0  0.06599  0.49082  0.68414  1.0000
  F   F211      1.0  0.07237  0.98755  0.16527  1.0000
  F   F212      1.0  0.06697  0.98804  0.68720  1.0000
  F   F213      1.0  0.31794  0.48833  0.18298  1.0000
  F   F214      1.0  0.32351  0.49494  0.66382  1.0000
  F   F215      1.0  0.31921  0.99352  0.17151  1.0000
  F   F216      1.0  0.32438  0.98936  0.67473  1.0000
  F   F217      1.0  0.55973  0.46610  0.20750  1.0000
  F   F218      1.0  0.55973  0.47516  0.69965  1.0000
  F   F219      1.0  0.56571  0.98935  0.17629  1.0000
  F   F220      1.0  0.56935  0.99610  0.66716  1.0000
  F   F221      1.0  0.81788  0.47880  0.18722  1.0000
  F   F222      1.0  0.81521  0.48532  0.68490  1.0000
  F   F223      1.0  0.82143  0.98692  0.16054  1.0000
  F   F224      1.0  0.82216  0.97538  0.67428  1.0000
  F   F225      1.0  0.24525  0.15264  0.40551  1.0000
  F   F226      1.0  0.24180  0.13511  0.93149  1.0000
  F   F227      1.0  0.24087  0.63288  0.44805  1.0000
  F   F228      1.0  0.24663  0.64668  0.90202  1.0000
  F   F229      1.0  0.49118  0.12665  0.44297  1.0000
  F   F230      1.0  0.48461  0.14680  0.93741  1.0000
  F   F231      1.0  0.49456  0.62818  0.42252  1.0000
  F   F232      1.0  0.48854  0.64102  0.94145  1.0000
  F   F233      1.0  0.74444  0.12955  0.42756  1.0000
  F   F234      1.0  0.73683  0.14530  0.92207  1.0000
  F   F235      1.0  0.74046  0.61552  0.43569  1.0000
  F   F236      1.0  0.73744  0.64575  0.92703  1.0000
  F   F237      1.0  0.99031  0.13849  0.42163  1.0000
  F   F238      1.0  0.99353  0.14525  0.91661  1.0000
  F   F239      1.0  0.98979  0.63121  0.45257  1.0000
  F   F240      1.0  0.99443  0.62975  0.93706  1.0000
  F   F241      1.0  0.18789  0.01505  0.30723  1.0000
  F   F242      1.0  0.18191  0.00768  0.84028  1.0000
  F   F243      1.0  0.17395  0.52822  0.32531  1.0000
  F   F244      1.0  0.18276  0.50879  0.82016  1.0000
  F   F245      1.0  0.43592  0.01017  0.31867  1.0000
  F   F246      1.0  0.43965  0.01004  0.82597  1.0000
  F   F247      1.0  0.43191  0.52595  0.31774  1.0000
  F   F248      1.0  0.43610  0.53157  0.80354  1.0000
  F   F249      1.0  0.69271  0.00849  0.30324  1.0000
  F   F250      1.0  0.68357  0.99851  0.82236  1.0000
  F   F251      1.0  0.67887  0.50391  0.34231  1.0000
  F   F252      1.0  0.67533  0.51647  0.82836  1.0000
  F   F253      1.0  0.92036  0.01358  0.34541  1.0000
  F   F254      1.0  0.94085  0.00849  0.81599  1.0000
  F   F255      1.0  0.92486  0.50945  0.34013  1.0000
  F   F256      1.0  0.92397  0.51268  0.83792  1.0000
  F   F257      1.0  0.99684  0.23755  0.00048  1.0000
  F   F258      1.0  0.99927  0.24188  0.50859  1.0000
  F   F259      1.0  0.00286  0.74121  0.01019  1.0000
  F   F260      1.0  0.00915  0.77422  0.47822  1.0000
  F   F261      1.0  0.24678  0.26414  0.99790  1.0000
  F   F262      1.0  0.24668  0.24592  0.50282  1.0000
  F   F263      1.0  0.25261  0.75351  0.99341  1.0000
  F   F264      1.0  0.24880  0.75271  0.49365  1.0000
  F   F265      1.0  0.50448  0.25765  0.00710  1.0000
  F   F266      1.0  0.50859  0.25858  0.49607  1.0000
  F   F267      1.0  0.50017  0.75508  0.98966  1.0000
  F   F268      1.0  0.49797  0.74192  0.50637  1.0000
  F   F269      1.0  0.74469  0.24496  0.00190  1.0000
  F   F270      1.0  0.75182  0.25924  0.49193  1.0000
  F   F271      1.0  0.74564  0.73578  0.01935  1.0000
  F   F272      1.0  0.74480  0.71688  0.52413  1.0000
  F   F273      1.0  0.12041  0.99830  0.25257  1.0000
  F   F274      1.0  0.13061  0.01038  0.74065  1.0000
  F   F275      1.0  0.12908  0.50895  0.23373  1.0000
  F   F276      1.0  0.13849  0.51051  0.72827  1.0000
  F   F277      1.0  0.37273  0.99989  0.25069  1.0000
  F   F278      1.0  0.38645  0.01923  0.74839  1.0000
  F   F279      1.0  0.37713  0.50791  0.24440  1.0000
  F   F280      1.0  0.37411  0.51004  0.75855  1.0000
  F   F281      1.0  0.61572  0.98769  0.28712  1.0000
  F   F282      1.0  0.62168  0.99645  0.76379  1.0000
  F   F283      1.0  0.62797  0.49976  0.24732  1.0000
  F   F284      1.0  0.62286  0.50201  0.75432  1.0000
  F   F285      1.0  0.87287  0.98980  0.26003  1.0000
  F   F286      1.0  0.87430  0.99893  0.75144  1.0000
  F   F287      1.0  0.87749  0.49546  0.25296  1.0000
  F   F288      1.0  0.86622  0.48660  0.77084  1.0000
  F   F289      1.0  0.04068  0.03563  0.02304  1.0000
  F   F290      1.0  0.03632  0.02420  0.53620  1.0000
  F   F291      1.0  0.05039  0.52205  0.02013  1.0000
  F   F292      1.0  0.04554  0.52192  0.52379  1.0000
  F   F293      1.0  0.30392  0.03923  0.99785  1.0000
  F   F294      1.0  0.28723  0.02992  0.52731  1.0000
  F   F295      1.0  0.28159  0.54387  0.03910  1.0000
  F   F296      1.0  0.30297  0.53189  0.50041  1.0000
  F   F297      1.0  0.53825  0.04677  0.02053  1.0000
  F   F298      1.0  0.54679  0.03456  0.51256  1.0000
  F   F299      1.0  0.55193  0.51168  0.01630  1.0000
  F   F300      1.0  0.54416  0.52479  0.52995  1.0000
  F   F301      1.0  0.78851  0.03313  0.02037  1.0000
  F   F302      1.0  0.80005  0.03127  0.50800  1.0000
  F   F303      1.0  0.79434  0.52028  0.02586  1.0000
  F   F304      1.0  0.79299  0.53432  0.53769  1.0000
  F   F305      1.0  0.23570  0.41523  0.23609  1.0000
  F   F306      1.0  0.24209  0.42160  0.71497  1.0000
  F   F307      1.0  0.23914  0.89168  0.23547  1.0000
  F   F308      1.0  0.23278  0.92463  0.71280  1.0000
  F   F309      1.0  0.48216  0.41006  0.22161  1.0000
  F   F310      1.0  0.47676  0.43316  0.70582  1.0000
  F   F311      1.0  0.48419  0.91541  0.21863  1.0000
  F   F312      1.0  0.49196  0.90577  0.71902  1.0000
  F   F313      1.0  0.73301  0.42856  0.21765  1.0000
  F   F314      1.0  0.73096  0.41683  0.72686  1.0000
  F   F315      1.0  0.73774  0.89755  0.22911  1.0000
  F   F316      1.0  0.74227  0.90194  0.72529  1.0000
  F   F317      1.0  0.98426  0.41742  0.23393  1.0000
  F   F318      1.0  0.98413  0.41852  0.72823  1.0000
  F   F319      1.0  0.98679  0.91843  0.22434  1.0000
  F   F320      1.0  0.98521  0.89499  0.73806  1.0000
  F   F321      1.0  0.20059  0.47714  0.48286  1.0000
  F   F322      1.0  0.20627  0.46774  0.97345  1.0000
  F   F323      1.0  0.21396  0.96974  0.47540  1.0000
  F   F324      1.0  0.20797  0.97030  0.98344  1.0000
  F   F325      1.0  0.46212  0.46444  0.46816  1.0000
  F   F326      1.0  0.45854  0.46992  0.98399  1.0000
  F   F327      1.0  0.45072  0.97168  0.48663  1.0000
  F   F328      1.0  0.45708  0.97335  0.96889  1.0000
  F   F329      1.0  0.71374  0.45760  0.46475  1.0000
  F   F330      1.0  0.71066  0.46786  0.97643  1.0000
  F   F331      1.0  0.70285  0.97628  0.46426  1.0000
  F   F332      1.0  0.70394  0.97058  0.97120  1.0000
  F   F333      1.0  0.96097  0.46165  0.47118  1.0000
  F   F334      1.0  0.95924  0.45894  0.98100  1.0000
  F   F335      1.0  0.94986  0.96347  0.49226  1.0000
  F   F336      1.0  0.96118  0.95852  0.97085  1.0000
  F   F337      1.0  0.01708  0.08260  0.27565  1.0000
  F   F338      1.0  0.01749  0.09267  0.77110  1.0000
  F   F339      1.0  0.01310  0.60342  0.26564  1.0000
  F   F340      1.0  0.01148  0.59702  0.76445  1.0000
  F   F341      1.0  0.26927  0.09506  0.26327  1.0000
  F   F342      1.0  0.26538  0.07029  0.78343  1.0000
  F   F343      1.0  0.26256  0.59756  0.28538  1.0000
  F   F344      1.0  0.26986  0.59134  0.75694  1.0000
  F   F345      1.0  0.51235  0.06877  0.28756  1.0000
  F   F346      1.0  0.51289  0.06938  0.78723  1.0000
  F   F347      1.0  0.51726  0.59608  0.25171  1.0000
  F   F348      1.0  0.51598  0.59198  0.77259  1.0000
  F   F349      1.0  0.77291  0.08929  0.25785  1.0000
  F   F350      1.0  0.76905  0.07388  0.77545  1.0000
  F   F351      1.0  0.76315  0.59918  0.27013  1.0000
  F   F352      1.0  0.76103  0.58068  0.77837  1.0000
  F   F353      1.0  0.09667  0.39208  0.46604  1.0000
  F   F354      1.0  0.10040  0.39593  0.96176  1.0000
  F   F355      1.0  0.10521  0.91218  0.44928  1.0000
  F   F356      1.0  0.10140  0.91571  0.96339  1.0000
  F   F357      1.0  0.35302  0.40829  0.45647  1.0000
  F   F358      1.0  0.35184  0.43491  0.96232  1.0000
  F   F359      1.0  0.35101  0.92240  0.46897  1.0000
  F   F360      1.0  0.34960  0.91500  0.94359  1.0000
  F   F361      1.0  0.60058  0.40863  0.46387  1.0000
  F   F362      1.0  0.59915  0.37490  0.97634  1.0000
  F   F363      1.0  0.61093  0.90311  0.47048  1.0000
  F   F364      1.0  0.60129  0.91522  0.97031  1.0000
  F   F365      1.0  0.85280  0.40939  0.46940  1.0000
  F   F366      1.0  0.84541  0.38529  0.96243  1.0000
  F   F367      1.0  0.85134  0.89447  0.46225  1.0000
  F   F368      1.0  0.85568  0.91805  0.96652  1.0000
  F   F369      1.0  0.04266  0.30213  0.30214  1.0000
  F   F370      1.0  0.04331  0.31008  0.78817  1.0000
  F   F371      1.0  0.04587  0.78522  0.27772  1.0000
  F   F372      1.0  0.04722  0.79526  0.78518  1.0000
  F   F373      1.0  0.29937  0.29557  0.28053  1.0000
  F   F374      1.0  0.29603  0.31037  0.78786  1.0000
  F   F375      1.0  0.29781  0.79778  0.28159  1.0000
  F   F376      1.0  0.28702  0.80003  0.78610  1.0000
  F   F377      1.0  0.54606  0.29179  0.29038  1.0000
  F   F378      1.0  0.53105  0.29399  0.79035  1.0000
  F   F379      1.0  0.54867  0.80034  0.28637  1.0000
  F   F380      1.0  0.55082  0.80815  0.79054  1.0000
  F   F381      1.0  0.79812  0.30741  0.28744  1.0000
  F   F382      1.0  0.79044  0.29612  0.78738  1.0000
  F   F383      1.0  0.79408  0.77251  0.29824  1.0000
  F   F384      1.0  0.80850  0.78891  0.80492  1.0000
