data_image0
_chemical_formula_structural       Hf96F384
_chemical_formula_sum              "Hf96 F384"
_cell_length_a       31.0459
_cell_length_b       15.5234
_cell_length_c       15.5149
_cell_angle_alpha    63.342
_cell_angle_beta     63.342
_cell_angle_gamma    80.1625

_space_group_name_H-M_alt    "P 1"
_space_group_IT_number       1

loop_
  _space_group_symop_operation_xyz
  'x, y, z'

loop_
  _atom_site_type_symbol
  _atom_site_label
  _atom_site_symmetry_multiplicity
  _atom_site_fract_x
  _atom_site_fract_y
  _atom_site_fract_z
  _atom_site_occupancy
  Hf  Hf1       1.0  0.19409  0.09914  0.38892  1.0000
  Hf  Hf2       1.0  0.19993  0.11260  0.87417  1.0000
  Hf  Hf3       1.0  0.19667  0.60273  0.36859  1.0000
  Hf  Hf4       1.0  0.20133  0.61206  0.86462  1.0000
  Hf  Hf5       1.0  0.44662  0.10410  0.37872  1.0000
  Hf  Hf6       1.0  0.45009  0.10416  0.87856  1.0000
  Hf  Hf7       1.0  0.44961  0.60969  0.36498  1.0000
  Hf  Hf8       1.0  0.44763  0.60341  0.87709  1.0000
  Hf  Hf9       1.0  0.69778  0.10959  0.36990  1.0000
  Hf  Hf10      1.0  0.69464  0.10157  0.88094  1.0000
  Hf  Hf11      1.0  0.69651  0.61169  0.38093  1.0000
  Hf  Hf12      1.0  0.69258  0.60704  0.88366  1.0000
  Hf  Hf13      1.0  0.94353  0.11266  0.37852  1.0000
  Hf  Hf14      1.0  0.94583  0.11118  0.86954  1.0000
  Hf  Hf15      1.0  0.94497  0.61366  0.37233  1.0000
  Hf  Hf16      1.0  0.94550  0.61032  0.87464  1.0000
  Hf  Hf17      1.0  0.05489  0.40001  0.12181  1.0000
  Hf  Hf18      1.0  0.05483  0.39785  0.61959  1.0000
  Hf  Hf19      1.0  0.05130  0.89517  0.12876  1.0000
  Hf  Hf20      1.0  0.05044  0.89474  0.63528  1.0000
  Hf  Hf21      1.0  0.30065  0.39086  0.12260  1.0000
  Hf  Hf22      1.0  0.30533  0.38791  0.62444  1.0000
  Hf  Hf23      1.0  0.30501  0.87750  0.13440  1.0000
  Hf  Hf24      1.0  0.30225  0.88673  0.63937  1.0000
  Hf  Hf25      1.0  0.55278  0.38703  0.12857  1.0000
  Hf  Hf26      1.0  0.55659  0.39576  0.62228  1.0000
  Hf  Hf27      1.0  0.55098  0.88861  0.12914  1.0000
  Hf  Hf28      1.0  0.55496  0.89477  0.61955  1.0000
  Hf  Hf29      1.0  0.80381  0.39506  0.12278  1.0000
  Hf  Hf30      1.0  0.80346  0.39495  0.62331  1.0000
  Hf  Hf31      1.0  0.79730  0.89634  0.12836  1.0000
  Hf  Hf32      1.0  0.80273  0.89293  0.62620  1.0000
  Hf  Hf33      1.0  0.05373  0.18890  0.40783  1.0000
  Hf  Hf34      1.0  0.05318  0.18494  0.91887  1.0000
  Hf  Hf35      1.0  0.05292  0.68203  0.42173  1.0000
  Hf  Hf36      1.0  0.05550  0.68614  0.91269  1.0000
  Hf  Hf37      1.0  0.30430  0.17589  0.42102  1.0000
  Hf  Hf38      1.0  0.30498  0.17828  0.93095  1.0000
  Hf  Hf39      1.0  0.30769  0.67692  0.41946  1.0000
  Hf  Hf40      1.0  0.31036  0.68271  0.91728  1.0000
  Hf  Hf41      1.0  0.55984  0.18850  0.40389  1.0000
  Hf  Hf42      1.0  0.55642  0.18051  0.91696  1.0000
  Hf  Hf43      1.0  0.55545  0.67682  0.42114  1.0000
  Hf  Hf44      1.0  0.55550  0.68627  0.91516  1.0000
  Hf  Hf45      1.0  0.80387  0.18783  0.42124  1.0000
  Hf  Hf46      1.0  0.80737  0.19237  0.90674  1.0000
  Hf  Hf47      1.0  0.81020  0.68888  0.40719  1.0000
  Hf  Hf48      1.0  0.80576  0.69163  0.91517  1.0000
  Hf  Hf49      1.0  0.15451  0.38107  0.33736  1.0000
  Hf  Hf50      1.0  0.16110  0.39153  0.83292  1.0000
  Hf  Hf51      1.0  0.15857  0.88333  0.33961  1.0000
  Hf  Hf52      1.0  0.16003  0.88960  0.83119  1.0000
  Hf  Hf53      1.0  0.41026  0.38952  0.33291  1.0000
  Hf  Hf54      1.0  0.41022  0.38943  0.83120  1.0000
  Hf  Hf55      1.0  0.40609  0.87996  0.34144  1.0000
  Hf  Hf56      1.0  0.41187  0.88586  0.83048  1.0000
  Hf  Hf57      1.0  0.66421  0.39475  0.32290  1.0000
  Hf  Hf58      1.0  0.65183  0.38352  0.84317  1.0000
  Hf  Hf59      1.0  0.65660  0.89052  0.33236  1.0000
  Hf  Hf60      1.0  0.65710  0.88649  0.82529  1.0000
  Hf  Hf61      1.0  0.91150  0.39230  0.32802  1.0000
  Hf  Hf62      1.0  0.91019  0.39559  0.83184  1.0000
  Hf  Hf63      1.0  0.90949  0.89823  0.32383  1.0000
  Hf  Hf64      1.0  0.90736  0.89569  0.82712  1.0000
  Hf  Hf65      1.0  0.19348  0.31268  0.09051  1.0000
  Hf  Hf66      1.0  0.19450  0.31271  0.58765  1.0000
  Hf  Hf67      1.0  0.19745  0.81437  0.07880  1.0000
  Hf  Hf68      1.0  0.19255  0.81121  0.58695  1.0000
  Hf  Hf69      1.0  0.44295  0.30400  0.09330  1.0000
  Hf  Hf70      1.0  0.44761  0.31696  0.57710  1.0000
  Hf  Hf71      1.0  0.44162  0.80870  0.09002  1.0000
  Hf  Hf72      1.0  0.44620  0.82255  0.57665  1.0000
  Hf  Hf73      1.0  0.69473  0.31389  0.07799  1.0000
  Hf  Hf74      1.0  0.69509  0.31900  0.59012  1.0000
  Hf  Hf75      1.0  0.69436  0.82078  0.08240  1.0000
  Hf  Hf76      1.0  0.69550  0.81120  0.58280  1.0000
  Hf  Hf77      1.0  0.94300  0.32143  0.08246  1.0000
  Hf  Hf78      1.0  0.94372  0.32112  0.58362  1.0000
  Hf  Hf79      1.0  0.94390  0.82495  0.07664  1.0000
  Hf  Hf80      1.0  0.93955  0.81575  0.58991  1.0000
  Hf  Hf81      1.0  0.09298  0.10939  0.16483  1.0000
  Hf  Hf82      1.0  0.09152  0.10448  0.67386  1.0000
  Hf  Hf83      1.0  0.09442  0.61214  0.15612  1.0000
  Hf  Hf84      1.0  0.08709  0.60990  0.66734  1.0000
  Hf  Hf85      1.0  0.34307  0.11075  0.16527  1.0000
  Hf  Hf86      1.0  0.34488  0.11362  0.66690  1.0000
  Hf  Hf87      1.0  0.34533  0.60163  0.16677  1.0000
  Hf  Hf88      1.0  0.34411  0.61414  0.66462  1.0000
  Hf  Hf89      1.0  0.58938  0.10397  0.16896  1.0000
  Hf  Hf90      1.0  0.59040  0.11054  0.66549  1.0000
  Hf  Hf91      1.0  0.59111  0.61491  0.16662  1.0000
  Hf  Hf92      1.0  0.58944  0.61342  0.66931  1.0000
  Hf  Hf93      1.0  0.84132  0.11059  0.16931  1.0000
  Hf  Hf94      1.0  0.83821  0.11137  0.66885  1.0000
  Hf  Hf95      1.0  0.83956  0.61273  0.16625  1.0000
  Hf  Hf96      1.0  0.83841  0.61875  0.66648  1.0000
  F   F1        1.0  0.07443  0.12296  0.30288  1.0000
  F   F2        1.0  0.08443  0.11683  0.80318  1.0000
  F   F3        1.0  0.08567  0.64308  0.30106  1.0000
  F   F4        1.0  0.06869  0.62182  0.81415  1.0000
  F   F5        1.0  0.32780  0.13029  0.30815  1.0000
  F   F6        1.0  0.33636  0.14481  0.79808  1.0000
  F   F7        1.0  0.33194  0.62029  0.29921  1.0000
  F   F8        1.0  0.33735  0.63706  0.79632  1.0000
  F   F9        1.0  0.58163  0.13765  0.29186  1.0000
  F   F10       1.0  0.57804  0.12303  0.80645  1.0000
  F   F11       1.0  0.58074  0.62484  0.30704  1.0000
  F   F12       1.0  0.58174  0.62611  0.80091  1.0000
  F   F13       1.0  0.83605  0.14158  0.28856  1.0000
  F   F14       1.0  0.83095  0.13518  0.79171  1.0000
  F   F15       1.0  0.83002  0.63044  0.30488  1.0000
  F   F16       1.0  0.82471  0.64332  0.80585  1.0000
  F   F17       1.0  0.19418  0.34707  0.43718  1.0000
  F   F18       1.0  0.18386  0.35098  0.94570  1.0000
  F   F19       1.0  0.17674  0.82470  0.46731  1.0000
  F   F20       1.0  0.18776  0.84574  0.94176  1.0000
  F   F21       1.0  0.44032  0.35274  0.43521  1.0000
  F   F22       1.0  0.43169  0.33623  0.95536  1.0000
  F   F23       1.0  0.43899  0.83874  0.44260  1.0000
  F   F24       1.0  0.44344  0.84974  0.94176  1.0000
  F   F25       1.0  0.67845  0.33522  0.45147  1.0000
  F   F26       1.0  0.68705  0.33433  0.94125  1.0000
  F   F27       1.0  0.68119  0.83712  0.44821  1.0000
  F   F28       1.0  0.67802  0.83895  0.95418  1.0000
  F   F29       1.0  0.93206  0.33897  0.44979  1.0000
  F   F30       1.0  0.93700  0.34470  0.93939  1.0000
  F   F31       1.0  0.92871  0.83088  0.45468  1.0000
  F   F32       1.0  0.93519  0.84873  0.93631  1.0000
  F   F33       1.0  0.16924  0.36792  0.20120  1.0000
  F   F34       1.0  0.17287  0.37545  0.69839  1.0000
  F   F35       1.0  0.17028  0.85133  0.19974  1.0000
  F   F36       1.0  0.17699  0.86484  0.69397  1.0000
  F   F37       1.0  0.41576  0.35891  0.20968  1.0000
  F   F38       1.0  0.41882  0.37318  0.68595  1.0000
  F   F39       1.0  0.41879  0.85459  0.20347  1.0000
  F   F40       1.0  0.42247  0.85434  0.70362  1.0000
  F   F41       1.0  0.67229  0.36524  0.19594  1.0000
  F   F42       1.0  0.66799  0.36451  0.70719  1.0000
  F   F43       1.0  0.66901  0.87505  0.19476  1.0000
  F   F44       1.0  0.66515  0.85758  0.70218  1.0000
  F   F45       1.0  0.92889  0.38272  0.17939  1.0000
  F   F46       1.0  0.92191  0.36744  0.70945  1.0000
  F   F47       1.0  0.91810  0.88792  0.18889  1.0000
  F   F48       1.0  0.91933  0.87594  0.69865  1.0000
  F   F49       1.0  0.06192  0.15556  0.05518  1.0000
  F   F50       1.0  0.06848  0.16518  0.54787  1.0000
  F   F51       1.0  0.06775  0.66479  0.03594  1.0000
  F   F52       1.0  0.04990  0.64782  0.56807  1.0000
  F   F53       1.0  0.31494  0.15659  0.05850  1.0000
  F   F54       1.0  0.31464  0.15819  0.56577  1.0000
  F   F55       1.0  0.31896  0.66023  0.04973  1.0000
  F   F56       1.0  0.30809  0.64334  0.56618  1.0000
  F   F57       1.0  0.57402  0.15976  0.04030  1.0000
  F   F58       1.0  0.56797  0.16974  0.54613  1.0000
  F   F59       1.0  0.56883  0.64884  0.05232  1.0000
  F   F60       1.0  0.56033  0.65547  0.56253  1.0000
  F   F61       1.0  0.80560  0.15756  0.04636  1.0000
  F   F62       1.0  0.79789  0.15604  0.57129  1.0000
  F   F63       1.0  0.81390  0.66027  0.05392  1.0000
  F   F64       1.0  0.82227  0.66479  0.54684  1.0000
  F   F65       1.0  0.20600  0.20208  0.23405  1.0000
  F   F66       1.0  0.21197  0.20118  0.71583  1.0000
  F   F67       1.0  0.20653  0.69342  0.21565  1.0000
  F   F68       1.0  0.21836  0.70634  0.71687  1.0000
  F   F69       1.0  0.45695  0.18842  0.22822  1.0000
  F   F70       1.0  0.46135  0.19748  0.69659  1.0000
  F   F71       1.0  0.46083  0.69883  0.20032  1.0000
  F   F72       1.0  0.45054  0.69642  0.72427  1.0000
  F   F73       1.0  0.70389  0.19104  0.20115  1.0000
  F   F74       1.0  0.70595  0.20696  0.69867  1.0000
  F   F75       1.0  0.70506  0.71450  0.19763  1.0000
  F   F76       1.0  0.70562  0.70057  0.71336  1.0000
  F   F77       1.0  0.95390  0.21086  0.20765  1.0000
  F   F78       1.0  0.95456  0.20405  0.72184  1.0000
  F   F79       1.0  0.94287  0.70296  0.20413  1.0000
  F   F80       1.0  0.94979  0.69972  0.71465  1.0000
  F   F81       1.0  0.14976  0.10632  0.03875  1.0000
  F   F82       1.0  0.14489  0.07909  0.55116  1.0000
  F   F83       1.0  0.15125  0.59084  0.03110  1.0000
  F   F84       1.0  0.14877  0.60968  0.54301  1.0000
  F   F85       1.0  0.40063  0.10709  0.04716  1.0000
  F   F86       1.0  0.40165  0.09366  0.54416  1.0000
  F   F87       1.0  0.40728  0.57321  0.05483  1.0000
  F   F88       1.0  0.39920  0.59305  0.53848  1.0000
  F   F89       1.0  0.65020  0.07376  0.03314  1.0000
  F   F90       1.0  0.64921  0.09626  0.52487  1.0000
  F   F91       1.0  0.65211  0.59398  0.04058  1.0000
  F   F92       1.0  0.64680  0.60674  0.53323  1.0000
  F   F93       1.0  0.89532  0.08173  0.04050  1.0000
  F   F94       1.0  0.89793  0.11171  0.53549  1.0000
  F   F95       1.0  0.89859  0.58670  0.04073  1.0000
  F   F96       1.0  0.89821  0.59471  0.53130  1.0000
  F   F97       1.0  0.15135  0.19764  0.13042  1.0000
  F   F98       1.0  0.15027  0.21153  0.61240  1.0000
  F   F99       1.0  0.15871  0.69057  0.11213  1.0000
  F   F100      1.0  0.15749  0.68202  0.66259  1.0000
  F   F101      1.0  0.40485  0.18961  0.14580  1.0000
  F   F102      1.0  0.40492  0.20113  0.61438  1.0000
  F   F103      1.0  0.40375  0.69095  0.11948  1.0000
  F   F104      1.0  0.40231  0.69882  0.61771  1.0000
  F   F105      1.0  0.65155  0.17696  0.11410  1.0000
  F   F106      1.0  0.64965  0.19525  0.61319  1.0000
  F   F107      1.0  0.64970  0.68891  0.13020  1.0000
  F   F108      1.0  0.65620  0.69396  0.62998  1.0000
  F   F109      1.0  0.90420  0.20652  0.11180  1.0000
  F   F110      1.0  0.90060  0.20540  0.63382  1.0000
  F   F111      1.0  0.89213  0.70905  0.12055  1.0000
  F   F112      1.0  0.90462  0.69280  0.62029  1.0000
  F   F113      1.0  0.09220  0.31526  0.37677  1.0000
  F   F114      1.0  0.09694  0.31987  0.88881  1.0000
  F   F115      1.0  0.10377  0.80045  0.37789  1.0000
  F   F116      1.0  0.09659  0.80182  0.85671  1.0000
  F   F117      1.0  0.34480  0.30018  0.37506  1.0000
  F   F118      1.0  0.34941  0.30175  0.87868  1.0000
  F   F119      1.0  0.34200  0.79793  0.38828  1.0000
  F   F120      1.0  0.34970  0.80430  0.86542  1.0000
  F   F121      1.0  0.59781  0.31798  0.38007  1.0000
  F   F122      1.0  0.59923  0.30719  0.86239  1.0000
  F   F123      1.0  0.59788  0.80015  0.37741  1.0000
  F   F124      1.0  0.59293  0.80195  0.88361  1.0000
  F   F125      1.0  0.85321  0.31548  0.35287  1.0000
  F   F126      1.0  0.84708  0.31064  0.87174  1.0000
  F   F127      1.0  0.85203  0.81380  0.36009  1.0000
  F   F128      1.0  0.84843  0.80566  0.86415  1.0000
  F   F129      1.0  0.06354  0.25106  0.14480  1.0000
  F   F130      1.0  0.06820  0.24895  0.64051  1.0000
  F   F131      1.0  0.06420  0.74889  0.13818  1.0000
  F   F132      1.0  0.07240  0.74903  0.62449  1.0000
  F   F133      1.0  0.31717  0.24624  0.14183  1.0000
  F   F134      1.0  0.30903  0.24310  0.65729  1.0000
  F   F135      1.0  0.32342  0.74360  0.15296  1.0000
  F   F136      1.0  0.31794  0.74802  0.63834  1.0000
  F   F137      1.0  0.55928  0.24185  0.14606  1.0000
  F   F138      1.0  0.55338  0.24844  0.66769  1.0000
  F   F139      1.0  0.55835  0.75000  0.13758  1.0000
  F   F140      1.0  0.56387  0.75111  0.64272  1.0000
  F   F141      1.0  0.81222  0.23752  0.14057  1.0000
  F   F142      1.0  0.81975  0.26352  0.61968  1.0000
  F   F143      1.0  0.80062  0.74833  0.16478  1.0000
  F   F144      1.0  0.81132  0.75522  0.64590  1.0000
  F   F145      1.0  0.12053  0.35851  0.13194  1.0000
  F   F146      1.0  0.12177  0.36054  0.60843  1.0000
  F   F147      1.0  0.12198  0.86217  0.09634  1.0000
  F   F148      1.0  0.12247  0.87696  0.61079  1.0000
  F   F149      1.0  0.37236  0.34833  0.12729  1.0000
  F   F150      1.0  0.37392  0.36565  0.60394  1.0000
  F   F151      1.0  0.37639  0.86114  0.11198  1.0000
  F   F152      1.0  0.37706  0.86241  0.60991  1.0000
  F   F153      1.0  0.62376  0.34680  0.11665  1.0000
  F   F154      1.0  0.62381  0.35842  0.62601  1.0000
  F   F155      1.0  0.61724  0.85414  0.12709  1.0000
  F   F156      1.0  0.62753  0.86824  0.59397  1.0000
  F   F157      1.0  0.87564  0.36710  0.11488  1.0000
  F   F158      1.0  0.87795  0.37895  0.59102  1.0000
  F   F159      1.0  0.87475  0.89182  0.09791  1.0000
  F   F160      1.0  0.87233  0.86779  0.61336  1.0000
  F   F161      1.0  0.17393  0.23665  0.37893  1.0000
  F   F162      1.0  0.18648  0.24363  0.87483  1.0000
  F   F163      1.0  0.18325  0.73398  0.37150  1.0000
  F   F164      1.0  0.17161  0.74600  0.87904  1.0000
  F   F165      1.0  0.43820  0.24628  0.37123  1.0000
  F   F166      1.0  0.44293  0.25923  0.83794  1.0000
  F   F167      1.0  0.43550  0.74587  0.35674  1.0000
  F   F168      1.0  0.43012  0.74047  0.87286  1.0000
  F   F169      1.0  0.69361  0.26117  0.34084  1.0000
  F   F170      1.0  0.68885  0.23905  0.85879  1.0000
  F   F171      1.0  0.68681  0.75116  0.35215  1.0000
  F   F172      1.0  0.68893  0.75380  0.84810  1.0000
  F   F173      1.0  0.93350  0.25850  0.34895  1.0000
  F   F174      1.0  0.93685  0.24662  0.86873  1.0000
  F   F175      1.0  0.94355  0.75565  0.33509  1.0000
  F   F176      1.0  0.93066  0.75099  0.86094  1.0000
  F   F177      1.0  0.12053  0.13635  0.37639  1.0000
  F   F178      1.0  0.12723  0.15150  0.88023  1.0000
  F   F179      1.0  0.12497  0.61335  0.41072  1.0000
  F   F180      1.0  0.13222  0.63606  0.86817  1.0000
  F   F181      1.0  0.37696  0.13011  0.39239  1.0000
  F   F182      1.0  0.38240  0.13100  0.89415  1.0000
  F   F183      1.0  0.37612  0.63006  0.39580  1.0000
  F   F184      1.0  0.37463  0.60561  0.91471  1.0000
  F   F185      1.0  0.63162  0.16494  0.35809  1.0000
  F   F186      1.0  0.62949  0.15643  0.86425  1.0000
  F   F187      1.0  0.62610  0.64231  0.38578  1.0000
  F   F188      1.0  0.63042  0.64528  0.88346  1.0000
  F   F189      1.0  0.87026  0.13006  0.40417  1.0000
  F   F190      1.0  0.87457  0.16440  0.86855  1.0000
  F   F191      1.0  0.87658  0.65077  0.38009  1.0000
  F   F192      1.0  0.87527  0.63942  0.87921  1.0000
  F   F193      1.0  0.01297  0.38372  0.05934  1.0000
  F   F194      1.0  0.00276  0.35788  0.59359  1.0000
  F   F195      1.0  0.00576  0.86463  0.07864  1.0000
  F   F196      1.0  0.00413  0.86636  0.59174  1.0000
  F   F197      1.0  0.26144  0.35195  0.06213  1.0000
  F   F198      1.0  0.25882  0.36880  0.55933  1.0000
  F   F199      1.0  0.26165  0.84093  0.07656  1.0000
  F   F200      1.0  0.25835  0.86441  0.56900  1.0000
  F   F201      1.0  0.50386  0.35529  0.09370  1.0000
  F   F202      1.0  0.51252  0.35827  0.55314  1.0000
  F   F203      1.0  0.50332  0.86211  0.07893  1.0000
  F   F204      1.0  0.51008  0.88080  0.56329  1.0000
  F   F205      1.0  0.75631  0.35447  0.09380  1.0000
  F   F206      1.0  0.75363  0.37441  0.58370  1.0000
  F   F207      1.0  0.75622  0.88138  0.06828  1.0000
  F   F208      1.0  0.75499  0.86537  0.58379  1.0000
  F   F209      1.0  0.06926  0.49096  0.17088  1.0000
  F   F210      1.0  0.06652  0.48223  0.67504  1.0000
  F   F211      1.0  0.07312  0.99038  0.15826  1.0000
  F   F212      1.0  0.06708  0.97812  0.70177  1.0000
  F   F213      1.0  0.32696  0.47554  0.15520  1.0000
  F   F214      1.0  0.32064  0.48529  0.66929  1.0000
  F   F215      1.0  0.31470  0.98309  0.17106  1.0000
  F   F216      1.0  0.32220  0.98096  0.68011  1.0000
  F   F217      1.0  0.57861  0.47864  0.15885  1.0000
  F   F218      1.0  0.57038  0.49035  0.66685  1.0000
  F   F219      1.0  0.57228  0.98751  0.15847  1.0000
  F   F220      1.0  0.56966  0.97790  0.68447  1.0000
  F   F221      1.0  0.81630  0.48049  0.18296  1.0000
  F   F222      1.0  0.81986  0.49462  0.67200  1.0000
  F   F223      1.0  0.81133  0.98287  0.18337  1.0000
  F   F224      1.0  0.82451  0.99175  0.66552  1.0000
  F   F225      1.0  0.23632  0.13070  0.43494  1.0000
  F   F226      1.0  0.24436  0.12205  0.93174  1.0000
  F   F227      1.0  0.24848  0.63259  0.41648  1.0000
  F   F228      1.0  0.24259  0.64831  0.91306  1.0000
  F   F229      1.0  0.49802  0.12279  0.41868  1.0000
  F   F230      1.0  0.49389  0.13035  0.92802  1.0000
  F   F231      1.0  0.49598  0.63238  0.40957  1.0000
  F   F232      1.0  0.49644  0.63350  0.91947  1.0000
  F   F233      1.0  0.73763  0.14285  0.42804  1.0000
  F   F234      1.0  0.74386  0.13460  0.92662  1.0000
  F   F235      1.0  0.74055  0.64169  0.43172  1.0000
  F   F236      1.0  0.74043  0.63789  0.93356  1.0000
  F   F237      1.0  0.98644  0.14000  0.43774  1.0000
  F   F238      1.0  0.99454  0.13311  0.93523  1.0000
  F   F239      1.0  0.99475  0.63013  0.42865  1.0000
  F   F240      1.0  0.98824  0.63837  0.93582  1.0000
  F   F241      1.0  0.18068  0.01755  0.32470  1.0000
  F   F242      1.0  0.18770  0.02317  0.82753  1.0000
  F   F243      1.0  0.18277  0.49926  0.32630  1.0000
  F   F244      1.0  0.18392  0.52238  0.80711  1.0000
  F   F245      1.0  0.42607  0.00743  0.33557  1.0000
  F   F246      1.0  0.43239  0.01765  0.81563  1.0000
  F   F247      1.0  0.42603  0.52268  0.31892  1.0000
  F   F248      1.0  0.43723  0.51408  0.81691  1.0000
  F   F249      1.0  0.67577  0.01148  0.34129  1.0000
  F   F250      1.0  0.67532  0.01233  0.83450  1.0000
  F   F251      1.0  0.67787  0.52605  0.32016  1.0000
  F   F252      1.0  0.67592  0.50569  0.82979  1.0000
  F   F253      1.0  0.92785  0.02147  0.32089  1.0000
  F   F254      1.0  0.91960  0.03096  0.83361  1.0000
  F   F255      1.0  0.92611  0.51727  0.33474  1.0000
  F   F256      1.0  0.92711  0.52069  0.81615  1.0000
  F   F257      1.0  0.99970  0.25399  0.99319  1.0000
  F   F258      1.0  0.99953  0.26529  0.49285  1.0000
  F   F259      1.0  0.99646  0.76109  0.99128  1.0000
  F   F260      1.0  0.99999  0.77303  0.48437  1.0000
  F   F261      1.0  0.24194  0.22181  0.01917  1.0000
  F   F262      1.0  0.24621  0.23159  0.51125  1.0000
  F   F263      1.0  0.25383  0.74741  0.99546  1.0000
  F   F264      1.0  0.24557  0.73445  0.51028  1.0000
  F   F265      1.0  0.50080  0.24450  0.01156  1.0000
  F   F266      1.0  0.49857  0.24318  0.48442  1.0000
  F   F267      1.0  0.49823  0.74525  0.99775  1.0000
  F   F268      1.0  0.50028  0.73601  0.51195  1.0000
  F   F269      1.0  0.75612  0.28435  0.97417  1.0000
  F   F270      1.0  0.75436  0.27677  0.47140  1.0000
  F   F271      1.0  0.75331  0.77135  0.98353  1.0000
  F   F272      1.0  0.75448  0.75118  0.49973  1.0000
  F   F273      1.0  0.12583  0.98958  0.24565  1.0000
  F   F274      1.0  0.13325  0.00719  0.74226  1.0000
  F   F275      1.0  0.12302  0.50018  0.25177  1.0000
  F   F276      1.0  0.12799  0.50219  0.74192  1.0000
  F   F277      1.0  0.37234  0.98854  0.25092  1.0000
  F   F278      1.0  0.37474  0.99604  0.75538  1.0000
  F   F279      1.0  0.36738  0.47678  0.26769  1.0000
  F   F280      1.0  0.38052  0.50340  0.74686  1.0000
  F   F281      1.0  0.62734  0.99983  0.24224  1.0000
  F   F282      1.0  0.62478  0.99125  0.74606  1.0000
  F   F283      1.0  0.62492  0.49591  0.24313  1.0000
  F   F284      1.0  0.62380  0.49497  0.74528  1.0000
  F   F285      1.0  0.86443  0.99904  0.26561  1.0000
  F   F286      1.0  0.88109  0.01010  0.73417  1.0000
  F   F287      1.0  0.88453  0.50589  0.22716  1.0000
  F   F288      1.0  0.87545  0.51755  0.75585  1.0000
  F   F289      1.0  0.05466  0.02895  0.00636  1.0000
  F   F290      1.0  0.04393  0.04059  0.53724  1.0000
  F   F291      1.0  0.04231  0.54131  0.02486  1.0000
  F   F292      1.0  0.04483  0.53193  0.52638  1.0000
  F   F293      1.0  0.29320  0.02756  0.02142  1.0000
  F   F294      1.0  0.29546  0.03475  0.52912  1.0000
  F   F295      1.0  0.29568  0.53810  0.00558  1.0000
  F   F296      1.0  0.30016  0.52461  0.51174  1.0000
  F   F297      1.0  0.54569  0.03218  0.00752  1.0000
  F   F298      1.0  0.55337  0.04218  0.51172  1.0000
  F   F299      1.0  0.54855  0.52113  0.01828  1.0000
  F   F300      1.0  0.53565  0.53406  0.52209  1.0000
  F   F301      1.0  0.80730  0.02368  0.00395  1.0000
  F   F302      1.0  0.78870  0.03806  0.51971  1.0000
  F   F303      1.0  0.79872  0.53282  0.01544  1.0000
  F   F304      1.0  0.79894  0.53678  0.51684  1.0000
  F   F305      1.0  0.23392  0.42844  0.20690  1.0000
  F   F306      1.0  0.23774  0.40363  0.73059  1.0000
  F   F307      1.0  0.23195  0.90953  0.22633  1.0000
  F   F308      1.0  0.23532  0.90115  0.73951  1.0000
  F   F309      1.0  0.47967  0.42913  0.22674  1.0000
  F   F310      1.0  0.48520  0.41170  0.72182  1.0000
  F   F311      1.0  0.48561  0.90918  0.22325  1.0000
  F   F312      1.0  0.48735  0.91200  0.71880  1.0000
  F   F313      1.0  0.73820  0.43717  0.20771  1.0000
  F   F314      1.0  0.73769  0.41403  0.72002  1.0000
  F   F315      1.0  0.73062  0.92771  0.22387  1.0000
  F   F316      1.0  0.73210  0.92529  0.72571  1.0000
  F   F317      1.0  0.98764  0.42628  0.22201  1.0000
  F   F318      1.0  0.98880  0.40654  0.73555  1.0000
  F   F319      1.0  0.98055  0.92886  0.21994  1.0000
  F   F320      1.0  0.98449  0.93357  0.72549  1.0000
  F   F321      1.0  0.19727  0.47695  0.48856  1.0000
  F   F322      1.0  0.20826  0.46581  0.98586  1.0000
  F   F323      1.0  0.20456  0.96779  0.48946  1.0000
  F   F324      1.0  0.20771  0.96101  0.99295  1.0000
  F   F325      1.0  0.45371  0.46828  0.47733  1.0000
  F   F326      1.0  0.45845  0.45321  0.97458  1.0000
  F   F327      1.0  0.45462  0.96893  0.48408  1.0000
  F   F328      1.0  0.44711  0.97913  0.99309  1.0000
  F   F329      1.0  0.69593  0.47396  0.49060  1.0000
  F   F330      1.0  0.70152  0.46293  0.99058  1.0000
  F   F331      1.0  0.70473  0.95971  0.48655  1.0000
  F   F332      1.0  0.70595  0.96765  0.97548  1.0000
  F   F333      1.0  0.96123  0.46763  0.47123  1.0000
  F   F334      1.0  0.95771  0.47354  0.96564  1.0000
  F   F335      1.0  0.95001  0.97697  0.47473  1.0000
  F   F336      1.0  0.96442  0.96316  0.97414  1.0000
  F   F337      1.0  0.01223  0.08253  0.27633  1.0000
  F   F338      1.0  0.01191  0.07746  0.78740  1.0000
  F   F339      1.0  0.00741  0.59515  0.27238  1.0000
  F   F340      1.0  0.00915  0.59256  0.76621  1.0000
  F   F341      1.0  0.26468  0.07618  0.28822  1.0000
  F   F342      1.0  0.27187  0.07115  0.78680  1.0000
  F   F343      1.0  0.26881  0.57225  0.27771  1.0000
  F   F344      1.0  0.27176  0.57810  0.77478  1.0000
  F   F345      1.0  0.51656  0.06373  0.27480  1.0000
  F   F346      1.0  0.51889  0.08130  0.76796  1.0000
  F   F347      1.0  0.51467  0.57024  0.27404  1.0000
  F   F348      1.0  0.51556  0.57425  0.77838  1.0000
  F   F349      1.0  0.76852  0.07879  0.28980  1.0000
  F   F350      1.0  0.76385  0.06864  0.78548  1.0000
  F   F351      1.0  0.75956  0.59259  0.27166  1.0000
  F   F352      1.0  0.76131  0.58718  0.77257  1.0000
  F   F353      1.0  0.10289  0.41279  0.45097  1.0000
  F   F354      1.0  0.10513  0.44095  0.95467  1.0000
  F   F355      1.0  0.10129  0.90679  0.46233  1.0000
  F   F356      1.0  0.10216  0.89939  0.94532  1.0000
  F   F357      1.0  0.35325  0.39458  0.46166  1.0000
  F   F358      1.0  0.35101  0.41863  0.95542  1.0000
  F   F359      1.0  0.34264  0.89971  0.47768  1.0000
  F   F360      1.0  0.35644  0.90390  0.95542  1.0000
  F   F361      1.0  0.59607  0.41070  0.47209  1.0000
  F   F362      1.0  0.59797  0.39181  0.96579  1.0000
  F   F363      1.0  0.60007  0.91717  0.45146  1.0000
  F   F364      1.0  0.60006  0.89475  0.97048  1.0000
  F   F365      1.0  0.85228  0.41189  0.44366  1.0000
  F   F366      1.0  0.85674  0.40656  0.96768  1.0000
  F   F367      1.0  0.84998  0.91451  0.46347  1.0000
  F   F368      1.0  0.84340  0.89133  0.95847  1.0000
  F   F369      1.0  0.04216  0.29880  0.28989  1.0000
  F   F370      1.0  0.05958  0.29273  0.78743  1.0000
  F   F371      1.0  0.03984  0.79684  0.29326  1.0000
  F   F372      1.0  0.04187  0.79328  0.77601  1.0000
  F   F373      1.0  0.28415  0.28879  0.29353  1.0000
  F   F374      1.0  0.29321  0.29568  0.81139  1.0000
  F   F375      1.0  0.29690  0.79778  0.29646  1.0000
  F   F376      1.0  0.30043  0.79162  0.78444  1.0000
  F   F377      1.0  0.53956  0.30876  0.28247  1.0000
  F   F378      1.0  0.54533  0.30122  0.79892  1.0000
  F   F379      1.0  0.54311  0.79251  0.29502  1.0000
  F   F380      1.0  0.55133  0.79500  0.78255  1.0000
  F   F381      1.0  0.79035  0.28787  0.28797  1.0000
  F   F382      1.0  0.79813  0.30204  0.76738  1.0000
  F   F383      1.0  0.79357  0.80715  0.29380  1.0000
  F   F384      1.0  0.78941  0.80139  0.78821  1.0000
