data_image0
_chemical_formula_structural       Hf96F384
_chemical_formula_sum              "Hf96 F384"
_cell_length_a       31.0266
_cell_length_b       15.5113
_cell_length_c       15.5033
_cell_angle_alpha    63.342
_cell_angle_beta     63.342
_cell_angle_gamma    80.1625

_space_group_name_H-M_alt    "P 1"
_space_group_IT_number       1

loop_
  _space_group_symop_operation_xyz
  'x, y, z'

loop_
  _atom_site_type_symbol
  _atom_site_label
  _atom_site_symmetry_multiplicity
  _atom_site_fract_x
  _atom_site_fract_y
  _atom_site_fract_z
  _atom_site_occupancy
  Hf  Hf1       1.0  0.19283  0.10473  0.37513  1.0000
  Hf  Hf2       1.0  0.19517  0.10404  0.87513  1.0000
  Hf  Hf3       1.0  0.19751  0.60791  0.37855  1.0000
  Hf  Hf4       1.0  0.19391  0.60078  0.88032  1.0000
  Hf  Hf5       1.0  0.44222  0.10098  0.37780  1.0000
  Hf  Hf6       1.0  0.44659  0.10721  0.87149  1.0000
  Hf  Hf7       1.0  0.44496  0.60193  0.37606  1.0000
  Hf  Hf8       1.0  0.44871  0.60123  0.87137  1.0000
  Hf  Hf9       1.0  0.69809  0.11248  0.36984  1.0000
  Hf  Hf10      1.0  0.69663  0.11162  0.87508  1.0000
  Hf  Hf11      1.0  0.69950  0.60895  0.36912  1.0000
  Hf  Hf12      1.0  0.70006  0.61134  0.86173  1.0000
  Hf  Hf13      1.0  0.94695  0.11216  0.37098  1.0000
  Hf  Hf14      1.0  0.94621  0.10514  0.87339  1.0000
  Hf  Hf15      1.0  0.94895  0.59777  0.37858  1.0000
  Hf  Hf16      1.0  0.94801  0.60853  0.87811  1.0000
  Hf  Hf17      1.0  0.05179  0.39082  0.12859  1.0000
  Hf  Hf18      1.0  0.04939  0.38948  0.62984  1.0000
  Hf  Hf19      1.0  0.05047  0.88109  0.13560  1.0000
  Hf  Hf20      1.0  0.05756  0.89075  0.61926  1.0000
  Hf  Hf21      1.0  0.30292  0.39402  0.12142  1.0000
  Hf  Hf22      1.0  0.30310  0.39515  0.62288  1.0000
  Hf  Hf23      1.0  0.30352  0.89104  0.12937  1.0000
  Hf  Hf24      1.0  0.30204  0.89218  0.63880  1.0000
  Hf  Hf25      1.0  0.55506  0.39450  0.11731  1.0000
  Hf  Hf26      1.0  0.55320  0.39022  0.62752  1.0000
  Hf  Hf27      1.0  0.55637  0.89342  0.11223  1.0000
  Hf  Hf28      1.0  0.55598  0.89685  0.61336  1.0000
  Hf  Hf29      1.0  0.80152  0.40114  0.12105  1.0000
  Hf  Hf30      1.0  0.80164  0.39017  0.62750  1.0000
  Hf  Hf31      1.0  0.80477  0.89484  0.12389  1.0000
  Hf  Hf32      1.0  0.80445  0.89398  0.62125  1.0000
  Hf  Hf33      1.0  0.05596  0.17697  0.42345  1.0000
  Hf  Hf34      1.0  0.05349  0.17900  0.92549  1.0000
  Hf  Hf35      1.0  0.05654  0.68123  0.42227  1.0000
  Hf  Hf36      1.0  0.05720  0.67999  0.91852  1.0000
  Hf  Hf37      1.0  0.30162  0.18257  0.42454  1.0000
  Hf  Hf38      1.0  0.30500  0.18147  0.91832  1.0000
  Hf  Hf39      1.0  0.30554  0.68581  0.41570  1.0000
  Hf  Hf40      1.0  0.30589  0.67932  0.92031  1.0000
  Hf  Hf41      1.0  0.55492  0.19255  0.40708  1.0000
  Hf  Hf42      1.0  0.55324  0.17863  0.92277  1.0000
  Hf  Hf43      1.0  0.55415  0.67605  0.42034  1.0000
  Hf  Hf44      1.0  0.55797  0.68907  0.90826  1.0000
  Hf  Hf45      1.0  0.80586  0.18296  0.41982  1.0000
  Hf  Hf46      1.0  0.80741  0.18506  0.91674  1.0000
  Hf  Hf47      1.0  0.80359  0.67969  0.42071  1.0000
  Hf  Hf48      1.0  0.80913  0.68705  0.91543  1.0000
  Hf  Hf49      1.0  0.15717  0.38432  0.33344  1.0000
  Hf  Hf50      1.0  0.15748  0.38485  0.83775  1.0000
  Hf  Hf51      1.0  0.16134  0.89211  0.32802  1.0000
  Hf  Hf52      1.0  0.15684  0.87871  0.84622  1.0000
  Hf  Hf53      1.0  0.40676  0.38316  0.33128  1.0000
  Hf  Hf54      1.0  0.40883  0.38550  0.83036  1.0000
  Hf  Hf55      1.0  0.41097  0.88405  0.33015  1.0000
  Hf  Hf56      1.0  0.41158  0.88179  0.82640  1.0000
  Hf  Hf57      1.0  0.65808  0.39104  0.33720  1.0000
  Hf  Hf58      1.0  0.65926  0.39270  0.82720  1.0000
  Hf  Hf59      1.0  0.66087  0.88419  0.33139  1.0000
  Hf  Hf60      1.0  0.65933  0.89212  0.83061  1.0000
  Hf  Hf61      1.0  0.90583  0.38418  0.34270  1.0000
  Hf  Hf62      1.0  0.90606  0.39345  0.83375  1.0000
  Hf  Hf63      1.0  0.90774  0.88731  0.33217  1.0000
  Hf  Hf64      1.0  0.90757  0.88957  0.83302  1.0000
  Hf  Hf65      1.0  0.18969  0.31386  0.08403  1.0000
  Hf  Hf66      1.0  0.18923  0.31980  0.58849  1.0000
  Hf  Hf67      1.0  0.19487  0.81445  0.08365  1.0000
  Hf  Hf68      1.0  0.19401  0.81224  0.60110  1.0000
  Hf  Hf69      1.0  0.44448  0.31959  0.08240  1.0000
  Hf  Hf70      1.0  0.44562  0.31955  0.57933  1.0000
  Hf  Hf71      1.0  0.44232  0.81564  0.08278  1.0000
  Hf  Hf72      1.0  0.44292  0.82267  0.57971  1.0000
  Hf  Hf73      1.0  0.69131  0.31575  0.09027  1.0000
  Hf  Hf74      1.0  0.69157  0.31663  0.58382  1.0000
  Hf  Hf75      1.0  0.69656  0.81993  0.08190  1.0000
  Hf  Hf76      1.0  0.69589  0.82665  0.57468  1.0000
  Hf  Hf77      1.0  0.94274  0.32203  0.08585  1.0000
  Hf  Hf78      1.0  0.94428  0.31862  0.58095  1.0000
  Hf  Hf79      1.0  0.94558  0.82039  0.08394  1.0000
  Hf  Hf80      1.0  0.94316  0.81516  0.58286  1.0000
  Hf  Hf81      1.0  0.09063  0.11777  0.16250  1.0000
  Hf  Hf82      1.0  0.09156  0.10675  0.67323  1.0000
  Hf  Hf83      1.0  0.08943  0.60803  0.17411  1.0000
  Hf  Hf84      1.0  0.09214  0.60731  0.67041  1.0000
  Hf  Hf85      1.0  0.34157  0.10596  0.17352  1.0000
  Hf  Hf86      1.0  0.34029  0.11311  0.67095  1.0000
  Hf  Hf87      1.0  0.34117  0.61441  0.16384  1.0000
  Hf  Hf88      1.0  0.34157  0.61674  0.66764  1.0000
  Hf  Hf89      1.0  0.59232  0.11565  0.15857  1.0000
  Hf  Hf90      1.0  0.59057  0.11445  0.66054  1.0000
  Hf  Hf91      1.0  0.59141  0.60941  0.16479  1.0000
  Hf  Hf92      1.0  0.59399  0.61554  0.66200  1.0000
  Hf  Hf93      1.0  0.84010  0.11281  0.16668  1.0000
  Hf  Hf94      1.0  0.84059  0.11782  0.67048  1.0000
  Hf  Hf95      1.0  0.84408  0.61396  0.16581  1.0000
  Hf  Hf96      1.0  0.84273  0.61116  0.66015  1.0000
  F   F1        1.0  0.07921  0.13447  0.30609  1.0000
  F   F2        1.0  0.07565  0.10657  0.82211  1.0000
  F   F3        1.0  0.07545  0.61904  0.31448  1.0000
  F   F4        1.0  0.07778  0.60636  0.81352  1.0000
  F   F5        1.0  0.33151  0.13486  0.30235  1.0000
  F   F6        1.0  0.32719  0.13170  0.80257  1.0000
  F   F7        1.0  0.33162  0.62420  0.30048  1.0000
  F   F8        1.0  0.33379  0.62118  0.81103  1.0000
  F   F9        1.0  0.57620  0.14451  0.28667  1.0000
  F   F10       1.0  0.58178  0.13788  0.79931  1.0000
  F   F11       1.0  0.57417  0.61105  0.32202  1.0000
  F   F12       1.0  0.58018  0.62143  0.80423  1.0000
  F   F13       1.0  0.83620  0.13644  0.29957  1.0000
  F   F14       1.0  0.82795  0.14059  0.79973  1.0000
  F   F15       1.0  0.83305  0.63180  0.29787  1.0000
  F   F16       1.0  0.82744  0.63114  0.79918  1.0000
  F   F17       1.0  0.17858  0.33034  0.45431  1.0000
  F   F18       1.0  0.18346  0.33959  0.95110  1.0000
  F   F19       1.0  0.18873  0.84185  0.44273  1.0000
  F   F20       1.0  0.18531  0.84003  0.95376  1.0000
  F   F21       1.0  0.43091  0.33880  0.45131  1.0000
  F   F22       1.0  0.43388  0.35146  0.94022  1.0000
  F   F23       1.0  0.44227  0.84577  0.43895  1.0000
  F   F24       1.0  0.44120  0.84109  0.94298  1.0000
  F   F25       1.0  0.69259  0.35269  0.43432  1.0000
  F   F26       1.0  0.68436  0.33774  0.94935  1.0000
  F   F27       1.0  0.69347  0.84442  0.43165  1.0000
  F   F28       1.0  0.68719  0.83540  0.93709  1.0000
  F   F29       1.0  0.94440  0.33404  0.44035  1.0000
  F   F30       1.0  0.93006  0.35692  0.94899  1.0000
  F   F31       1.0  0.92732  0.83280  0.45563  1.0000
  F   F32       1.0  0.94557  0.84806  0.93754  1.0000
  F   F33       1.0  0.16521  0.36369  0.19859  1.0000
  F   F34       1.0  0.16305  0.36504  0.70599  1.0000
  F   F35       1.0  0.17220  0.87435  0.19572  1.0000
  F   F36       1.0  0.17647  0.88389  0.69486  1.0000
  F   F37       1.0  0.41868  0.38032  0.19761  1.0000
  F   F38       1.0  0.42157  0.37382  0.68974  1.0000
  F   F39       1.0  0.42091  0.87059  0.19877  1.0000
  F   F40       1.0  0.42841  0.89533  0.67930  1.0000
  F   F41       1.0  0.66612  0.36200  0.20112  1.0000
  F   F42       1.0  0.67138  0.37902  0.68860  1.0000
  F   F43       1.0  0.67498  0.87695  0.18412  1.0000
  F   F44       1.0  0.67058  0.88803  0.68405  1.0000
  F   F45       1.0  0.91791  0.36068  0.20115  1.0000
  F   F46       1.0  0.92122  0.37503  0.68966  1.0000
  F   F47       1.0  0.92934  0.88546  0.18823  1.0000
  F   F48       1.0  0.91346  0.85958  0.71005  1.0000
  F   F49       1.0  0.05615  0.16759  0.05947  1.0000
  F   F50       1.0  0.06474  0.15018  0.55507  1.0000
  F   F51       1.0  0.07329  0.66697  0.04128  1.0000
  F   F52       1.0  0.06683  0.65265  0.55402  1.0000
  F   F53       1.0  0.30961  0.16235  0.06077  1.0000
  F   F54       1.0  0.31265  0.17330  0.55540  1.0000
  F   F55       1.0  0.31707  0.66703  0.04474  1.0000
  F   F56       1.0  0.31954  0.67278  0.54275  1.0000
  F   F57       1.0  0.56113  0.15486  0.05819  1.0000
  F   F58       1.0  0.56678  0.15730  0.54542  1.0000
  F   F59       1.0  0.56284  0.66763  0.04236  1.0000
  F   F60       1.0  0.56968  0.66366  0.54877  1.0000
  F   F61       1.0  0.80856  0.16467  0.06202  1.0000
  F   F62       1.0  0.80898  0.15384  0.55573  1.0000
  F   F63       1.0  0.81058  0.66143  0.05837  1.0000
  F   F64       1.0  0.81401  0.66937  0.54626  1.0000
  F   F65       1.0  0.19974  0.19475  0.21997  1.0000
  F   F66       1.0  0.19876  0.18826  0.72325  1.0000
  F   F67       1.0  0.20027  0.70556  0.20987  1.0000
  F   F68       1.0  0.21224  0.69968  0.71031  1.0000
  F   F69       1.0  0.44872  0.22045  0.21568  1.0000
  F   F70       1.0  0.45592  0.20555  0.70391  1.0000
  F   F71       1.0  0.45693  0.70588  0.20005  1.0000
  F   F72       1.0  0.44564  0.71408  0.71800  1.0000
  F   F73       1.0  0.71029  0.21143  0.20422  1.0000
  F   F74       1.0  0.70344  0.19833  0.71244  1.0000
  F   F75       1.0  0.71044  0.69786  0.21508  1.0000
  F   F76       1.0  0.70812  0.70147  0.69412  1.0000
  F   F77       1.0  0.95396  0.20160  0.21582  1.0000
  F   F78       1.0  0.95754  0.20365  0.70809  1.0000
  F   F79       1.0  0.95470  0.69771  0.21619  1.0000
  F   F80       1.0  0.95047  0.70324  0.72224  1.0000
  F   F81       1.0  0.14757  0.09862  0.04230  1.0000
  F   F82       1.0  0.14731  0.09927  0.54418  1.0000
  F   F83       1.0  0.15496  0.58236  0.02688  1.0000
  F   F84       1.0  0.14774  0.58963  0.53990  1.0000
  F   F85       1.0  0.39871  0.09112  0.03230  1.0000
  F   F86       1.0  0.39737  0.09939  0.54201  1.0000
  F   F87       1.0  0.40021  0.58370  0.05691  1.0000
  F   F88       1.0  0.40305  0.59896  0.52978  1.0000
  F   F89       1.0  0.65230  0.10911  0.03323  1.0000
  F   F90       1.0  0.64889  0.09267  0.53848  1.0000
  F   F91       1.0  0.64687  0.60984  0.03171  1.0000
  F   F92       1.0  0.65317  0.58956  0.53200  1.0000
  F   F93       1.0  0.89480  0.09571  0.04247  1.0000
  F   F94       1.0  0.89810  0.09464  0.55964  1.0000
  F   F95       1.0  0.89628  0.58809  0.03845  1.0000
  F   F96       1.0  0.89845  0.59283  0.54476  1.0000
  F   F97       1.0  0.15268  0.20316  0.12193  1.0000
  F   F98       1.0  0.14725  0.19965  0.63143  1.0000
  F   F99       1.0  0.14804  0.69895  0.11694  1.0000
  F   F100      1.0  0.15672  0.69337  0.63380  1.0000
  F   F101      1.0  0.40398  0.20279  0.12012  1.0000
  F   F102      1.0  0.39968  0.19362  0.63126  1.0000
  F   F103      1.0  0.39684  0.70861  0.12534  1.0000
  F   F104      1.0  0.40654  0.69589  0.61044  1.0000
  F   F105      1.0  0.65461  0.18946  0.13640  1.0000
  F   F106      1.0  0.65013  0.19673  0.61966  1.0000
  F   F107      1.0  0.66112  0.69344  0.13289  1.0000
  F   F108      1.0  0.65188  0.69514  0.61829  1.0000
  F   F109      1.0  0.90728  0.19563  0.11639  1.0000
  F   F110      1.0  0.89950  0.19992  0.64192  1.0000
  F   F111      1.0  0.90196  0.69772  0.12258  1.0000
  F   F112      1.0  0.90335  0.70414  0.61649  1.0000
  F   F113      1.0  0.10060  0.28557  0.37915  1.0000
  F   F114      1.0  0.09788  0.29523  0.88347  1.0000
  F   F115      1.0  0.09829  0.81789  0.38420  1.0000
  F   F116      1.0  0.09917  0.81060  0.86732  1.0000
  F   F117      1.0  0.34255  0.30497  0.37746  1.0000
  F   F118      1.0  0.34599  0.30488  0.88612  1.0000
  F   F119      1.0  0.34858  0.80368  0.37982  1.0000
  F   F120      1.0  0.35825  0.78751  0.85433  1.0000
  F   F121      1.0  0.59152  0.31269  0.37638  1.0000
  F   F122      1.0  0.60112  0.29897  0.87114  1.0000
  F   F123      1.0  0.60324  0.80983  0.35630  1.0000
  F   F124      1.0  0.60139  0.81108  0.86935  1.0000
  F   F125      1.0  0.84625  0.30263  0.39261  1.0000
  F   F126      1.0  0.85076  0.29626  0.88152  1.0000
  F   F127      1.0  0.85662  0.79287  0.36740  1.0000
  F   F128      1.0  0.85418  0.79597  0.88699  1.0000
  F   F129      1.0  0.06779  0.25441  0.13723  1.0000
  F   F130      1.0  0.06271  0.24557  0.65279  1.0000
  F   F131      1.0  0.05524  0.73335  0.16657  1.0000
  F   F132      1.0  0.07089  0.74648  0.64025  1.0000
  F   F133      1.0  0.31965  0.24938  0.14502  1.0000
  F   F134      1.0  0.30560  0.25226  0.65462  1.0000
  F   F135      1.0  0.31787  0.75140  0.14179  1.0000
  F   F136      1.0  0.31713  0.75355  0.64767  1.0000
  F   F137      1.0  0.56856  0.25143  0.13406  1.0000
  F   F138      1.0  0.56098  0.24689  0.64201  1.0000
  F   F139      1.0  0.56622  0.74868  0.13328  1.0000
  F   F140      1.0  0.55624  0.75165  0.65343  1.0000
  F   F141      1.0  0.81149  0.25863  0.14873  1.0000
  F   F142      1.0  0.81456  0.25245  0.64894  1.0000
  F   F143      1.0  0.82257  0.75309  0.12636  1.0000
  F   F144      1.0  0.80877  0.75242  0.64748  1.0000
  F   F145      1.0  0.12286  0.38131  0.09382  1.0000
  F   F146      1.0  0.11943  0.38681  0.59475  1.0000
  F   F147      1.0  0.12143  0.87475  0.09830  1.0000
  F   F148      1.0  0.12794  0.85394  0.62077  1.0000
  F   F149      1.0  0.37455  0.38913  0.10264  1.0000
  F   F150      1.0  0.37264  0.36624  0.61465  1.0000
  F   F151      1.0  0.37693  0.88425  0.09110  1.0000
  F   F152      1.0  0.37431  0.86565  0.61363  1.0000
  F   F153      1.0  0.62394  0.37176  0.10303  1.0000
  F   F154      1.0  0.62509  0.36657  0.60348  1.0000
  F   F155      1.0  0.62761  0.87306  0.09777  1.0000
  F   F156      1.0  0.62287  0.86569  0.59896  1.0000
  F   F157      1.0  0.87026  0.38305  0.09926  1.0000
  F   F158      1.0  0.87813  0.37148  0.60512  1.0000
  F   F159      1.0  0.87465  0.86525  0.11241  1.0000
  F   F160      1.0  0.87205  0.87943  0.60162  1.0000
  F   F161      1.0  0.18090  0.23864  0.36278  1.0000
  F   F162      1.0  0.18926  0.24478  0.86089  1.0000
  F   F163      1.0  0.19290  0.75200  0.34890  1.0000
  F   F164      1.0  0.18677  0.74598  0.86701  1.0000
  F   F165      1.0  0.42297  0.24289  0.36912  1.0000
  F   F166      1.0  0.43602  0.24921  0.84666  1.0000
  F   F167      1.0  0.44020  0.74481  0.34773  1.0000
  F   F168      1.0  0.42911  0.73846  0.87992  1.0000
  F   F169      1.0  0.67880  0.25133  0.36218  1.0000
  F   F170      1.0  0.69267  0.26677  0.83647  1.0000
  F   F171      1.0  0.68736  0.74508  0.36209  1.0000
  F   F172      1.0  0.69265  0.75581  0.83107  1.0000
  F   F173      1.0  0.93276  0.24812  0.36172  1.0000
  F   F174      1.0  0.93165  0.25321  0.86330  1.0000
  F   F175      1.0  0.94253  0.73651  0.35813  1.0000
  F   F176      1.0  0.93902  0.75151  0.85915  1.0000
  F   F177      1.0  0.12359  0.11890  0.40144  1.0000
  F   F178      1.0  0.12150  0.12221  0.90948  1.0000
  F   F179      1.0  0.12907  0.63545  0.38316  1.0000
  F   F180      1.0  0.12849  0.64818  0.86271  1.0000
  F   F181      1.0  0.37180  0.12864  0.39072  1.0000
  F   F182      1.0  0.37611  0.12880  0.89124  1.0000
  F   F183      1.0  0.37492  0.61851  0.38800  1.0000
  F   F184      1.0  0.37044  0.60665  0.92665  1.0000
  F   F185      1.0  0.62848  0.13469  0.38901  1.0000
  F   F186      1.0  0.62502  0.11149  0.91101  1.0000
  F   F187      1.0  0.63238  0.64418  0.37535  1.0000
  F   F188      1.0  0.62984  0.63030  0.88393  1.0000
  F   F189      1.0  0.87772  0.12763  0.40011  1.0000
  F   F190      1.0  0.87879  0.12832  0.88765  1.0000
  F   F191      1.0  0.87660  0.61464  0.40389  1.0000
  F   F192      1.0  0.87514  0.63609  0.89327  1.0000
  F   F193      1.0  0.00167  0.36492  0.07897  1.0000
  F   F194      1.0  0.01096  0.35015  0.57327  1.0000
  F   F195      1.0  0.00843  0.85726  0.07965  1.0000
  F   F196      1.0  0.00615  0.86270  0.57185  1.0000
  F   F197      1.0  0.25358  0.34712  0.08431  1.0000
  F   F198      1.0  0.24966  0.36518  0.58305  1.0000
  F   F199      1.0  0.26102  0.86819  0.06667  1.0000
  F   F200      1.0  0.26488  0.85597  0.57934  1.0000
  F   F201      1.0  0.51161  0.35813  0.07005  1.0000
  F   F202      1.0  0.50767  0.37479  0.56608  1.0000
  F   F203      1.0  0.51375  0.86560  0.05672  1.0000
  F   F204      1.0  0.50887  0.87282  0.56649  1.0000
  F   F205      1.0  0.75389  0.36460  0.07820  1.0000
  F   F206      1.0  0.76053  0.36864  0.55691  1.0000
  F   F207      1.0  0.76116  0.85522  0.07898  1.0000
  F   F208      1.0  0.75973  0.86611  0.55847  1.0000
  F   F209      1.0  0.06621  0.49598  0.16696  1.0000
  F   F210      1.0  0.05880  0.49090  0.68707  1.0000
  F   F211      1.0  0.06521  0.99549  0.18125  1.0000
  F   F212      1.0  0.08248  0.97498  0.65465  1.0000
  F   F213      1.0  0.31108  0.48905  0.18071  1.0000
  F   F214      1.0  0.32321  0.50051  0.65969  1.0000
  F   F215      1.0  0.31659  0.98245  0.18692  1.0000
  F   F216      1.0  0.32095  0.99393  0.66620  1.0000
  F   F217      1.0  0.56850  0.48293  0.17869  1.0000
  F   F218      1.0  0.56982  0.48570  0.67111  1.0000
  F   F219      1.0  0.57145  0.98719  0.16883  1.0000
  F   F220      1.0  0.56580  0.98476  0.67844  1.0000
  F   F221      1.0  0.80743  0.48702  0.18646  1.0000
  F   F222      1.0  0.81927  0.49211  0.66087  1.0000
  F   F223      1.0  0.81439  0.99195  0.17480  1.0000
  F   F224      1.0  0.81658  0.98807  0.68030  1.0000
  F   F225      1.0  0.24043  0.13369  0.43342  1.0000
  F   F226      1.0  0.24317  0.14209  0.93112  1.0000
  F   F227      1.0  0.23765  0.63807  0.44291  1.0000
  F   F228      1.0  0.24171  0.64433  0.92437  1.0000
  F   F229      1.0  0.49026  0.14378  0.41600  1.0000
  F   F230      1.0  0.49003  0.13453  0.93992  1.0000
  F   F231      1.0  0.48981  0.63163  0.43873  1.0000
  F   F232      1.0  0.49180  0.63463  0.92466  1.0000
  F   F233      1.0  0.74792  0.15482  0.40028  1.0000
  F   F234      1.0  0.73880  0.13837  0.93386  1.0000
  F   F235      1.0  0.74299  0.63683  0.42404  1.0000
  F   F236      1.0  0.74178  0.64028  0.92249  1.0000
  F   F237      1.0  0.98914  0.13154  0.42922  1.0000
  F   F238      1.0  0.98654  0.14405  0.92258  1.0000
  F   F239      1.0  0.99265  0.62986  0.43216  1.0000
  F   F240      1.0  0.98956  0.63685  0.93864  1.0000
  F   F241      1.0  0.19199  0.01568  0.31331  1.0000
  F   F242      1.0  0.17662  0.00825  0.83328  1.0000
  F   F243      1.0  0.18751  0.50450  0.33459  1.0000
  F   F244      1.0  0.18579  0.51130  0.81456  1.0000
  F   F245      1.0  0.43793  0.02023  0.31167  1.0000
  F   F246      1.0  0.42894  0.00458  0.82899  1.0000
  F   F247      1.0  0.44313  0.50988  0.30975  1.0000
  F   F248      1.0  0.42972  0.51962  0.81941  1.0000
  F   F249      1.0  0.68538  0.02068  0.32463  1.0000
  F   F250      1.0  0.68500  0.01549  0.82316  1.0000
  F   F251      1.0  0.68018  0.51060  0.32403  1.0000
  F   F252      1.0  0.67902  0.50762  0.83387  1.0000
  F   F253      1.0  0.93887  0.00995  0.31119  1.0000
  F   F254      1.0  0.93336  0.01082  0.81484  1.0000
  F   F255      1.0  0.93598  0.50641  0.32764  1.0000
  F   F256      1.0  0.93027  0.52361  0.81039  1.0000
  F   F257      1.0  0.99871  0.25895  0.99050  1.0000
  F   F258      1.0  0.00507  0.24856  0.49873  1.0000
  F   F259      1.0  0.00123  0.72817  0.02453  1.0000
  F   F260      1.0  0.99675  0.73871  0.51414  1.0000
  F   F261      1.0  0.24877  0.24293  0.00821  1.0000
  F   F262      1.0  0.24385  0.24710  0.50472  1.0000
  F   F263      1.0  0.25224  0.74922  0.99452  1.0000
  F   F264      1.0  0.25210  0.75199  0.50149  1.0000
  F   F265      1.0  0.50281  0.26190  0.99097  1.0000
  F   F266      1.0  0.49684  0.24218  0.50863  1.0000
  F   F267      1.0  0.49914  0.74489  0.99503  1.0000
  F   F268      1.0  0.49779  0.74614  0.51820  1.0000
  F   F269      1.0  0.75193  0.25177  0.99123  1.0000
  F   F270      1.0  0.74559  0.24602  0.51467  1.0000
  F   F271      1.0  0.75840  0.77463  0.98222  1.0000
  F   F272      1.0  0.75118  0.75310  0.49981  1.0000
  F   F273      1.0  0.12693  0.00600  0.25461  1.0000
  F   F274      1.0  0.13271  0.99485  0.74733  1.0000
  F   F275      1.0  0.12682  0.51048  0.24825  1.0000
  F   F276      1.0  0.13712  0.51074  0.73274  1.0000
  F   F277      1.0  0.38850  0.00534  0.23249  1.0000
  F   F278      1.0  0.36526  0.99202  0.76462  1.0000
  F   F279      1.0  0.37286  0.49927  0.26818  1.0000
  F   F280      1.0  0.37835  0.50285  0.75145  1.0000
  F   F281      1.0  0.62885  0.00351  0.24808  1.0000
  F   F282      1.0  0.62704  0.01614  0.74520  1.0000
  F   F283      1.0  0.63012  0.50598  0.23961  1.0000
  F   F284      1.0  0.63309  0.51419  0.73218  1.0000
  F   F285      1.0  0.86972  0.99366  0.25659  1.0000
  F   F286      1.0  0.86468  0.99153  0.76975  1.0000
  F   F287      1.0  0.87507  0.49696  0.25419  1.0000
  F   F288      1.0  0.87407  0.50216  0.74446  1.0000
  F   F289      1.0  0.03641  0.02561  0.03818  1.0000
  F   F290      1.0  0.04124  0.03016  0.53310  1.0000
  F   F291      1.0  0.04851  0.53316  0.01617  1.0000
  F   F292      1.0  0.04497  0.52300  0.52846  1.0000
  F   F293      1.0  0.29794  0.02155  0.02559  1.0000
  F   F294      1.0  0.29591  0.02957  0.52884  1.0000
  F   F295      1.0  0.28758  0.53422  0.01993  1.0000
  F   F296      1.0  0.29115  0.53466  0.52824  1.0000
  F   F297      1.0  0.54450  0.02978  0.01765  1.0000
  F   F298      1.0  0.54977  0.03822  0.50286  1.0000
  F   F299      1.0  0.54309  0.52639  0.03262  1.0000
  F   F300      1.0  0.55057  0.53162  0.51898  1.0000
  F   F301      1.0  0.78973  0.03775  0.01744  1.0000
  F   F302      1.0  0.79105  0.03071  0.51528  1.0000
  F   F303      1.0  0.79496  0.53889  0.01645  1.0000
  F   F304      1.0  0.79578  0.53949  0.51442  1.0000
  F   F305      1.0  0.23218  0.40423  0.23513  1.0000
  F   F306      1.0  0.23346  0.40642  0.73043  1.0000
  F   F307      1.0  0.23320  0.91910  0.21918  1.0000
  F   F308      1.0  0.23868  0.92473  0.72744  1.0000
  F   F309      1.0  0.48504  0.40289  0.21975  1.0000
  F   F310      1.0  0.48466  0.41203  0.72423  1.0000
  F   F311      1.0  0.49039  0.90904  0.21459  1.0000
  F   F312      1.0  0.48850  0.91501  0.72509  1.0000
  F   F313      1.0  0.73217  0.41848  0.22111  1.0000
  F   F314      1.0  0.73728  0.43635  0.70280  1.0000
  F   F315      1.0  0.73504  0.92089  0.21784  1.0000
  F   F316      1.0  0.73588  0.91826  0.71181  1.0000
  F   F317      1.0  0.98303  0.42301  0.21368  1.0000
  F   F318      1.0  0.98274  0.40628  0.72911  1.0000
  F   F319      1.0  0.99001  0.90687  0.23710  1.0000
  F   F320      1.0  0.98604  0.90142  0.72549  1.0000
  F   F321      1.0  0.20784  0.46420  0.47415  1.0000
  F   F322      1.0  0.21100  0.46187  0.97491  1.0000
  F   F323      1.0  0.20007  0.97258  0.48503  1.0000
  F   F324      1.0  0.20599  0.97303  0.98281  1.0000
  F   F325      1.0  0.45735  0.47076  0.46446  1.0000
  F   F326      1.0  0.45857  0.46349  0.97584  1.0000
  F   F327      1.0  0.45231  0.96695  0.47679  1.0000
  F   F328      1.0  0.46049  0.97339  0.96941  1.0000
  F   F329      1.0  0.71028  0.47325  0.46854  1.0000
  F   F330      1.0  0.70622  0.47009  0.97734  1.0000
  F   F331      1.0  0.70750  0.97193  0.47414  1.0000
  F   F332      1.0  0.70952  0.96427  0.97700  1.0000
  F   F333      1.0  0.95996  0.46738  0.48644  1.0000
  F   F334      1.0  0.96000  0.47495  0.97947  1.0000
  F   F335      1.0  0.94706  0.97035  0.47917  1.0000
  F   F336      1.0  0.95363  0.97147  0.97510  1.0000
  F   F337      1.0  0.01504  0.08688  0.28107  1.0000
  F   F338      1.0  0.01792  0.06053  0.78365  1.0000
  F   F339      1.0  0.01883  0.57660  0.28011  1.0000
  F   F340      1.0  0.01193  0.59245  0.77245  1.0000
  F   F341      1.0  0.26492  0.07944  0.28642  1.0000
  F   F342      1.0  0.26587  0.07628  0.78023  1.0000
  F   F343      1.0  0.26068  0.60300  0.26820  1.0000
  F   F344      1.0  0.26687  0.58415  0.78466  1.0000
  F   F345      1.0  0.51303  0.08278  0.26607  1.0000
  F   F346      1.0  0.51622  0.08337  0.77808  1.0000
  F   F347      1.0  0.51492  0.58884  0.27633  1.0000
  F   F348      1.0  0.51528  0.59126  0.76161  1.0000
  F   F349      1.0  0.76856  0.09038  0.27098  1.0000
  F   F350      1.0  0.76423  0.07853  0.78582  1.0000
  F   F351      1.0  0.77084  0.58938  0.27925  1.0000
  F   F352      1.0  0.76722  0.57555  0.77555  1.0000
  F   F353      1.0  0.09866  0.40868  0.44638  1.0000
  F   F354      1.0  0.09755  0.40717  0.95670  1.0000
  F   F355      1.0  0.10504  0.91840  0.46737  1.0000
  F   F356      1.0  0.09457  0.89224  0.97005  1.0000
  F   F357      1.0  0.34934  0.40850  0.46514  1.0000
  F   F358      1.0  0.34599  0.40856  0.96272  1.0000
  F   F359      1.0  0.36479  0.92088  0.44645  1.0000
  F   F360      1.0  0.35223  0.88563  0.95949  1.0000
  F   F361      1.0  0.60050  0.40143  0.46238  1.0000
  F   F362      1.0  0.60386  0.40490  0.95447  1.0000
  F   F363      1.0  0.60219  0.88520  0.46660  1.0000
  F   F364      1.0  0.60538  0.91438  0.95131  1.0000
  F   F365      1.0  0.85142  0.40696  0.47467  1.0000
  F   F366      1.0  0.85044  0.41936  0.95390  1.0000
  F   F367      1.0  0.84986  0.90886  0.45340  1.0000
  F   F368      1.0  0.85385  0.91705  0.95812  1.0000
  F   F369      1.0  0.04791  0.31059  0.28067  1.0000
  F   F370      1.0  0.04994  0.28852  0.79265  1.0000
  F   F371      1.0  0.05366  0.79622  0.29788  1.0000
  F   F372      1.0  0.04728  0.79573  0.79877  1.0000
  F   F373      1.0  0.29018  0.28875  0.29807  1.0000
  F   F374      1.0  0.29351  0.30909  0.79516  1.0000
  F   F375      1.0  0.29695  0.79874  0.28782  1.0000
  F   F376      1.0  0.29395  0.80270  0.79496  1.0000
  F   F377      1.0  0.54664  0.30983  0.28777  1.0000
  F   F378      1.0  0.54672  0.30203  0.78895  1.0000
  F   F379      1.0  0.55239  0.78442  0.28132  1.0000
  F   F380      1.0  0.55174  0.80274  0.78026  1.0000
  F   F381      1.0  0.79569  0.30809  0.31140  1.0000
  F   F382      1.0  0.79917  0.31234  0.77590  1.0000
  F   F383      1.0  0.79286  0.79945  0.29384  1.0000
  F   F384      1.0  0.79764  0.80775  0.78622  1.0000
