data_image0
_chemical_formula_structural       Hf96F384
_chemical_formula_sum              "Hf96 F384"
_cell_length_a       31.0435
_cell_length_b       15.5164
_cell_length_c       15.5108
_cell_angle_alpha    63.342
_cell_angle_beta     63.342
_cell_angle_gamma    80.1625

_space_group_name_H-M_alt    "P 1"
_space_group_IT_number       1

loop_
  _space_group_symop_operation_xyz
  'x, y, z'

loop_
  _atom_site_type_symbol
  _atom_site_label
  _atom_site_symmetry_multiplicity
  _atom_site_fract_x
  _atom_site_fract_y
  _atom_site_fract_z
  _atom_site_occupancy
  Hf  Hf1       1.0  0.19455  0.10575  0.37045  1.0000
  Hf  Hf2       1.0  0.20081  0.10407  0.87482  1.0000
  Hf  Hf3       1.0  0.19724  0.61448  0.37299  1.0000
  Hf  Hf4       1.0  0.19553  0.60924  0.87408  1.0000
  Hf  Hf5       1.0  0.44597  0.10485  0.38562  1.0000
  Hf  Hf6       1.0  0.44281  0.10066  0.88416  1.0000
  Hf  Hf7       1.0  0.44750  0.61560  0.37647  1.0000
  Hf  Hf8       1.0  0.44308  0.60135  0.88673  1.0000
  Hf  Hf9       1.0  0.69634  0.10495  0.37925  1.0000
  Hf  Hf10      1.0  0.69528  0.10377  0.87644  1.0000
  Hf  Hf11      1.0  0.69598  0.60777  0.37377  1.0000
  Hf  Hf12      1.0  0.69786  0.60576  0.87012  1.0000
  Hf  Hf13      1.0  0.94605  0.09737  0.37334  1.0000
  Hf  Hf14      1.0  0.94808  0.10512  0.87879  1.0000
  Hf  Hf15      1.0  0.94498  0.61030  0.36951  1.0000
  Hf  Hf16      1.0  0.94717  0.60853  0.86352  1.0000
  Hf  Hf17      1.0  0.05763  0.39769  0.12002  1.0000
  Hf  Hf18      1.0  0.05530  0.38595  0.62519  1.0000
  Hf  Hf19      1.0  0.05147  0.89649  0.12865  1.0000
  Hf  Hf20      1.0  0.05456  0.89497  0.61922  1.0000
  Hf  Hf21      1.0  0.30311  0.39674  0.12287  1.0000
  Hf  Hf22      1.0  0.30373  0.40002  0.62739  1.0000
  Hf  Hf23      1.0  0.30120  0.89617  0.12206  1.0000
  Hf  Hf24      1.0  0.30572  0.89955  0.61914  1.0000
  Hf  Hf25      1.0  0.55550  0.37921  0.13301  1.0000
  Hf  Hf26      1.0  0.55454  0.40086  0.61739  1.0000
  Hf  Hf27      1.0  0.55349  0.88593  0.11832  1.0000
  Hf  Hf28      1.0  0.54928  0.87960  0.64410  1.0000
  Hf  Hf29      1.0  0.80580  0.39346  0.11873  1.0000
  Hf  Hf30      1.0  0.80832  0.39097  0.61845  1.0000
  Hf  Hf31      1.0  0.80541  0.89226  0.12398  1.0000
  Hf  Hf32      1.0  0.80209  0.89609  0.62346  1.0000
  Hf  Hf33      1.0  0.05456  0.18319  0.41199  1.0000
  Hf  Hf34      1.0  0.05894  0.18305  0.91355  1.0000
  Hf  Hf35      1.0  0.05484  0.68012  0.42274  1.0000
  Hf  Hf36      1.0  0.05455  0.69062  0.91081  1.0000
  Hf  Hf37      1.0  0.30534  0.18519  0.41836  1.0000
  Hf  Hf38      1.0  0.30538  0.18339  0.91745  1.0000
  Hf  Hf39      1.0  0.30613  0.68289  0.41244  1.0000
  Hf  Hf40      1.0  0.30444  0.68110  0.91201  1.0000
  Hf  Hf41      1.0  0.55375  0.17638  0.42572  1.0000
  Hf  Hf42      1.0  0.55226  0.18618  0.91724  1.0000
  Hf  Hf43      1.0  0.55460  0.68186  0.42006  1.0000
  Hf  Hf44      1.0  0.55082  0.66086  0.94522  1.0000
  Hf  Hf45      1.0  0.80796  0.18868  0.41156  1.0000
  Hf  Hf46      1.0  0.81080  0.17926  0.90960  1.0000
  Hf  Hf47      1.0  0.80487  0.67965  0.41530  1.0000
  Hf  Hf48      1.0  0.80663  0.68502  0.91746  1.0000
  Hf  Hf49      1.0  0.15786  0.39251  0.33009  1.0000
  Hf  Hf50      1.0  0.16246  0.38824  0.82871  1.0000
  Hf  Hf51      1.0  0.15567  0.88592  0.33380  1.0000
  Hf  Hf52      1.0  0.16405  0.90304  0.81271  1.0000
  Hf  Hf53      1.0  0.41125  0.39656  0.33536  1.0000
  Hf  Hf54      1.0  0.40506  0.38832  0.83516  1.0000
  Hf  Hf55      1.0  0.40661  0.89380  0.33334  1.0000
  Hf  Hf56      1.0  0.40325  0.88186  0.84593  1.0000
  Hf  Hf57      1.0  0.65696  0.38749  0.33764  1.0000
  Hf  Hf58      1.0  0.66089  0.38279  0.84138  1.0000
  Hf  Hf59      1.0  0.65381  0.88348  0.34687  1.0000
  Hf  Hf60      1.0  0.65650  0.88329  0.83444  1.0000
  Hf  Hf61      1.0  0.90853  0.39136  0.33356  1.0000
  Hf  Hf62      1.0  0.91238  0.39409  0.82588  1.0000
  Hf  Hf63      1.0  0.90559  0.88530  0.33689  1.0000
  Hf  Hf64      1.0  0.91137  0.88581  0.83532  1.0000
  Hf  Hf65      1.0  0.19495  0.32205  0.08062  1.0000
  Hf  Hf66      1.0  0.19680  0.31647  0.57646  1.0000
  Hf  Hf67      1.0  0.19368  0.81362  0.08324  1.0000
  Hf  Hf68      1.0  0.19368  0.81594  0.57952  1.0000
  Hf  Hf69      1.0  0.44283  0.31761  0.08796  1.0000
  Hf  Hf70      1.0  0.44864  0.32330  0.58040  1.0000
  Hf  Hf71      1.0  0.44400  0.81837  0.08264  1.0000
  Hf  Hf72      1.0  0.44512  0.81916  0.58575  1.0000
  Hf  Hf73      1.0  0.69816  0.31174  0.08485  1.0000
  Hf  Hf74      1.0  0.69375  0.31917  0.58226  1.0000
  Hf  Hf75      1.0  0.69414  0.81843  0.08700  1.0000
  Hf  Hf76      1.0  0.69176  0.80893  0.59124  1.0000
  Hf  Hf77      1.0  0.94416  0.31919  0.08660  1.0000
  Hf  Hf78      1.0  0.94554  0.31308  0.57902  1.0000
  Hf  Hf79      1.0  0.94282  0.82076  0.08187  1.0000
  Hf  Hf80      1.0  0.94419  0.81680  0.58190  1.0000
  Hf  Hf81      1.0  0.09494  0.11606  0.15626  1.0000
  Hf  Hf82      1.0  0.09202  0.11507  0.65843  1.0000
  Hf  Hf83      1.0  0.09007  0.61707  0.16430  1.0000
  Hf  Hf84      1.0  0.09482  0.61227  0.66402  1.0000
  Hf  Hf85      1.0  0.34226  0.11443  0.16397  1.0000
  Hf  Hf86      1.0  0.34438  0.11822  0.66031  1.0000
  Hf  Hf87      1.0  0.33738  0.61292  0.16947  1.0000
  Hf  Hf88      1.0  0.34069  0.61089  0.67018  1.0000
  Hf  Hf89      1.0  0.58947  0.10106  0.17800  1.0000
  Hf  Hf90      1.0  0.59285  0.11148  0.67100  1.0000
  Hf  Hf91      1.0  0.59292  0.60441  0.17034  1.0000
  Hf  Hf92      1.0  0.58854  0.60653  0.67810  1.0000
  Hf  Hf93      1.0  0.84030  0.11839  0.16404  1.0000
  Hf  Hf94      1.0  0.84231  0.11274  0.66869  1.0000
  Hf  Hf95      1.0  0.84169  0.61656  0.15671  1.0000
  Hf  Hf96      1.0  0.83699  0.60827  0.67181  1.0000
  F   F1        1.0  0.07789  0.11064  0.31065  1.0000
  F   F2        1.0  0.08819  0.13559  0.79141  1.0000
  F   F3        1.0  0.07721  0.62760  0.30528  1.0000
  F   F4        1.0  0.08104  0.62781  0.80119  1.0000
  F   F5        1.0  0.33028  0.13769  0.29585  1.0000
  F   F6        1.0  0.33099  0.14785  0.79166  1.0000
  F   F7        1.0  0.32616  0.62559  0.30727  1.0000
  F   F8        1.0  0.32655  0.62931  0.80464  1.0000
  F   F9        1.0  0.57791  0.12760  0.31689  1.0000
  F   F10       1.0  0.57870  0.13101  0.79913  1.0000
  F   F11       1.0  0.58518  0.62793  0.29837  1.0000
  F   F12       1.0  0.57199  0.61122  0.82309  1.0000
  F   F13       1.0  0.83703  0.14852  0.28815  1.0000
  F   F14       1.0  0.83807  0.15599  0.78376  1.0000
  F   F15       1.0  0.82239  0.60908  0.30443  1.0000
  F   F16       1.0  0.82766  0.63029  0.79824  1.0000
  F   F17       1.0  0.18329  0.34359  0.44175  1.0000
  F   F18       1.0  0.19270  0.34365  0.93757  1.0000
  F   F19       1.0  0.18045  0.84557  0.44892  1.0000
  F   F20       1.0  0.18262  0.84663  0.94328  1.0000
  F   F21       1.0  0.44685  0.36320  0.43766  1.0000
  F   F22       1.0  0.43353  0.33416  0.94508  1.0000
  F   F23       1.0  0.43381  0.84809  0.44773  1.0000
  F   F24       1.0  0.43875  0.85244  0.93619  1.0000
  F   F25       1.0  0.68685  0.33736  0.45064  1.0000
  F   F26       1.0  0.70019  0.34603  0.94138  1.0000
  F   F27       1.0  0.68652  0.84034  0.46055  1.0000
  F   F28       1.0  0.68518  0.83935  0.94199  1.0000
  F   F29       1.0  0.93735  0.34385  0.44823  1.0000
  F   F30       1.0  0.93927  0.35480  0.94134  1.0000
  F   F31       1.0  0.93052  0.83742  0.44782  1.0000
  F   F32       1.0  0.93731  0.84334  0.94563  1.0000
  F   F33       1.0  0.16374  0.37610  0.20199  1.0000
  F   F34       1.0  0.17340  0.36732  0.69313  1.0000
  F   F35       1.0  0.17020  0.85810  0.20193  1.0000
  F   F36       1.0  0.17360  0.88907  0.67730  1.0000
  F   F37       1.0  0.42458  0.37569  0.19594  1.0000
  F   F38       1.0  0.42587  0.37304  0.69339  1.0000
  F   F39       1.0  0.42078  0.87808  0.18887  1.0000
  F   F40       1.0  0.41747  0.86982  0.70911  1.0000
  F   F41       1.0  0.67721  0.37133  0.19794  1.0000
  F   F42       1.0  0.67286  0.37551  0.68993  1.0000
  F   F43       1.0  0.66759  0.88778  0.20371  1.0000
  F   F44       1.0  0.67194  0.87688  0.68946  1.0000
  F   F45       1.0  0.92231  0.36182  0.20419  1.0000
  F   F46       1.0  0.91684  0.35664  0.70213  1.0000
  F   F47       1.0  0.91743  0.86626  0.19835  1.0000
  F   F48       1.0  0.92204  0.88777  0.68638  1.0000
  F   F49       1.0  0.06684  0.15723  0.04818  1.0000
  F   F50       1.0  0.05410  0.14753  0.56727  1.0000
  F   F51       1.0  0.06384  0.66006  0.04910  1.0000
  F   F52       1.0  0.06661  0.66456  0.55509  1.0000
  F   F53       1.0  0.31211  0.15704  0.06106  1.0000
  F   F54       1.0  0.31370  0.16217  0.55315  1.0000
  F   F55       1.0  0.31454  0.65532  0.05012  1.0000
  F   F56       1.0  0.31228  0.65938  0.54849  1.0000
  F   F57       1.0  0.56367  0.15453  0.05666  1.0000
  F   F58       1.0  0.55992  0.15112  0.56291  1.0000
  F   F59       1.0  0.55828  0.64557  0.06913  1.0000
  F   F60       1.0  0.55344  0.65456  0.57012  1.0000
  F   F61       1.0  0.82337  0.17152  0.03867  1.0000
  F   F62       1.0  0.81773  0.16255  0.54203  1.0000
  F   F63       1.0  0.80850  0.66243  0.05485  1.0000
  F   F64       1.0  0.81233  0.66004  0.55100  1.0000
  F   F65       1.0  0.20453  0.19742  0.21241  1.0000
  F   F66       1.0  0.20416  0.19885  0.70499  1.0000
  F   F67       1.0  0.20868  0.69964  0.20901  1.0000
  F   F68       1.0  0.19588  0.71773  0.71885  1.0000
  F   F69       1.0  0.45421  0.20663  0.23148  1.0000
  F   F70       1.0  0.45691  0.20113  0.70247  1.0000
  F   F71       1.0  0.44961  0.69900  0.21594  1.0000
  F   F72       1.0  0.45554  0.70787  0.71969  1.0000
  F   F73       1.0  0.71045  0.19479  0.21822  1.0000
  F   F74       1.0  0.70752  0.19649  0.72024  1.0000
  F   F75       1.0  0.70437  0.69965  0.21306  1.0000
  F   F76       1.0  0.70240  0.68845  0.71229  1.0000
  F   F77       1.0  0.95503  0.20077  0.21227  1.0000
  F   F78       1.0  0.95213  0.19148  0.70898  1.0000
  F   F79       1.0  0.95237  0.70248  0.20857  1.0000
  F   F80       1.0  0.94483  0.69473  0.72236  1.0000
  F   F81       1.0  0.15236  0.09880  0.04016  1.0000
  F   F82       1.0  0.15376  0.09328  0.52307  1.0000
  F   F83       1.0  0.14858  0.59639  0.02989  1.0000
  F   F84       1.0  0.14744  0.58957  0.53657  1.0000
  F   F85       1.0  0.39695  0.10545  0.03160  1.0000
  F   F86       1.0  0.39746  0.08348  0.54374  1.0000
  F   F87       1.0  0.39356  0.58237  0.03962  1.0000
  F   F88       1.0  0.40046  0.59999  0.54148  1.0000
  F   F89       1.0  0.64921  0.06927  0.04335  1.0000
  F   F90       1.0  0.65512  0.10237  0.53840  1.0000
  F   F91       1.0  0.65212  0.59405  0.03874  1.0000
  F   F92       1.0  0.64704  0.59252  0.54509  1.0000
  F   F93       1.0  0.90393  0.08299  0.03147  1.0000
  F   F94       1.0  0.89726  0.07616  0.53542  1.0000
  F   F95       1.0  0.89839  0.60866  0.02494  1.0000
  F   F96       1.0  0.89666  0.58908  0.53457  1.0000
  F   F97       1.0  0.15057  0.20986  0.12187  1.0000
  F   F98       1.0  0.15134  0.20066  0.61766  1.0000
  F   F99       1.0  0.14888  0.69920  0.13487  1.0000
  F   F100      1.0  0.15412  0.68548  0.63108  1.0000
  F   F101      1.0  0.40717  0.18839  0.12859  1.0000
  F   F102      1.0  0.39692  0.21435  0.61004  1.0000
  F   F103      1.0  0.39977  0.69163  0.12292  1.0000
  F   F104      1.0  0.40712  0.69622  0.62951  1.0000
  F   F105      1.0  0.65391  0.18984  0.11615  1.0000
  F   F106      1.0  0.65072  0.19078  0.63806  1.0000
  F   F107      1.0  0.64731  0.69685  0.14036  1.0000
  F   F108      1.0  0.65288  0.68515  0.62994  1.0000
  F   F109      1.0  0.90184  0.20198  0.11492  1.0000
  F   F110      1.0  0.91005  0.19078  0.59978  1.0000
  F   F111      1.0  0.90050  0.69646  0.12819  1.0000
  F   F112      1.0  0.90181  0.68682  0.61631  1.0000
  F   F113      1.0  0.09412  0.30867  0.37813  1.0000
  F   F114      1.0  0.09924  0.30061  0.88128  1.0000
  F   F115      1.0  0.09384  0.80679  0.38503  1.0000
  F   F116      1.0  0.10036  0.81772  0.85117  1.0000
  F   F117      1.0  0.34206  0.29969  0.37038  1.0000
  F   F118      1.0  0.34356  0.29941  0.89857  1.0000
  F   F119      1.0  0.34661  0.80175  0.38279  1.0000
  F   F120      1.0  0.33963  0.81771  0.86618  1.0000
  F   F121      1.0  0.59903  0.29067  0.37780  1.0000
  F   F122      1.0  0.59445  0.30616  0.86701  1.0000
  F   F123      1.0  0.59580  0.80714  0.37996  1.0000
  F   F124      1.0  0.60200  0.79119  0.88765  1.0000
  F   F125      1.0  0.85016  0.30856  0.36660  1.0000
  F   F126      1.0  0.84061  0.29888  0.88194  1.0000
  F   F127      1.0  0.84415  0.81340  0.38218  1.0000
  F   F128      1.0  0.85469  0.79537  0.86310  1.0000
  F   F129      1.0  0.06958  0.25027  0.13283  1.0000
  F   F130      1.0  0.07050  0.25098  0.63792  1.0000
  F   F131      1.0  0.06954  0.76241  0.13284  1.0000
  F   F132      1.0  0.06475  0.74620  0.64766  1.0000
  F   F133      1.0  0.32154  0.25866  0.12407  1.0000
  F   F134      1.0  0.31022  0.25490  0.64635  1.0000
  F   F135      1.0  0.30873  0.74836  0.14328  1.0000
  F   F136      1.0  0.31971  0.74777  0.64516  1.0000
  F   F137      1.0  0.55936  0.23783  0.16199  1.0000
  F   F138      1.0  0.57077  0.26161  0.62005  1.0000
  F   F139      1.0  0.56522  0.75024  0.14564  1.0000
  F   F140      1.0  0.56400  0.74525  0.64906  1.0000
  F   F141      1.0  0.81628  0.25328  0.14162  1.0000
  F   F142      1.0  0.82412  0.25562  0.62449  1.0000
  F   F143      1.0  0.81620  0.75124  0.13362  1.0000
  F   F144      1.0  0.80509  0.75252  0.67264  1.0000
  F   F145      1.0  0.12476  0.39063  0.09088  1.0000
  F   F146      1.0  0.12480  0.37126  0.61149  1.0000
  F   F147      1.0  0.12085  0.87035  0.11148  1.0000
  F   F148      1.0  0.12355  0.85321  0.61315  1.0000
  F   F149      1.0  0.37341  0.36893  0.10392  1.0000
  F   F150      1.0  0.37495  0.37559  0.60761  1.0000
  F   F151      1.0  0.37453  0.87108  0.10044  1.0000
  F   F152      1.0  0.37544  0.88037  0.60781  1.0000
  F   F153      1.0  0.62745  0.34505  0.12938  1.0000
  F   F154      1.0  0.62495  0.39393  0.58544  1.0000
  F   F155      1.0  0.62158  0.88382  0.10670  1.0000
  F   F156      1.0  0.62151  0.85077  0.63092  1.0000
  F   F157      1.0  0.87605  0.37351  0.10958  1.0000
  F   F158      1.0  0.87924  0.37453  0.60421  1.0000
  F   F159      1.0  0.88065  0.89739  0.08499  1.0000
  F   F160      1.0  0.87260  0.85380  0.62537  1.0000
  F   F161      1.0  0.17824  0.24982  0.35594  1.0000
  F   F162      1.0  0.19504  0.24243  0.84532  1.0000
  F   F163      1.0  0.18614  0.74803  0.35912  1.0000
  F   F164      1.0  0.18770  0.75564  0.84962  1.0000
  F   F165      1.0  0.42571  0.25119  0.38737  1.0000
  F   F166      1.0  0.42884  0.24161  0.85895  1.0000
  F   F167      1.0  0.43745  0.75739  0.35851  1.0000
  F   F168      1.0  0.41935  0.74023  0.88430  1.0000
  F   F169      1.0  0.68370  0.24341  0.36761  1.0000
  F   F170      1.0  0.68238  0.24753  0.86745  1.0000
  F   F171      1.0  0.69059  0.75530  0.34954  1.0000
  F   F172      1.0  0.68459  0.74220  0.85681  1.0000
  F   F173      1.0  0.92680  0.24594  0.37066  1.0000
  F   F174      1.0  0.93541  0.24922  0.86302  1.0000
  F   F175      1.0  0.93769  0.75645  0.35409  1.0000
  F   F176      1.0  0.94637  0.74170  0.85402  1.0000
  F   F177      1.0  0.12304  0.12114  0.39572  1.0000
  F   F178      1.0  0.12821  0.12963  0.89789  1.0000
  F   F179      1.0  0.12210  0.63897  0.39299  1.0000
  F   F180      1.0  0.12649  0.64348  0.87954  1.0000
  F   F181      1.0  0.37790  0.12328  0.39229  1.0000
  F   F182      1.0  0.37532  0.12168  0.89378  1.0000
  F   F183      1.0  0.37512  0.63927  0.38898  1.0000
  F   F184      1.0  0.37366  0.62704  0.88756  1.0000
  F   F185      1.0  0.62806  0.12001  0.39129  1.0000
  F   F186      1.0  0.62526  0.13915  0.88117  1.0000
  F   F187      1.0  0.62662  0.64259  0.38204  1.0000
  F   F188      1.0  0.62107  0.63290  0.89305  1.0000
  F   F189      1.0  0.87470  0.11261  0.39912  1.0000
  F   F190      1.0  0.87762  0.12417  0.89075  1.0000
  F   F191      1.0  0.87376  0.65800  0.37979  1.0000
  F   F192      1.0  0.87509  0.62558  0.89255  1.0000
  F   F193      1.0  0.01081  0.36443  0.07663  1.0000
  F   F194      1.0  0.00522  0.35001  0.58770  1.0000
  F   F195      1.0  0.00602  0.84553  0.07662  1.0000
  F   F196      1.0  0.00654  0.84713  0.58098  1.0000
  F   F197      1.0  0.25480  0.35713  0.08815  1.0000
  F   F198      1.0  0.25965  0.37934  0.57287  1.0000
  F   F199      1.0  0.25502  0.86018  0.06903  1.0000
  F   F200      1.0  0.26003  0.85058  0.58225  1.0000
  F   F201      1.0  0.50721  0.35792  0.08257  1.0000
  F   F202      1.0  0.51207  0.38008  0.55844  1.0000
  F   F203      1.0  0.51039  0.86993  0.05492  1.0000
  F   F204      1.0  0.50725  0.85996  0.57901  1.0000
  F   F205      1.0  0.76473  0.34622  0.07327  1.0000
  F   F206      1.0  0.75807  0.36994  0.57571  1.0000
  F   F207      1.0  0.75868  0.86816  0.06715  1.0000
  F   F208      1.0  0.75701  0.84968  0.57292  1.0000
  F   F209      1.0  0.07070  0.48830  0.18410  1.0000
  F   F210      1.0  0.06976  0.49145  0.67114  1.0000
  F   F211      1.0  0.06691  0.98050  0.18702  1.0000
  F   F212      1.0  0.07389  0.98553  0.65973  1.0000
  F   F213      1.0  0.31755  0.48353  0.16607  1.0000
  F   F214      1.0  0.31866  0.48632  0.67734  1.0000
  F   F215      1.0  0.32378  0.99021  0.15305  1.0000
  F   F216      1.0  0.31932  0.98859  0.66818  1.0000
  F   F217      1.0  0.57162  0.47387  0.18434  1.0000
  F   F218      1.0  0.57190  0.48123  0.67871  1.0000
  F   F219      1.0  0.56720  0.98312  0.19454  1.0000
  F   F220      1.0  0.57640  0.98728  0.65998  1.0000
  F   F221      1.0  0.82004  0.48932  0.16904  1.0000
  F   F222      1.0  0.81115  0.48905  0.67000  1.0000
  F   F223      1.0  0.82140  0.99274  0.16411  1.0000
  F   F224      1.0  0.81927  0.98504  0.67611  1.0000
  F   F225      1.0  0.24174  0.13038  0.42398  1.0000
  F   F226      1.0  0.24423  0.12568  0.92929  1.0000
  F   F227      1.0  0.23924  0.63824  0.43198  1.0000
  F   F228      1.0  0.24301  0.62792  0.92976  1.0000
  F   F229      1.0  0.48297  0.13270  0.45236  1.0000
  F   F230      1.0  0.49294  0.13297  0.93439  1.0000
  F   F231      1.0  0.49810  0.65167  0.41229  1.0000
  F   F232      1.0  0.49143  0.63500  0.92962  1.0000
  F   F233      1.0  0.74992  0.14017  0.42250  1.0000
  F   F234      1.0  0.74364  0.13693  0.90784  1.0000
  F   F235      1.0  0.74445  0.64067  0.41073  1.0000
  F   F236      1.0  0.74369  0.62886  0.93155  1.0000
  F   F237      1.0  0.99201  0.14080  0.40698  1.0000
  F   F238      1.0  0.99843  0.14915  0.91228  1.0000
  F   F239      1.0  0.99174  0.63501  0.42546  1.0000
  F   F240      1.0  0.99390  0.62873  0.93199  1.0000
  F   F241      1.0  0.17663  0.01550  0.32633  1.0000
  F   F242      1.0  0.18605  0.02578  0.81228  1.0000
  F   F243      1.0  0.17705  0.52514  0.33017  1.0000
  F   F244      1.0  0.18315  0.52093  0.81986  1.0000
  F   F245      1.0  0.44020  0.01886  0.30170  1.0000
  F   F246      1.0  0.42864  0.01561  0.82141  1.0000
  F   F247      1.0  0.43014  0.52312  0.33162  1.0000
  F   F248      1.0  0.43342  0.51359  0.83179  1.0000
  F   F249      1.0  0.69259  0.00359  0.32331  1.0000
  F   F250      1.0  0.68625  0.01155  0.82042  1.0000
  F   F251      1.0  0.67977  0.51543  0.33642  1.0000
  F   F252      1.0  0.67765  0.51939  0.83099  1.0000
  F   F253      1.0  0.93336  0.00560  0.31892  1.0000
  F   F254      1.0  0.93104  0.02323  0.81879  1.0000
  F   F255      1.0  0.92776  0.52797  0.32307  1.0000
  F   F256      1.0  0.93227  0.51932  0.80914  1.0000
  F   F257      1.0  0.00156  0.24681  0.00495  1.0000
  F   F258      1.0  0.00128  0.25402  0.48961  1.0000
  F   F259      1.0  0.99999  0.75853  0.98832  1.0000
  F   F260      1.0  0.99831  0.74844  0.50903  1.0000
  F   F261      1.0  0.24027  0.23286  0.01379  1.0000
  F   F262      1.0  0.25336  0.27223  0.47529  1.0000
  F   F263      1.0  0.24423  0.73775  0.99886  1.0000
  F   F264      1.0  0.24837  0.75528  0.48709  1.0000
  F   F265      1.0  0.49919  0.26035  0.00262  1.0000
  F   F266      1.0  0.49880  0.24518  0.50341  1.0000
  F   F267      1.0  0.49551  0.73439  0.02556  1.0000
  F   F268      1.0  0.50230  0.77529  0.48110  1.0000
  F   F269      1.0  0.74606  0.21828  0.02134  1.0000
  F   F270      1.0  0.74699  0.24390  0.50245  1.0000
  F   F271      1.0  0.74713  0.75057  0.01472  1.0000
  F   F272      1.0  0.74672  0.74071  0.49259  1.0000
  F   F273      1.0  0.12387  0.99393  0.25424  1.0000
  F   F274      1.0  0.12688  0.00431  0.73918  1.0000
  F   F275      1.0  0.12453  0.51036  0.24628  1.0000
  F   F276      1.0  0.12610  0.48937  0.74245  1.0000
  F   F277      1.0  0.36945  0.00074  0.25800  1.0000
  F   F278      1.0  0.37053  0.00458  0.76027  1.0000
  F   F279      1.0  0.37028  0.50025  0.25558  1.0000
  F   F280      1.0  0.37649  0.49220  0.75715  1.0000
  F   F281      1.0  0.62206  0.99898  0.27036  1.0000
  F   F282      1.0  0.61989  0.99820  0.76003  1.0000
  F   F283      1.0  0.63453  0.50056  0.22854  1.0000
  F   F284      1.0  0.61881  0.48747  0.77329  1.0000
  F   F285      1.0  0.87741  0.00453  0.24610  1.0000
  F   F286      1.0  0.87614  0.00650  0.75527  1.0000
  F   F287      1.0  0.88352  0.49523  0.23232  1.0000
  F   F288      1.0  0.87164  0.49395  0.75133  1.0000
  F   F289      1.0  0.04186  0.02363  0.01659  1.0000
  F   F290      1.0  0.03634  0.03146  0.52972  1.0000
  F   F291      1.0  0.04776  0.52788  0.01261  1.0000
  F   F292      1.0  0.04767  0.52668  0.51924  1.0000
  F   F293      1.0  0.29001  0.03131  0.01894  1.0000
  F   F294      1.0  0.29745  0.03271  0.51050  1.0000
  F   F295      1.0  0.28870  0.54148  0.02229  1.0000
  F   F296      1.0  0.29850  0.53663  0.51624  1.0000
  F   F297      1.0  0.55331  0.02659  0.01741  1.0000
  F   F298      1.0  0.53590  0.02058  0.53563  1.0000
  F   F299      1.0  0.54189  0.51420  0.03370  1.0000
  F   F300      1.0  0.53957  0.54131  0.52347  1.0000
  F   F301      1.0  0.79885  0.03771  0.01741  1.0000
  F   F302      1.0  0.78849  0.03971  0.52469  1.0000
  F   F303      1.0  0.79355  0.52672  0.02523  1.0000
  F   F304      1.0  0.79040  0.53399  0.51096  1.0000
  F   F305      1.0  0.22818  0.42767  0.22811  1.0000
  F   F306      1.0  0.23669  0.42566  0.71261  1.0000
  F   F307      1.0  0.23237  0.90485  0.22987  1.0000
  F   F308      1.0  0.24008  0.92144  0.72396  1.0000
  F   F309      1.0  0.48440  0.42315  0.22726  1.0000
  F   F310      1.0  0.48611  0.40667  0.73056  1.0000
  F   F311      1.0  0.48773  0.92677  0.20925  1.0000
  F   F312      1.0  0.47727  0.90784  0.73726  1.0000
  F   F313      1.0  0.73768  0.42708  0.21590  1.0000
  F   F314      1.0  0.72984  0.43144  0.72517  1.0000
  F   F315      1.0  0.74441  0.92028  0.21255  1.0000
  F   F316      1.0  0.73360  0.91440  0.71904  1.0000
  F   F317      1.0  0.97987  0.42849  0.23139  1.0000
  F   F318      1.0  0.98308  0.41303  0.71698  1.0000
  F   F319      1.0  0.98387  0.91181  0.22491  1.0000
  F   F320      1.0  0.98301  0.91381  0.73760  1.0000
  F   F321      1.0  0.21553  0.46447  0.47561  1.0000
  F   F322      1.0  0.20680  0.46068  0.98808  1.0000
  F   F323      1.0  0.20707  0.96894  0.46879  1.0000
  F   F324      1.0  0.19973  0.96778  0.98787  1.0000
  F   F325      1.0  0.45863  0.47995  0.47893  1.0000
  F   F326      1.0  0.45037  0.46205  0.99784  1.0000
  F   F327      1.0  0.45987  0.96842  0.46606  1.0000
  F   F328      1.0  0.45561  0.97580  0.98341  1.0000
  F   F329      1.0  0.70992  0.45753  0.47841  1.0000
  F   F330      1.0  0.70170  0.46418  0.99319  1.0000
  F   F331      1.0  0.70755  0.97941  0.48162  1.0000
  F   F332      1.0  0.71006  0.96154  0.97334  1.0000
  F   F333      1.0  0.96115  0.48080  0.46922  1.0000
  F   F334      1.0  0.95930  0.46583  0.97459  1.0000
  F   F335      1.0  0.95930  0.96816  0.46920  1.0000
  F   F336      1.0  0.96500  0.97811  0.96699  1.0000
  F   F337      1.0  0.01508  0.08187  0.26041  1.0000
  F   F338      1.0  0.01710  0.08866  0.77462  1.0000
  F   F339      1.0  0.01652  0.60922  0.25299  1.0000
  F   F340      1.0  0.01540  0.59645  0.76418  1.0000
  F   F341      1.0  0.26324  0.08806  0.27176  1.0000
  F   F342      1.0  0.26752  0.07263  0.78529  1.0000
  F   F343      1.0  0.26490  0.57242  0.28539  1.0000
  F   F344      1.0  0.26567  0.59549  0.76412  1.0000
  F   F345      1.0  0.51542  0.08571  0.28650  1.0000
  F   F346      1.0  0.51173  0.09270  0.77825  1.0000
  F   F347      1.0  0.51404  0.58841  0.26656  1.0000
  F   F348      1.0  0.51352  0.57851  0.78218  1.0000
  F   F349      1.0  0.76978  0.08680  0.27780  1.0000
  F   F350      1.0  0.77304  0.10169  0.75630  1.0000
  F   F351      1.0  0.76157  0.57859  0.26060  1.0000
  F   F352      1.0  0.76180  0.56016  0.79300  1.0000
  F   F353      1.0  0.09673  0.41755  0.46092  1.0000
  F   F354      1.0  0.10610  0.40253  0.95292  1.0000
  F   F355      1.0  0.09913  0.91810  0.45988  1.0000
  F   F356      1.0  0.10275  0.90147  0.94477  1.0000
  F   F357      1.0  0.35493  0.40025  0.46014  1.0000
  F   F358      1.0  0.34588  0.42073  0.95409  1.0000
  F   F359      1.0  0.35045  0.90197  0.45889  1.0000
  F   F360      1.0  0.34648  0.90489  0.96539  1.0000
  F   F361      1.0  0.59838  0.42074  0.44036  1.0000
  F   F362      1.0  0.60207  0.37850  0.97812  1.0000
  F   F363      1.0  0.60191  0.90327  0.47436  1.0000
  F   F364      1.0  0.60002  0.90949  0.95811  1.0000
  F   F365      1.0  0.85552  0.40593  0.46305  1.0000
  F   F366      1.0  0.85575  0.40700  0.95322  1.0000
  F   F367      1.0  0.84544  0.90617  0.47247  1.0000
  F   F368      1.0  0.85225  0.89965  0.96949  1.0000
  F   F369      1.0  0.04632  0.30414  0.28675  1.0000
  F   F370      1.0  0.04890  0.29569  0.78120  1.0000
  F   F371      1.0  0.04062  0.80030  0.30742  1.0000
  F   F372      1.0  0.04384  0.80155  0.78396  1.0000
  F   F373      1.0  0.29024  0.30767  0.27692  1.0000
  F   F374      1.0  0.29584  0.29671  0.80040  1.0000
  F   F375      1.0  0.29900  0.79533  0.27623  1.0000
  F   F376      1.0  0.29112  0.79751  0.78399  1.0000
  F   F377      1.0  0.53698  0.29037  0.29431  1.0000
  F   F378      1.0  0.54006  0.29374  0.78794  1.0000
  F   F379      1.0  0.55072  0.80260  0.28338  1.0000
  F   F380      1.0  0.54434  0.79784  0.80979  1.0000
  F   F381      1.0  0.80029  0.30480  0.28011  1.0000
  F   F382      1.0  0.78970  0.29833  0.78099  1.0000
  F   F383      1.0  0.80183  0.79856  0.27326  1.0000
  F   F384      1.0  0.79020  0.80654  0.81989  1.0000
