data_image0
_chemical_formula_structural       Hf96F384
_chemical_formula_sum              "Hf96 F384"
_cell_length_a       31.0542
_cell_length_b       15.5268
_cell_length_c       15.517
_cell_angle_alpha    63.342
_cell_angle_beta     63.342
_cell_angle_gamma    80.1625

_space_group_name_H-M_alt    "P 1"
_space_group_IT_number       1

loop_
  _space_group_symop_operation_xyz
  'x, y, z'

loop_
  _atom_site_type_symbol
  _atom_site_label
  _atom_site_symmetry_multiplicity
  _atom_site_fract_x
  _atom_site_fract_y
  _atom_site_fract_z
  _atom_site_occupancy
  Hf  Hf1       1.0  0.19547  0.10803  0.37318  1.0000
  Hf  Hf2       1.0  0.19522  0.11416  0.87997  1.0000
  Hf  Hf3       1.0  0.19245  0.60566  0.38232  1.0000
  Hf  Hf4       1.0  0.19219  0.60235  0.88061  1.0000
  Hf  Hf5       1.0  0.44430  0.11089  0.37059  1.0000
  Hf  Hf6       1.0  0.44923  0.11000  0.86780  1.0000
  Hf  Hf7       1.0  0.44492  0.59889  0.38728  1.0000
  Hf  Hf8       1.0  0.45081  0.60599  0.87247  1.0000
  Hf  Hf9       1.0  0.69873  0.11647  0.36860  1.0000
  Hf  Hf10      1.0  0.69435  0.10793  0.88270  1.0000
  Hf  Hf11      1.0  0.69448  0.60844  0.37586  1.0000
  Hf  Hf12      1.0  0.70203  0.60976  0.86157  1.0000
  Hf  Hf13      1.0  0.94687  0.11549  0.36471  1.0000
  Hf  Hf14      1.0  0.94540  0.10334  0.88540  1.0000
  Hf  Hf15      1.0  0.94636  0.60502  0.37445  1.0000
  Hf  Hf16      1.0  0.94925  0.60954  0.88156  1.0000
  Hf  Hf17      1.0  0.05596  0.39227  0.12394  1.0000
  Hf  Hf18      1.0  0.05476  0.39008  0.62749  1.0000
  Hf  Hf19      1.0  0.05246  0.89137  0.13296  1.0000
  Hf  Hf20      1.0  0.05039  0.89196  0.64251  1.0000
  Hf  Hf21      1.0  0.30521  0.38546  0.12714  1.0000
  Hf  Hf22      1.0  0.30119  0.38818  0.62978  1.0000
  Hf  Hf23      1.0  0.30607  0.88488  0.12338  1.0000
  Hf  Hf24      1.0  0.30083  0.88722  0.62914  1.0000
  Hf  Hf25      1.0  0.55181  0.38935  0.12211  1.0000
  Hf  Hf26      1.0  0.55391  0.39542  0.62063  1.0000
  Hf  Hf27      1.0  0.55596  0.89465  0.11994  1.0000
  Hf  Hf28      1.0  0.55667  0.89488  0.61316  1.0000
  Hf  Hf29      1.0  0.80531  0.39273  0.12021  1.0000
  Hf  Hf30      1.0  0.80354  0.39845  0.62544  1.0000
  Hf  Hf31      1.0  0.80865  0.89572  0.10826  1.0000
  Hf  Hf32      1.0  0.80780  0.89299  0.62373  1.0000
  Hf  Hf33      1.0  0.05872  0.18524  0.41155  1.0000
  Hf  Hf34      1.0  0.05420  0.17885  0.91877  1.0000
  Hf  Hf35      1.0  0.05665  0.68647  0.40856  1.0000
  Hf  Hf36      1.0  0.05393  0.68187  0.92781  1.0000
  Hf  Hf37      1.0  0.30106  0.17338  0.42601  1.0000
  Hf  Hf38      1.0  0.30400  0.17782  0.92391  1.0000
  Hf  Hf39      1.0  0.30437  0.67402  0.42487  1.0000
  Hf  Hf40      1.0  0.30713  0.67333  0.92067  1.0000
  Hf  Hf41      1.0  0.55208  0.18754  0.41934  1.0000
  Hf  Hf42      1.0  0.55701  0.18156  0.92082  1.0000
  Hf  Hf43      1.0  0.55660  0.68318  0.41530  1.0000
  Hf  Hf44      1.0  0.56247  0.68119  0.91598  1.0000
  Hf  Hf45      1.0  0.80021  0.18782  0.42345  1.0000
  Hf  Hf46      1.0  0.80895  0.18755  0.90823  1.0000
  Hf  Hf47      1.0  0.80722  0.68805  0.41461  1.0000
  Hf  Hf48      1.0  0.80681  0.68064  0.91879  1.0000
  Hf  Hf49      1.0  0.15696  0.38034  0.34197  1.0000
  Hf  Hf50      1.0  0.15412  0.38562  0.83833  1.0000
  Hf  Hf51      1.0  0.15831  0.88534  0.33521  1.0000
  Hf  Hf52      1.0  0.16022  0.88840  0.83662  1.0000
  Hf  Hf53      1.0  0.40415  0.39373  0.32963  1.0000
  Hf  Hf54      1.0  0.40847  0.38797  0.83324  1.0000
  Hf  Hf55      1.0  0.40808  0.87956  0.33571  1.0000
  Hf  Hf56      1.0  0.41039  0.88394  0.82826  1.0000
  Hf  Hf57      1.0  0.65481  0.38799  0.33682  1.0000
  Hf  Hf58      1.0  0.66346  0.39201  0.83563  1.0000
  Hf  Hf59      1.0  0.66383  0.89606  0.33164  1.0000
  Hf  Hf60      1.0  0.66235  0.88922  0.82362  1.0000
  Hf  Hf61      1.0  0.90903  0.39165  0.33077  1.0000
  Hf  Hf62      1.0  0.90860  0.39769  0.82219  1.0000
  Hf  Hf63      1.0  0.90794  0.88468  0.33225  1.0000
  Hf  Hf64      1.0  0.91108  0.89592  0.82430  1.0000
  Hf  Hf65      1.0  0.19250  0.31410  0.08778  1.0000
  Hf  Hf66      1.0  0.18878  0.30302  0.60275  1.0000
  Hf  Hf67      1.0  0.19546  0.81162  0.08398  1.0000
  Hf  Hf68      1.0  0.19040  0.82135  0.58225  1.0000
  Hf  Hf69      1.0  0.44768  0.32327  0.07292  1.0000
  Hf  Hf70      1.0  0.43874  0.31522  0.59095  1.0000
  Hf  Hf71      1.0  0.44838  0.82335  0.07735  1.0000
  Hf  Hf72      1.0  0.44477  0.82227  0.57916  1.0000
  Hf  Hf73      1.0  0.69626  0.31525  0.08080  1.0000
  Hf  Hf74      1.0  0.69374  0.33208  0.58195  1.0000
  Hf  Hf75      1.0  0.69577  0.81603  0.07835  1.0000
  Hf  Hf76      1.0  0.69736  0.81982  0.57563  1.0000
  Hf  Hf77      1.0  0.94207  0.30943  0.08881  1.0000
  Hf  Hf78      1.0  0.94564  0.31038  0.57851  1.0000
  Hf  Hf79      1.0  0.94269  0.81706  0.08929  1.0000
  Hf  Hf80      1.0  0.94965  0.82762  0.57433  1.0000
  Hf  Hf81      1.0  0.09203  0.12055  0.15985  1.0000
  Hf  Hf82      1.0  0.08916  0.10998  0.66587  1.0000
  Hf  Hf83      1.0  0.09057  0.60278  0.17927  1.0000
  Hf  Hf84      1.0  0.08795  0.61260  0.66883  1.0000
  Hf  Hf85      1.0  0.34029  0.10887  0.16628  1.0000
  Hf  Hf86      1.0  0.34187  0.10722  0.66862  1.0000
  Hf  Hf87      1.0  0.33383  0.60401  0.17518  1.0000
  Hf  Hf88      1.0  0.34283  0.61022  0.66622  1.0000
  Hf  Hf89      1.0  0.58963  0.11310  0.16805  1.0000
  Hf  Hf90      1.0  0.59330  0.11986  0.66219  1.0000
  Hf  Hf91      1.0  0.59116  0.60447  0.17087  1.0000
  Hf  Hf92      1.0  0.59278  0.61532  0.66713  1.0000
  Hf  Hf93      1.0  0.83741  0.11070  0.16749  1.0000
  Hf  Hf94      1.0  0.84389  0.11671  0.65890  1.0000
  Hf  Hf95      1.0  0.83756  0.60909  0.17252  1.0000
  Hf  Hf96      1.0  0.84542  0.61943  0.65936  1.0000
  F   F1        1.0  0.07758  0.12029  0.30018  1.0000
  F   F2        1.0  0.07494  0.12611  0.80350  1.0000
  F   F3        1.0  0.07965  0.61736  0.31273  1.0000
  F   F4        1.0  0.07290  0.63755  0.80903  1.0000
  F   F5        1.0  0.32727  0.12678  0.30070  1.0000
  F   F6        1.0  0.32986  0.11907  0.80919  1.0000
  F   F7        1.0  0.32592  0.63338  0.30388  1.0000
  F   F8        1.0  0.32805  0.61060  0.80496  1.0000
  F   F9        1.0  0.57715  0.13632  0.30173  1.0000
  F   F10       1.0  0.57868  0.14253  0.79948  1.0000
  F   F11       1.0  0.57457  0.61024  0.31379  1.0000
  F   F12       1.0  0.59448  0.65091  0.78317  1.0000
  F   F13       1.0  0.82687  0.15803  0.29072  1.0000
  F   F14       1.0  0.82922  0.11618  0.81257  1.0000
  F   F15       1.0  0.82635  0.62298  0.30412  1.0000
  F   F16       1.0  0.83485  0.62853  0.79534  1.0000
  F   F17       1.0  0.18313  0.32220  0.45033  1.0000
  F   F18       1.0  0.18122  0.33761  0.95699  1.0000
  F   F19       1.0  0.19291  0.85063  0.43690  1.0000
  F   F20       1.0  0.18760  0.84172  0.94041  1.0000
  F   F21       1.0  0.42861  0.33687  0.45570  1.0000
  F   F22       1.0  0.43006  0.33618  0.95407  1.0000
  F   F23       1.0  0.44138  0.83953  0.43858  1.0000
  F   F24       1.0  0.44358  0.84545  0.94296  1.0000
  F   F25       1.0  0.68927  0.36131  0.43931  1.0000
  F   F26       1.0  0.69716  0.33958  0.93327  1.0000
  F   F27       1.0  0.69954  0.85160  0.42074  1.0000
  F   F28       1.0  0.68658  0.84264  0.93655  1.0000
  F   F29       1.0  0.93696  0.33486  0.43915  1.0000
  F   F30       1.0  0.93323  0.34996  0.94101  1.0000
  F   F31       1.0  0.93992  0.85040  0.43776  1.0000
  F   F32       1.0  0.93705  0.84662  0.94052  1.0000
  F   F33       1.0  0.16667  0.35832  0.21430  1.0000
  F   F34       1.0  0.16276  0.34605  0.72403  1.0000
  F   F35       1.0  0.16578  0.85734  0.19966  1.0000
  F   F36       1.0  0.17270  0.86694  0.70565  1.0000
  F   F37       1.0  0.41514  0.36367  0.20485  1.0000
  F   F38       1.0  0.41734  0.36684  0.70550  1.0000
  F   F39       1.0  0.42335  0.87776  0.20031  1.0000
  F   F40       1.0  0.41000  0.83518  0.71760  1.0000
  F   F41       1.0  0.67323  0.37157  0.18516  1.0000
  F   F42       1.0  0.66456  0.39293  0.69802  1.0000
  F   F43       1.0  0.66760  0.87281  0.19925  1.0000
  F   F44       1.0  0.67697  0.88500  0.68064  1.0000
  F   F45       1.0  0.92068  0.37674  0.18582  1.0000
  F   F46       1.0  0.92571  0.38921  0.68170  1.0000
  F   F47       1.0  0.92096  0.87151  0.19899  1.0000
  F   F48       1.0  0.92233  0.87522  0.69362  1.0000
  F   F49       1.0  0.06500  0.16909  0.04131  1.0000
  F   F50       1.0  0.05877  0.15739  0.55510  1.0000
  F   F51       1.0  0.06364  0.65417  0.06077  1.0000
  F   F52       1.0  0.05631  0.66249  0.57401  1.0000
  F   F53       1.0  0.29940  0.13621  0.07526  1.0000
  F   F54       1.0  0.32076  0.16429  0.54929  1.0000
  F   F55       1.0  0.30980  0.64745  0.05924  1.0000
  F   F56       1.0  0.31763  0.66348  0.54541  1.0000
  F   F57       1.0  0.54778  0.15228  0.07366  1.0000
  F   F58       1.0  0.55971  0.16485  0.55045  1.0000
  F   F59       1.0  0.55636  0.64358  0.06692  1.0000
  F   F60       1.0  0.55516  0.65131  0.55599  1.0000
  F   F61       1.0  0.81556  0.16558  0.04050  1.0000
  F   F62       1.0  0.81333  0.15505  0.56023  1.0000
  F   F63       1.0  0.81039  0.65501  0.05392  1.0000
  F   F64       1.0  0.81620  0.67433  0.54721  1.0000
  F   F65       1.0  0.20462  0.19446  0.19854  1.0000
  F   F66       1.0  0.20369  0.19359  0.72692  1.0000
  F   F67       1.0  0.20842  0.69852  0.22117  1.0000
  F   F68       1.0  0.20185  0.70952  0.70395  1.0000
  F   F69       1.0  0.45042  0.20918  0.21095  1.0000
  F   F70       1.0  0.45585  0.19202  0.71819  1.0000
  F   F71       1.0  0.44431  0.69741  0.19604  1.0000
  F   F72       1.0  0.46298  0.70607  0.70938  1.0000
  F   F73       1.0  0.71006  0.21326  0.20647  1.0000
  F   F74       1.0  0.69942  0.21055  0.70643  1.0000
  F   F75       1.0  0.71127  0.69826  0.21655  1.0000
  F   F76       1.0  0.70279  0.70445  0.71478  1.0000
  F   F77       1.0  0.95223  0.18497  0.20453  1.0000
  F   F78       1.0  0.95134  0.20148  0.70552  1.0000
  F   F79       1.0  0.95891  0.70268  0.20088  1.0000
  F   F80       1.0  0.95399  0.70626  0.70302  1.0000
  F   F81       1.0  0.14980  0.09528  0.03663  1.0000
  F   F82       1.0  0.14327  0.09238  0.53639  1.0000
  F   F83       1.0  0.14643  0.59179  0.04001  1.0000
  F   F84       1.0  0.14169  0.59578  0.53899  1.0000
  F   F85       1.0  0.39397  0.09196  0.03752  1.0000
  F   F86       1.0  0.40062  0.07958  0.53484  1.0000
  F   F87       1.0  0.39852  0.57790  0.02134  1.0000
  F   F88       1.0  0.40104  0.58277  0.54999  1.0000
  F   F89       1.0  0.64421  0.11830  0.03201  1.0000
  F   F90       1.0  0.64979  0.11007  0.53200  1.0000
  F   F91       1.0  0.65229  0.59532  0.04945  1.0000
  F   F92       1.0  0.64681  0.59037  0.53789  1.0000
  F   F93       1.0  0.89972  0.08721  0.04184  1.0000
  F   F94       1.0  0.90524  0.11940  0.51544  1.0000
  F   F95       1.0  0.89974  0.59816  0.04150  1.0000
  F   F96       1.0  0.89834  0.59759  0.52461  1.0000
  F   F97       1.0  0.15234  0.19189  0.13287  1.0000
  F   F98       1.0  0.14856  0.18819  0.63581  1.0000
  F   F99       1.0  0.15127  0.69566  0.13375  1.0000
  F   F100      1.0  0.14496  0.71205  0.58714  1.0000
  F   F101      1.0  0.39818  0.20013  0.12593  1.0000
  F   F102      1.0  0.40333  0.18104  0.63101  1.0000
  F   F103      1.0  0.38357  0.69501  0.10019  1.0000
  F   F104      1.0  0.39471  0.71116  0.61645  1.0000
  F   F105      1.0  0.65494  0.19741  0.13739  1.0000
  F   F106      1.0  0.64913  0.21179  0.61576  1.0000
  F   F107      1.0  0.65740  0.69656  0.13496  1.0000
  F   F108      1.0  0.65279  0.70787  0.60786  1.0000
  F   F109      1.0  0.89756  0.19758  0.10908  1.0000
  F   F110      1.0  0.90596  0.18887  0.61481  1.0000
  F   F111      1.0  0.89759  0.70869  0.13337  1.0000
  F   F112      1.0  0.89968  0.70977  0.61990  1.0000
  F   F113      1.0  0.10071  0.29834  0.38959  1.0000
  F   F114      1.0  0.09225  0.31762  0.88549  1.0000
  F   F115      1.0  0.09358  0.79695  0.38053  1.0000
  F   F116      1.0  0.10039  0.79645  0.86960  1.0000
  F   F117      1.0  0.34427  0.30246  0.37365  1.0000
  F   F118      1.0  0.34768  0.29390  0.90057  1.0000
  F   F119      1.0  0.34341  0.79525  0.37500  1.0000
  F   F120      1.0  0.34354  0.80088  0.89748  1.0000
  F   F121      1.0  0.60431  0.30099  0.37879  1.0000
  F   F122      1.0  0.60276  0.28677  0.88819  1.0000
  F   F123      1.0  0.59386  0.80273  0.38087  1.0000
  F   F124      1.0  0.59930  0.80176  0.86792  1.0000
  F   F125      1.0  0.84699  0.31054  0.40138  1.0000
  F   F126      1.0  0.85171  0.31394  0.85095  1.0000
  F   F127      1.0  0.85026  0.79998  0.37294  1.0000
  F   F128      1.0  0.85451  0.80736  0.88799  1.0000
  F   F129      1.0  0.07783  0.25805  0.12376  1.0000
  F   F130      1.0  0.07203  0.24378  0.62502  1.0000
  F   F131      1.0  0.07118  0.74479  0.14754  1.0000
  F   F132      1.0  0.05711  0.76039  0.65561  1.0000
  F   F133      1.0  0.31804  0.24875  0.13238  1.0000
  F   F134      1.0  0.31192  0.24764  0.64683  1.0000
  F   F135      1.0  0.29731  0.73788  0.16327  1.0000
  F   F136      1.0  0.30808  0.74918  0.65602  1.0000
  F   F137      1.0  0.56757  0.25967  0.13281  1.0000
  F   F138      1.0  0.56511  0.24935  0.65071  1.0000
  F   F139      1.0  0.57361  0.74519  0.12460  1.0000
  F   F140      1.0  0.56816  0.75256  0.61549  1.0000
  F   F141      1.0  0.81147  0.25434  0.13412  1.0000
  F   F142      1.0  0.81495  0.25268  0.63601  1.0000
  F   F143      1.0  0.81098  0.75017  0.13494  1.0000
  F   F144      1.0  0.80895  0.75347  0.65036  1.0000
  F   F145      1.0  0.12846  0.37273  0.10257  1.0000
  F   F146      1.0  0.11931  0.33928  0.64403  1.0000
  F   F147      1.0  0.12520  0.86621  0.10802  1.0000
  F   F148      1.0  0.12209  0.88162  0.62360  1.0000
  F   F149      1.0  0.37462  0.38135  0.10060  1.0000
  F   F150      1.0  0.37146  0.37586  0.59981  1.0000
  F   F151      1.0  0.37349  0.83050  0.13330  1.0000
  F   F152      1.0  0.36877  0.87601  0.61225  1.0000
  F   F153      1.0  0.63066  0.37868  0.07389  1.0000
  F   F154      1.0  0.62479  0.39059  0.59258  1.0000
  F   F155      1.0  0.62552  0.87857  0.10281  1.0000
  F   F156      1.0  0.63203  0.88102  0.57760  1.0000
  F   F157      1.0  0.87428  0.36526  0.10541  1.0000
  F   F158      1.0  0.87435  0.34871  0.62026  1.0000
  F   F159      1.0  0.87640  0.88821  0.08852  1.0000
  F   F160      1.0  0.87999  0.87704  0.59683  1.0000
  F   F161      1.0  0.19377  0.24454  0.34517  1.0000
  F   F162      1.0  0.17458  0.23862  0.88721  1.0000
  F   F163      1.0  0.18069  0.74567  0.36771  1.0000
  F   F164      1.0  0.18110  0.73839  0.87138  1.0000
  F   F165      1.0  0.43412  0.24993  0.36813  1.0000
  F   F166      1.0  0.43064  0.23832  0.86845  1.0000
  F   F167      1.0  0.43132  0.73686  0.36133  1.0000
  F   F168      1.0  0.44137  0.74881  0.85730  1.0000
  F   F169      1.0  0.69430  0.26125  0.33795  1.0000
  F   F170      1.0  0.68966  0.25020  0.85617  1.0000
  F   F171      1.0  0.68065  0.75037  0.35880  1.0000
  F   F172      1.0  0.67894  0.74812  0.85976  1.0000
  F   F173      1.0  0.94008  0.25216  0.33055  1.0000
  F   F174      1.0  0.94250  0.24097  0.85872  1.0000
  F   F175      1.0  0.93622  0.75078  0.34662  1.0000
  F   F176      1.0  0.94027  0.75048  0.84980  1.0000
  F   F177      1.0  0.12556  0.13654  0.38319  1.0000
  F   F178      1.0  0.12409  0.14367  0.87719  1.0000
  F   F179      1.0  0.12260  0.62760  0.38992  1.0000
  F   F180      1.0  0.12152  0.61615  0.89345  1.0000
  F   F181      1.0  0.37875  0.14119  0.38064  1.0000
  F   F182      1.0  0.37271  0.12584  0.89439  1.0000
  F   F183      1.0  0.37414  0.59864  0.41063  1.0000
  F   F184      1.0  0.37946  0.66000  0.84872  1.0000
  F   F185      1.0  0.62679  0.14993  0.37955  1.0000
  F   F186      1.0  0.62405  0.09890  0.90866  1.0000
  F   F187      1.0  0.62588  0.64058  0.37429  1.0000
  F   F188      1.0  0.63016  0.61871  0.90759  1.0000
  F   F189      1.0  0.87198  0.13645  0.38674  1.0000
  F   F190      1.0  0.87831  0.14870  0.88506  1.0000
  F   F191      1.0  0.87790  0.63073  0.37925  1.0000
  F   F192      1.0  0.87670  0.63833  0.88452  1.0000
  F   F193      1.0  0.00626  0.34502  0.08577  1.0000
  F   F194      1.0  0.00556  0.36574  0.56842  1.0000
  F   F195      1.0  0.00866  0.85190  0.09301  1.0000
  F   F196      1.0  0.00516  0.86421  0.58895  1.0000
  F   F197      1.0  0.25914  0.35477  0.07666  1.0000
  F   F198      1.0  0.25211  0.34018  0.60169  1.0000
  F   F199      1.0  0.25679  0.86918  0.06676  1.0000
  F   F200      1.0  0.25698  0.86307  0.57318  1.0000
  F   F201      1.0  0.50736  0.36035  0.07260  1.0000
  F   F202      1.0  0.49609  0.35676  0.59397  1.0000
  F   F203      1.0  0.50477  0.84942  0.09142  1.0000
  F   F204      1.0  0.49978  0.87490  0.57882  1.0000
  F   F205      1.0  0.75623  0.38038  0.07825  1.0000
  F   F206      1.0  0.75487  0.37494  0.57163  1.0000
  F   F207      1.0  0.75849  0.85983  0.06224  1.0000
  F   F208      1.0  0.76161  0.86476  0.55034  1.0000
  F   F209      1.0  0.06719  0.48587  0.17284  1.0000
  F   F210      1.0  0.06884  0.48375  0.67583  1.0000
  F   F211      1.0  0.07566  0.99207  0.16873  1.0000
  F   F212      1.0  0.06117  0.98958  0.68711  1.0000
  F   F213      1.0  0.31561  0.47062  0.19112  1.0000
  F   F214      1.0  0.31800  0.49293  0.67177  1.0000
  F   F215      1.0  0.32188  0.96805  0.18621  1.0000
  F   F216      1.0  0.31717  0.98423  0.67577  1.0000
  F   F217      1.0  0.57410  0.48316  0.17135  1.0000
  F   F218      1.0  0.56345  0.47755  0.68106  1.0000
  F   F219      1.0  0.56930  0.98748  0.17592  1.0000
  F   F220      1.0  0.56899  0.98080  0.67578  1.0000
  F   F221      1.0  0.81766  0.48891  0.17839  1.0000
  F   F222      1.0  0.82114  0.48412  0.68846  1.0000
  F   F223      1.0  0.81856  0.98903  0.17439  1.0000
  F   F224      1.0  0.81459  0.98385  0.69009  1.0000
  F   F225      1.0  0.24266  0.14035  0.42806  1.0000
  F   F226      1.0  0.24167  0.15480  0.92312  1.0000
  F   F227      1.0  0.23719  0.63155  0.43638  1.0000
  F   F228      1.0  0.24358  0.62392  0.94332  1.0000
  F   F229      1.0  0.49320  0.13769  0.43290  1.0000
  F   F230      1.0  0.49253  0.13256  0.93363  1.0000
  F   F231      1.0  0.49129  0.63473  0.43388  1.0000
  F   F232      1.0  0.49970  0.63438  0.91980  1.0000
  F   F233      1.0  0.74170  0.13638  0.44246  1.0000
  F   F234      1.0  0.73570  0.13350  0.93827  1.0000
  F   F235      1.0  0.74394  0.65439  0.40586  1.0000
  F   F236      1.0  0.74619  0.65265  0.90760  1.0000
  F   F237      1.0  0.99475  0.13520  0.42026  1.0000
  F   F238      1.0  0.99254  0.12400  0.94555  1.0000
  F   F239      1.0  0.99296  0.63799  0.42120  1.0000
  F   F240      1.0  0.98945  0.64429  0.93353  1.0000
  F   F241      1.0  0.17642  0.02035  0.33087  1.0000
  F   F242      1.0  0.17939  0.01401  0.82673  1.0000
  F   F243      1.0  0.18103  0.51882  0.31777  1.0000
  F   F244      1.0  0.18462  0.51375  0.82025  1.0000
  F   F245      1.0  0.43033  0.01322  0.31966  1.0000
  F   F246      1.0  0.42752  0.01036  0.82865  1.0000
  F   F247      1.0  0.43295  0.50806  0.32044  1.0000
  F   F248      1.0  0.42695  0.52083  0.83701  1.0000
  F   F249      1.0  0.67848  0.02584  0.31873  1.0000
  F   F250      1.0  0.68704  0.01510  0.82063  1.0000
  F   F251      1.0  0.66916  0.51150  0.35156  1.0000
  F   F252      1.0  0.68334  0.51789  0.81600  1.0000
  F   F253      1.0  0.92186  0.01503  0.33486  1.0000
  F   F254      1.0  0.93023  0.02169  0.83428  1.0000
  F   F255      1.0  0.93446  0.52244  0.30789  1.0000
  F   F256      1.0  0.92966  0.51824  0.83098  1.0000
  F   F257      1.0  0.99837  0.25308  0.99542  1.0000
  F   F258      1.0  0.00550  0.25309  0.48980  1.0000
  F   F259      1.0  0.00127  0.76062  0.99820  1.0000
  F   F260      1.0  0.00277  0.76237  0.48783  1.0000
  F   F261      1.0  0.24910  0.25944  0.99476  1.0000
  F   F262      1.0  0.24968  0.24527  0.50187  1.0000
  F   F263      1.0  0.24789  0.74410  0.00081  1.0000
  F   F264      1.0  0.24519  0.74046  0.51080  1.0000
  F   F265      1.0  0.50355  0.26738  0.98055  1.0000
  F   F266      1.0  0.50190  0.26703  0.49483  1.0000
  F   F267      1.0  0.50093  0.74989  0.99872  1.0000
  F   F268      1.0  0.50368  0.75433  0.49543  1.0000
  F   F269      1.0  0.75625  0.26041  0.99639  1.0000
  F   F270      1.0  0.75491  0.25800  0.50666  1.0000
  F   F271      1.0  0.75255  0.75092  0.99403  1.0000
  F   F272      1.0  0.74644  0.73758  0.51450  1.0000
  F   F273      1.0  0.12419  0.99071  0.25229  1.0000
  F   F274      1.0  0.11793  0.00133  0.76075  1.0000
  F   F275      1.0  0.12209  0.48856  0.25966  1.0000
  F   F276      1.0  0.13490  0.50804  0.73837  1.0000
  F   F277      1.0  0.37174  0.99787  0.25639  1.0000
  F   F278      1.0  0.37787  0.98901  0.74520  1.0000
  F   F279      1.0  0.37249  0.50846  0.24702  1.0000
  F   F280      1.0  0.37965  0.50232  0.74783  1.0000
  F   F281      1.0  0.62651  0.00072  0.24477  1.0000
  F   F282      1.0  0.62855  0.01255  0.73848  1.0000
  F   F283      1.0  0.62463  0.49629  0.25662  1.0000
  F   F284      1.0  0.61742  0.50027  0.76516  1.0000
  F   F285      1.0  0.87422  0.00792  0.25020  1.0000
  F   F286      1.0  0.88451  0.01715  0.72531  1.0000
  F   F287      1.0  0.87326  0.49309  0.26165  1.0000
  F   F288      1.0  0.89175  0.52151  0.72134  1.0000
  F   F289      1.0  0.04620  0.02436  0.03150  1.0000
  F   F290      1.0  0.05672  0.03025  0.50291  1.0000
  F   F291      1.0  0.03989  0.52573  0.02213  1.0000
  F   F292      1.0  0.04241  0.53600  0.52664  1.0000
  F   F293      1.0  0.29833  0.02001  0.01671  1.0000
  F   F294      1.0  0.28143  0.02303  0.55008  1.0000
  F   F295      1.0  0.30720  0.52448  0.01741  1.0000
  F   F296      1.0  0.29003  0.52407  0.53411  1.0000
  F   F297      1.0  0.54054  0.02231  0.02876  1.0000
  F   F298      1.0  0.54513  0.03655  0.51142  1.0000
  F   F299      1.0  0.54826  0.52969  0.00834  1.0000
  F   F300      1.0  0.54373  0.52753  0.51873  1.0000
  F   F301      1.0  0.79243  0.02844  0.02888  1.0000
  F   F302      1.0  0.79738  0.02301  0.51125  1.0000
  F   F303      1.0  0.79631  0.53286  0.01286  1.0000
  F   F304      1.0  0.79515  0.53606  0.53018  1.0000
  F   F305      1.0  0.23287  0.40396  0.22987  1.0000
  F   F306      1.0  0.23166  0.38609  0.74215  1.0000
  F   F307      1.0  0.23414  0.90791  0.22449  1.0000
  F   F308      1.0  0.23653  0.89940  0.73733  1.0000
  F   F309      1.0  0.48386  0.42081  0.21863  1.0000
  F   F310      1.0  0.48248  0.40642  0.73510  1.0000
  F   F311      1.0  0.48900  0.90995  0.23118  1.0000
  F   F312      1.0  0.48585  0.91660  0.71812  1.0000
  F   F313      1.0  0.72983  0.42874  0.22872  1.0000
  F   F314      1.0  0.73355  0.43523  0.71425  1.0000
  F   F315      1.0  0.73524  0.92692  0.22408  1.0000
  F   F316      1.0  0.73744  0.91452  0.72159  1.0000
  F   F317      1.0  0.98778  0.41298  0.23016  1.0000
  F   F318      1.0  0.98748  0.42226  0.72040  1.0000
  F   F319      1.0  0.97901  0.91945  0.22140  1.0000
  F   F320      1.0  0.98122  0.93727  0.71938  1.0000
  F   F321      1.0  0.19608  0.45220  0.49593  1.0000
  F   F322      1.0  0.19919  0.47133  0.98200  1.0000
  F   F323      1.0  0.20303  0.96911  0.48280  1.0000
  F   F324      1.0  0.20759  0.96847  0.98414  1.0000
  F   F325      1.0  0.44985  0.45874  0.49362  1.0000
  F   F326      1.0  0.46360  0.46507  0.97499  1.0000
  F   F327      1.0  0.45541  0.96698  0.47284  1.0000
  F   F328      1.0  0.45438  0.96813  0.98727  1.0000
  F   F329      1.0  0.71544  0.48151  0.47046  1.0000
  F   F330      1.0  0.71811  0.47935  0.95472  1.0000
  F   F331      1.0  0.71153  0.97957  0.46602  1.0000
  F   F332      1.0  0.70608  0.96879  0.97838  1.0000
  F   F333      1.0  0.95663  0.46429  0.47077  1.0000
  F   F334      1.0  0.95968  0.46970  0.96956  1.0000
  F   F335      1.0  0.96000  0.97357  0.47616  1.0000
  F   F336      1.0  0.95956  0.96610  0.00173  1.0000
  F   F337      1.0  0.01441  0.10561  0.25787  1.0000
  F   F338      1.0  0.01033  0.09226  0.76913  1.0000
  F   F339      1.0  0.01770  0.57556  0.28283  1.0000
  F   F340      1.0  0.01328  0.57761  0.78137  1.0000
  F   F341      1.0  0.26361  0.07497  0.28357  1.0000
  F   F342      1.0  0.26356  0.09159  0.77442  1.0000
  F   F343      1.0  0.26320  0.56675  0.29923  1.0000
  F   F344      1.0  0.26188  0.58805  0.77327  1.0000
  F   F345      1.0  0.51215  0.09674  0.28297  1.0000
  F   F346      1.0  0.51696  0.09015  0.77216  1.0000
  F   F347      1.0  0.50797  0.58292  0.27970  1.0000
  F   F348      1.0  0.52348  0.58062  0.77385  1.0000
  F   F349      1.0  0.76217  0.07727  0.27197  1.0000
  F   F350      1.0  0.76464  0.09795  0.76951  1.0000
  F   F351      1.0  0.76015  0.58370  0.27471  1.0000
  F   F352      1.0  0.76380  0.59232  0.75231  1.0000
  F   F353      1.0  0.10194  0.39237  0.47618  1.0000
  F   F354      1.0  0.09983  0.41846  0.96107  1.0000
  F   F355      1.0  0.10440  0.89620  0.46758  1.0000
  F   F356      1.0  0.10419  0.90393  0.96950  1.0000
  F   F357      1.0  0.34379  0.40935  0.45674  1.0000
  F   F358      1.0  0.35108  0.40856  0.95809  1.0000
  F   F359      1.0  0.35032  0.89301  0.47072  1.0000
  F   F360      1.0  0.36217  0.88977  0.97205  1.0000
  F   F361      1.0  0.59219  0.41058  0.46333  1.0000
  F   F362      1.0  0.60266  0.40829  0.95529  1.0000
  F   F363      1.0  0.59868  0.91660  0.45196  1.0000
  F   F364      1.0  0.60054  0.90913  0.94995  1.0000
  F   F365      1.0  0.85463  0.43025  0.45739  1.0000
  F   F366      1.0  0.85284  0.40370  0.95229  1.0000
  F   F367      1.0  0.85206  0.89740  0.46797  1.0000
  F   F368      1.0  0.85290  0.93162  0.95123  1.0000
  F   F369      1.0  0.05428  0.29325  0.28241  1.0000
  F   F370      1.0  0.04633  0.29365  0.78472  1.0000
  F   F371      1.0  0.04637  0.79635  0.28665  1.0000
  F   F372      1.0  0.03914  0.80105  0.79948  1.0000
  F   F373      1.0  0.29884  0.28687  0.28174  1.0000
  F   F374      1.0  0.30859  0.30885  0.78174  1.0000
  F   F375      1.0  0.29426  0.79794  0.28267  1.0000
  F   F376      1.0  0.29537  0.78775  0.80308  1.0000
  F   F377      1.0  0.55048  0.30800  0.27604  1.0000
  F   F378      1.0  0.54464  0.30035  0.78671  1.0000
  F   F379      1.0  0.55165  0.77689  0.26911  1.0000
  F   F380      1.0  0.55030  0.80022  0.76253  1.0000
  F   F381      1.0  0.79563  0.30220  0.28605  1.0000
  F   F382      1.0  0.79240  0.30859  0.77892  1.0000
  F   F383      1.0  0.81007  0.79420  0.27903  1.0000
  F   F384      1.0  0.80544  0.79788  0.78819  1.0000
