data_image0
_chemical_formula_structural       Hf96F384
_chemical_formula_sum              "Hf96 F384"
_cell_length_a       31.0456
_cell_length_b       15.5174
_cell_length_c       15.5105
_cell_angle_alpha    63.342
_cell_angle_beta     63.342
_cell_angle_gamma    80.1625

_space_group_name_H-M_alt    "P 1"
_space_group_IT_number       1

loop_
  _space_group_symop_operation_xyz
  'x, y, z'

loop_
  _atom_site_type_symbol
  _atom_site_label
  _atom_site_symmetry_multiplicity
  _atom_site_fract_x
  _atom_site_fract_y
  _atom_site_fract_z
  _atom_site_occupancy
  Hf  Hf1       1.0  0.19433  0.10621  0.38233  1.0000
  Hf  Hf2       1.0  0.19853  0.10392  0.87139  1.0000
  Hf  Hf3       1.0  0.19537  0.61076  0.37018  1.0000
  Hf  Hf4       1.0  0.19611  0.61003  0.87166  1.0000
  Hf  Hf5       1.0  0.44897  0.11089  0.36654  1.0000
  Hf  Hf6       1.0  0.44497  0.11038  0.87236  1.0000
  Hf  Hf7       1.0  0.44465  0.61544  0.37737  1.0000
  Hf  Hf8       1.0  0.44655  0.61719  0.86756  1.0000
  Hf  Hf9       1.0  0.69857  0.09915  0.37757  1.0000
  Hf  Hf10      1.0  0.69163  0.10643  0.88549  1.0000
  Hf  Hf11      1.0  0.69870  0.60602  0.37625  1.0000
  Hf  Hf12      1.0  0.69712  0.60273  0.88127  1.0000
  Hf  Hf13      1.0  0.94661  0.10772  0.37153  1.0000
  Hf  Hf14      1.0  0.94731  0.10656  0.86883  1.0000
  Hf  Hf15      1.0  0.94866  0.61311  0.37315  1.0000
  Hf  Hf16      1.0  0.94307  0.59910  0.87798  1.0000
  Hf  Hf17      1.0  0.05527  0.39071  0.12108  1.0000
  Hf  Hf18      1.0  0.05661  0.38587  0.62377  1.0000
  Hf  Hf19      1.0  0.05203  0.89448  0.12432  1.0000
  Hf  Hf20      1.0  0.05123  0.88544  0.63013  1.0000
  Hf  Hf21      1.0  0.30197  0.40304  0.12033  1.0000
  Hf  Hf22      1.0  0.30456  0.39559  0.61592  1.0000
  Hf  Hf23      1.0  0.30254  0.89700  0.12334  1.0000
  Hf  Hf24      1.0  0.29777  0.89488  0.63302  1.0000
  Hf  Hf25      1.0  0.55604  0.38989  0.12208  1.0000
  Hf  Hf26      1.0  0.55433  0.38879  0.63595  1.0000
  Hf  Hf27      1.0  0.55209  0.88997  0.13052  1.0000
  Hf  Hf28      1.0  0.55188  0.88915  0.63921  1.0000
  Hf  Hf29      1.0  0.80446  0.39029  0.13166  1.0000
  Hf  Hf30      1.0  0.80884  0.39012  0.61802  1.0000
  Hf  Hf31      1.0  0.80130  0.88942  0.13104  1.0000
  Hf  Hf32      1.0  0.80218  0.88384  0.63083  1.0000
  Hf  Hf33      1.0  0.05814  0.18922  0.40784  1.0000
  Hf  Hf34      1.0  0.05736  0.17942  0.90939  1.0000
  Hf  Hf35      1.0  0.05417  0.68462  0.41986  1.0000
  Hf  Hf36      1.0  0.05607  0.68018  0.91541  1.0000
  Hf  Hf37      1.0  0.30834  0.19654  0.40137  1.0000
  Hf  Hf38      1.0  0.30360  0.18571  0.91766  1.0000
  Hf  Hf39      1.0  0.30282  0.68901  0.41635  1.0000
  Hf  Hf40      1.0  0.30377  0.68812  0.91486  1.0000
  Hf  Hf41      1.0  0.55573  0.18153  0.42454  1.0000
  Hf  Hf42      1.0  0.55598  0.17827  0.92261  1.0000
  Hf  Hf43      1.0  0.55318  0.68006  0.41644  1.0000
  Hf  Hf44      1.0  0.55606  0.67986  0.92799  1.0000
  Hf  Hf45      1.0  0.80576  0.18598  0.41514  1.0000
  Hf  Hf46      1.0  0.80695  0.17963  0.91035  1.0000
  Hf  Hf47      1.0  0.80913  0.68535  0.41682  1.0000
  Hf  Hf48      1.0  0.80768  0.68006  0.91013  1.0000
  Hf  Hf49      1.0  0.16168  0.39540  0.31961  1.0000
  Hf  Hf50      1.0  0.15689  0.39109  0.83031  1.0000
  Hf  Hf51      1.0  0.15786  0.89351  0.33205  1.0000
  Hf  Hf52      1.0  0.15481  0.88352  0.83484  1.0000
  Hf  Hf53      1.0  0.40951  0.39086  0.33704  1.0000
  Hf  Hf54      1.0  0.40788  0.39340  0.82971  1.0000
  Hf  Hf55      1.0  0.40156  0.89182  0.33824  1.0000
  Hf  Hf56      1.0  0.40689  0.88934  0.83840  1.0000
  Hf  Hf57      1.0  0.65854  0.38445  0.33563  1.0000
  Hf  Hf58      1.0  0.66434  0.38949  0.83420  1.0000
  Hf  Hf59      1.0  0.65820  0.88201  0.34123  1.0000
  Hf  Hf60      1.0  0.65921  0.88591  0.83701  1.0000
  Hf  Hf61      1.0  0.91593  0.39507  0.32534  1.0000
  Hf  Hf62      1.0  0.90977  0.37963  0.83566  1.0000
  Hf  Hf63      1.0  0.90879  0.88604  0.33617  1.0000
  Hf  Hf64      1.0  0.90551  0.88100  0.83863  1.0000
  Hf  Hf65      1.0  0.19656  0.32138  0.07100  1.0000
  Hf  Hf66      1.0  0.19403  0.32070  0.57646  1.0000
  Hf  Hf67      1.0  0.19547  0.82519  0.08088  1.0000
  Hf  Hf68      1.0  0.19279  0.82383  0.58040  1.0000
  Hf  Hf69      1.0  0.44142  0.33236  0.07743  1.0000
  Hf  Hf70      1.0  0.44849  0.32974  0.56975  1.0000
  Hf  Hf71      1.0  0.44229  0.81597  0.08611  1.0000
  Hf  Hf72      1.0  0.44158  0.82562  0.58383  1.0000
  Hf  Hf73      1.0  0.69568  0.31473  0.08690  1.0000
  Hf  Hf74      1.0  0.69224  0.30995  0.58749  1.0000
  Hf  Hf75      1.0  0.69308  0.81981  0.08784  1.0000
  Hf  Hf76      1.0  0.69495  0.80937  0.59154  1.0000
  Hf  Hf77      1.0  0.94469  0.31881  0.08223  1.0000
  Hf  Hf78      1.0  0.94446  0.30644  0.58854  1.0000
  Hf  Hf79      1.0  0.94394  0.81778  0.08340  1.0000
  Hf  Hf80      1.0  0.94342  0.80918  0.58561  1.0000
  Hf  Hf81      1.0  0.09348  0.11057  0.16210  1.0000
  Hf  Hf82      1.0  0.09356  0.10461  0.66663  1.0000
  Hf  Hf83      1.0  0.09422  0.61438  0.16162  1.0000
  Hf  Hf84      1.0  0.08897  0.61173  0.66361  1.0000
  Hf  Hf85      1.0  0.33850  0.11368  0.16878  1.0000
  Hf  Hf86      1.0  0.34613  0.11416  0.65120  1.0000
  Hf  Hf87      1.0  0.34247  0.61195  0.16261  1.0000
  Hf  Hf88      1.0  0.34125  0.61598  0.66204  1.0000
  Hf  Hf89      1.0  0.59234  0.11080  0.17455  1.0000
  Hf  Hf90      1.0  0.59404  0.10881  0.66966  1.0000
  Hf  Hf91      1.0  0.59103  0.60709  0.17201  1.0000
  Hf  Hf92      1.0  0.59236  0.61384  0.67352  1.0000
  Hf  Hf93      1.0  0.84081  0.10675  0.16569  1.0000
  Hf  Hf94      1.0  0.84009  0.10394  0.66513  1.0000
  Hf  Hf95      1.0  0.84236  0.60505  0.17043  1.0000
  Hf  Hf96      1.0  0.83827  0.60757  0.66868  1.0000
  F   F1        1.0  0.07966  0.12466  0.30018  1.0000
  F   F2        1.0  0.07986  0.11582  0.81304  1.0000
  F   F3        1.0  0.07643  0.64539  0.30082  1.0000
  F   F4        1.0  0.07784  0.61887  0.79976  1.0000
  F   F5        1.0  0.32746  0.13894  0.30193  1.0000
  F   F6        1.0  0.32209  0.13156  0.80506  1.0000
  F   F7        1.0  0.32776  0.63282  0.29326  1.0000
  F   F8        1.0  0.33168  0.63620  0.79526  1.0000
  F   F9        1.0  0.57479  0.13123  0.31712  1.0000
  F   F10       1.0  0.57835  0.11629  0.81276  1.0000
  F   F11       1.0  0.57741  0.62048  0.30253  1.0000
  F   F12       1.0  0.58228  0.61874  0.81062  1.0000
  F   F13       1.0  0.82489  0.12446  0.31041  1.0000
  F   F14       1.0  0.83127  0.11847  0.80140  1.0000
  F   F15       1.0  0.83707  0.63506  0.29377  1.0000
  F   F16       1.0  0.82083  0.62581  0.80604  1.0000
  F   F17       1.0  0.19728  0.35795  0.42327  1.0000
  F   F18       1.0  0.18706  0.33302  0.94215  1.0000
  F   F19       1.0  0.18709  0.85814  0.43440  1.0000
  F   F20       1.0  0.18915  0.85333  0.93325  1.0000
  F   F21       1.0  0.44003  0.35116  0.44217  1.0000
  F   F22       1.0  0.44107  0.34899  0.94179  1.0000
  F   F23       1.0  0.42566  0.84398  0.45867  1.0000
  F   F24       1.0  0.43141  0.83026  0.95753  1.0000
  F   F25       1.0  0.68819  0.33615  0.44190  1.0000
  F   F26       1.0  0.67567  0.32463  0.96663  1.0000
  F   F27       1.0  0.68389  0.82421  0.45254  1.0000
  F   F28       1.0  0.68205  0.84358  0.95622  1.0000
  F   F29       1.0  0.94573  0.35016  0.43402  1.0000
  F   F30       1.0  0.93357  0.33864  0.94899  1.0000
  F   F31       1.0  0.93950  0.85015  0.43557  1.0000
  F   F32       1.0  0.93128  0.83001  0.95580  1.0000
  F   F33       1.0  0.16943  0.37792  0.19236  1.0000
  F   F34       1.0  0.17663  0.37472  0.68431  1.0000
  F   F35       1.0  0.17218  0.86974  0.19461  1.0000
  F   F36       1.0  0.17007  0.86678  0.69925  1.0000
  F   F37       1.0  0.41391  0.35197  0.21401  1.0000
  F   F38       1.0  0.41716  0.37605  0.69638  1.0000
  F   F39       1.0  0.41121  0.86279  0.20853  1.0000
  F   F40       1.0  0.42285  0.89220  0.69094  1.0000
  F   F41       1.0  0.66634  0.37002  0.20684  1.0000
  F   F42       1.0  0.67788  0.37298  0.69122  1.0000
  F   F43       1.0  0.66457  0.85474  0.21412  1.0000
  F   F44       1.0  0.67100  0.87158  0.69592  1.0000
  F   F45       1.0  0.93046  0.37850  0.18835  1.0000
  F   F46       1.0  0.91983  0.36707  0.69822  1.0000
  F   F47       1.0  0.91727  0.87654  0.19553  1.0000
  F   F48       1.0  0.92309  0.85389  0.70876  1.0000
  F   F49       1.0  0.06451  0.16153  0.04639  1.0000
  F   F50       1.0  0.07316  0.15094  0.54028  1.0000
  F   F51       1.0  0.05931  0.64140  0.06250  1.0000
  F   F52       1.0  0.05490  0.65452  0.56482  1.0000
  F   F53       1.0  0.31232  0.16105  0.05011  1.0000
  F   F54       1.0  0.31995  0.16996  0.54385  1.0000
  F   F55       1.0  0.31759  0.66220  0.03970  1.0000
  F   F56       1.0  0.31468  0.66799  0.55274  1.0000
  F   F57       1.0  0.56360  0.15481  0.05477  1.0000
  F   F58       1.0  0.56630  0.15238  0.55241  1.0000
  F   F59       1.0  0.56051  0.64333  0.07015  1.0000
  F   F60       1.0  0.56414  0.66606  0.55710  1.0000
  F   F61       1.0  0.81474  0.16020  0.04776  1.0000
  F   F62       1.0  0.81025  0.15486  0.55702  1.0000
  F   F63       1.0  0.82418  0.65910  0.04697  1.0000
  F   F64       1.0  0.80264  0.65135  0.56721  1.0000
  F   F65       1.0  0.20649  0.20529  0.22607  1.0000
  F   F66       1.0  0.19072  0.19471  0.70500  1.0000
  F   F67       1.0  0.19847  0.69501  0.21547  1.0000
  F   F68       1.0  0.20130  0.69758  0.70585  1.0000
  F   F69       1.0  0.46776  0.21047  0.22067  1.0000
  F   F70       1.0  0.45115  0.19722  0.70767  1.0000
  F   F71       1.0  0.45134  0.71189  0.20706  1.0000
  F   F72       1.0  0.43756  0.70412  0.72671  1.0000
  F   F73       1.0  0.70350  0.18847  0.22650  1.0000
  F   F74       1.0  0.69325  0.19671  0.72312  1.0000
  F   F75       1.0  0.71382  0.68825  0.21321  1.0000
  F   F76       1.0  0.70615  0.69001  0.72398  1.0000
  F   F77       1.0  0.96043  0.19923  0.21166  1.0000
  F   F78       1.0  0.95640  0.19686  0.71456  1.0000
  F   F79       1.0  0.95130  0.71220  0.21333  1.0000
  F   F80       1.0  0.96152  0.69542  0.72311  1.0000
  F   F81       1.0  0.14928  0.10140  0.03906  1.0000
  F   F82       1.0  0.14879  0.06568  0.53361  1.0000
  F   F83       1.0  0.15402  0.59690  0.04140  1.0000
  F   F84       1.0  0.14687  0.59356  0.54913  1.0000
  F   F85       1.0  0.40148  0.10900  0.04770  1.0000
  F   F86       1.0  0.39835  0.08071  0.52670  1.0000
  F   F87       1.0  0.39896  0.60373  0.03964  1.0000
  F   F88       1.0  0.39803  0.58804  0.54181  1.0000
  F   F89       1.0  0.64435  0.08281  0.03906  1.0000
  F   F90       1.0  0.64736  0.07107  0.55871  1.0000
  F   F91       1.0  0.64683  0.59072  0.03982  1.0000
  F   F92       1.0  0.64747  0.59796  0.53841  1.0000
  F   F93       1.0  0.89801  0.08940  0.03794  1.0000
  F   F94       1.0  0.90181  0.09026  0.53144  1.0000
  F   F95       1.0  0.90207  0.57199  0.03606  1.0000
  F   F96       1.0  0.89403  0.62016  0.52925  1.0000
  F   F97       1.0  0.15904  0.19805  0.13262  1.0000
  F   F98       1.0  0.14852  0.18739  0.60227  1.0000
  F   F99       1.0  0.15412  0.69972  0.11726  1.0000
  F   F100      1.0  0.14452  0.72141  0.60484  1.0000
  F   F101      1.0  0.40499  0.20786  0.13436  1.0000
  F   F102      1.0  0.40546  0.18570  0.59758  1.0000
  F   F103      1.0  0.40406  0.70005  0.12217  1.0000
  F   F104      1.0  0.40181  0.68718  0.62529  1.0000
  F   F105      1.0  0.65730  0.19726  0.13118  1.0000
  F   F106      1.0  0.65274  0.19044  0.61515  1.0000
  F   F107      1.0  0.64944  0.70007  0.13075  1.0000
  F   F108      1.0  0.65445  0.68924  0.63918  1.0000
  F   F109      1.0  0.90163  0.19705  0.12729  1.0000
  F   F110      1.0  0.90985  0.18665  0.62485  1.0000
  F   F111      1.0  0.90565  0.68397  0.11656  1.0000
  F   F112      1.0  0.90578  0.69001  0.64236  1.0000
  F   F113      1.0  0.09701  0.31211  0.35830  1.0000
  F   F114      1.0  0.09598  0.30993  0.86541  1.0000
  F   F115      1.0  0.09756  0.79605  0.37854  1.0000
  F   F116      1.0  0.10184  0.79140  0.87441  1.0000
  F   F117      1.0  0.34680  0.31513  0.38429  1.0000
  F   F118      1.0  0.34438  0.29893  0.87432  1.0000
  F   F119      1.0  0.34013  0.80608  0.37526  1.0000
  F   F120      1.0  0.34604  0.81138  0.87595  1.0000
  F   F121      1.0  0.59432  0.30691  0.37850  1.0000
  F   F122      1.0  0.60411  0.30877  0.87486  1.0000
  F   F123      1.0  0.59426  0.80188  0.38413  1.0000
  F   F124      1.0  0.60463  0.80507  0.89064  1.0000
  F   F125      1.0  0.84702  0.30193  0.39378  1.0000
  F   F126      1.0  0.84799  0.30709  0.86481  1.0000
  F   F127      1.0  0.84950  0.80222  0.38402  1.0000
  F   F128      1.0  0.83885  0.80986  0.87190  1.0000
  F   F129      1.0  0.07206  0.24947  0.13157  1.0000
  F   F130      1.0  0.06271  0.23846  0.65513  1.0000
  F   F131      1.0  0.06134  0.74288  0.14013  1.0000
  F   F132      1.0  0.06202  0.75767  0.63109  1.0000
  F   F133      1.0  0.31928  0.26071  0.13330  1.0000
  F   F134      1.0  0.31407  0.25815  0.63355  1.0000
  F   F135      1.0  0.31721  0.74798  0.13527  1.0000
  F   F136      1.0  0.31186  0.75140  0.65384  1.0000
  F   F137      1.0  0.56618  0.25641  0.13153  1.0000
  F   F138      1.0  0.56676  0.24545  0.64078  1.0000
  F   F139      1.0  0.56488  0.75949  0.12904  1.0000
  F   F140      1.0  0.56770  0.75155  0.65266  1.0000
  F   F141      1.0  0.81529  0.25413  0.14902  1.0000
  F   F142      1.0  0.82925  0.24856  0.62218  1.0000
  F   F143      1.0  0.80676  0.74861  0.15159  1.0000
  F   F144      1.0  0.81926  0.75359  0.62455  1.0000
  F   F145      1.0  0.12730  0.38488  0.08534  1.0000
  F   F146      1.0  0.12685  0.36699  0.61518  1.0000
  F   F147      1.0  0.12210  0.86567  0.11215  1.0000
  F   F148      1.0  0.12296  0.88190  0.59224  1.0000
  F   F149      1.0  0.37325  0.38725  0.09920  1.0000
  F   F150      1.0  0.37577  0.34146  0.62135  1.0000
  F   F151      1.0  0.37043  0.87878  0.11025  1.0000
  F   F152      1.0  0.37021  0.87090  0.61029  1.0000
  F   F153      1.0  0.62354  0.37531  0.11325  1.0000
  F   F154      1.0  0.62639  0.35924  0.61835  1.0000
  F   F155      1.0  0.61969  0.86480  0.12127  1.0000
  F   F156      1.0  0.62799  0.87464  0.60023  1.0000
  F   F157      1.0  0.87319  0.37168  0.12015  1.0000
  F   F158      1.0  0.87841  0.36783  0.59998  1.0000
  F   F159      1.0  0.87372  0.85531  0.12162  1.0000
  F   F160      1.0  0.87511  0.85876  0.62149  1.0000
  F   F161      1.0  0.17681  0.24952  0.36691  1.0000
  F   F162      1.0  0.19246  0.25789  0.83655  1.0000
  F   F163      1.0  0.17740  0.74920  0.36763  1.0000
  F   F164      1.0  0.18554  0.75173  0.85040  1.0000
  F   F165      1.0  0.43141  0.24471  0.37951  1.0000
  F   F166      1.0  0.43346  0.25378  0.86457  1.0000
  F   F167      1.0  0.42009  0.74722  0.38347  1.0000
  F   F168      1.0  0.43519  0.75589  0.83814  1.0000
  F   F169      1.0  0.67708  0.24083  0.37118  1.0000
  F   F170      1.0  0.69163  0.24882  0.84974  1.0000
  F   F171      1.0  0.68902  0.74542  0.35528  1.0000
  F   F172      1.0  0.69024  0.74367  0.86583  1.0000
  F   F173      1.0  0.92581  0.24654  0.36353  1.0000
  F   F174      1.0  0.93666  0.24604  0.86397  1.0000
  F   F175      1.0  0.94913  0.75512  0.34418  1.0000
  F   F176      1.0  0.92254  0.73828  0.88111  1.0000
  F   F177      1.0  0.12170  0.13600  0.38094  1.0000
  F   F178      1.0  0.12660  0.12638  0.90250  1.0000
  F   F179      1.0  0.12340  0.62136  0.40371  1.0000
  F   F180      1.0  0.12698  0.61268  0.89107  1.0000
  F   F181      1.0  0.37991  0.13764  0.37701  1.0000
  F   F182      1.0  0.37381  0.11168  0.91273  1.0000
  F   F183      1.0  0.37423  0.62535  0.39268  1.0000
  F   F184      1.0  0.37207  0.61482  0.91292  1.0000
  F   F185      1.0  0.62347  0.12567  0.40196  1.0000
  F   F186      1.0  0.62592  0.13940  0.88610  1.0000
  F   F187      1.0  0.62617  0.62667  0.38770  1.0000
  F   F188      1.0  0.62781  0.65074  0.88236  1.0000
  F   F189      1.0  0.87734  0.13555  0.37839  1.0000
  F   F190      1.0  0.88007  0.13883  0.87922  1.0000
  F   F191      1.0  0.87518  0.63282  0.40034  1.0000
  F   F192      1.0  0.87288  0.62504  0.88504  1.0000
  F   F193      1.0  0.01252  0.36693  0.06975  1.0000
  F   F194      1.0  0.01073  0.36113  0.57141  1.0000
  F   F195      1.0  0.01018  0.87079  0.06374  1.0000
  F   F196      1.0  0.00755  0.86168  0.56107  1.0000
  F   F197      1.0  0.25456  0.36454  0.06913  1.0000
  F   F198      1.0  0.25840  0.37260  0.55585  1.0000
  F   F199      1.0  0.25761  0.86143  0.07756  1.0000
  F   F200      1.0  0.25901  0.85876  0.56950  1.0000
  F   F201      1.0  0.50622  0.37132  0.07081  1.0000
  F   F202      1.0  0.50903  0.35540  0.57963  1.0000
  F   F203      1.0  0.50297  0.85705  0.08440  1.0000
  F   F204      1.0  0.50223  0.85773  0.59019  1.0000
  F   F205      1.0  0.75602  0.35547  0.07367  1.0000
  F   F206      1.0  0.76240  0.34354  0.58725  1.0000
  F   F207      1.0  0.75546  0.86587  0.07358  1.0000
  F   F208      1.0  0.75665  0.86310  0.57498  1.0000
  F   F209      1.0  0.06830  0.48946  0.17250  1.0000
  F   F210      1.0  0.06640  0.48202  0.67607  1.0000
  F   F211      1.0  0.06374  0.98623  0.18217  1.0000
  F   F212      1.0  0.06890  0.98240  0.68039  1.0000
  F   F213      1.0  0.31767  0.48872  0.17592  1.0000
  F   F214      1.0  0.32193  0.48967  0.66033  1.0000
  F   F215      1.0  0.31519  0.98861  0.16692  1.0000
  F   F216      1.0  0.31446  0.98279  0.68799  1.0000
  F   F217      1.0  0.56681  0.47713  0.19498  1.0000
  F   F218      1.0  0.57323  0.49213  0.67262  1.0000
  F   F219      1.0  0.57266  0.98383  0.18019  1.0000
  F   F220      1.0  0.56610  0.97349  0.68968  1.0000
  F   F221      1.0  0.82626  0.48220  0.17492  1.0000
  F   F222      1.0  0.82932  0.48230  0.66879  1.0000
  F   F223      1.0  0.81998  0.97957  0.17477  1.0000
  F   F224      1.0  0.81442  0.96604  0.69485  1.0000
  F   F225      1.0  0.24558  0.14926  0.41045  1.0000
  F   F226      1.0  0.23962  0.15221  0.92680  1.0000
  F   F227      1.0  0.24056  0.65523  0.41366  1.0000
  F   F228      1.0  0.24330  0.64843  0.91518  1.0000
  F   F229      1.0  0.48995  0.13358  0.43340  1.0000
  F   F230      1.0  0.49278  0.14852  0.91375  1.0000
  F   F231      1.0  0.48830  0.63025  0.43757  1.0000
  F   F232      1.0  0.49375  0.64527  0.92379  1.0000
  F   F233      1.0  0.74144  0.12520  0.43420  1.0000
  F   F234      1.0  0.74310  0.13738  0.92290  1.0000
  F   F235      1.0  0.74774  0.64029  0.42952  1.0000
  F   F236      1.0  0.74155  0.63257  0.93436  1.0000
  F   F237      1.0  0.99339  0.14276  0.41806  1.0000
  F   F238      1.0  0.99532  0.14182  0.90747  1.0000
  F   F239      1.0  0.99444  0.63682  0.42742  1.0000
  F   F240      1.0  0.99358  0.64618  0.92628  1.0000
  F   F241      1.0  0.17376  0.01974  0.33241  1.0000
  F   F242      1.0  0.17339  0.02192  0.84380  1.0000
  F   F243      1.0  0.18260  0.51685  0.31928  1.0000
  F   F244      1.0  0.18587  0.50954  0.82170  1.0000
  F   F245      1.0  0.43744  0.02238  0.30206  1.0000
  F   F246      1.0  0.42941  0.01700  0.81613  1.0000
  F   F247      1.0  0.43381  0.52099  0.32350  1.0000
  F   F248      1.0  0.43391  0.52358  0.81026  1.0000
  F   F249      1.0  0.68147  0.00138  0.32568  1.0000
  F   F250      1.0  0.67575  0.02265  0.82983  1.0000
  F   F251      1.0  0.68568  0.51206  0.32061  1.0000
  F   F252      1.0  0.68452  0.51486  0.82187  1.0000
  F   F253      1.0  0.93318  0.01657  0.32222  1.0000
  F   F254      1.0  0.92581  0.01374  0.82343  1.0000
  F   F255      1.0  0.93487  0.51712  0.32519  1.0000
  F   F256      1.0  0.93562  0.51661  0.81258  1.0000
  F   F257      1.0  0.99863  0.24317  0.00405  1.0000
  F   F258      1.0  0.00372  0.24968  0.50128  1.0000
  F   F259      1.0  0.00600  0.75519  0.99116  1.0000
  F   F260      1.0  0.99606  0.73869  0.49685  1.0000
  F   F261      1.0  0.25001  0.25395  0.99590  1.0000
  F   F262      1.0  0.24818  0.23537  0.51073  1.0000
  F   F263      1.0  0.25055  0.75590  0.99808  1.0000
  F   F264      1.0  0.24711  0.76317  0.48958  1.0000
  F   F265      1.0  0.49876  0.26600  0.99332  1.0000
  F   F266      1.0  0.49786  0.24995  0.50173  1.0000
  F   F267      1.0  0.51038  0.76733  0.98644  1.0000
  F   F268      1.0  0.49941  0.75820  0.49923  1.0000
  F   F269      1.0  0.75416  0.26018  0.98150  1.0000
  F   F270      1.0  0.74133  0.22924  0.52161  1.0000
  F   F271      1.0  0.75081  0.74540  0.00484  1.0000
  F   F272      1.0  0.75211  0.76037  0.49226  1.0000
  F   F273      1.0  0.13105  0.00270  0.24274  1.0000
  F   F274      1.0  0.12196  0.99723  0.75408  1.0000
  F   F275      1.0  0.12000  0.50372  0.26564  1.0000
  F   F276      1.0  0.12812  0.50301  0.73824  1.0000
  F   F277      1.0  0.36527  0.99235  0.25811  1.0000
  F   F278      1.0  0.37208  0.00416  0.75389  1.0000
  F   F279      1.0  0.37721  0.50417  0.25183  1.0000
  F   F280      1.0  0.37388  0.49887  0.74997  1.0000
  F   F281      1.0  0.62716  0.00461  0.24839  1.0000
  F   F282      1.0  0.62387  0.99403  0.75843  1.0000
  F   F283      1.0  0.62893  0.50262  0.24599  1.0000
  F   F284      1.0  0.63613  0.50135  0.73526  1.0000
  F   F285      1.0  0.87236  0.99513  0.25907  1.0000
  F   F286      1.0  0.87042  0.98414  0.74497  1.0000
  F   F287      1.0  0.87835  0.49083  0.24399  1.0000
  F   F288      1.0  0.87492  0.49742  0.76158  1.0000
  F   F289      1.0  0.03674  0.03289  0.02944  1.0000
  F   F290      1.0  0.03891  0.02311  0.52900  1.0000
  F   F291      1.0  0.04506  0.52242  0.01731  1.0000
  F   F292      1.0  0.04975  0.52395  0.50925  1.0000
  F   F293      1.0  0.28957  0.03629  0.01669  1.0000
  F   F294      1.0  0.29826  0.04668  0.51064  1.0000
  F   F295      1.0  0.28943  0.53259  0.02502  1.0000
  F   F296      1.0  0.29477  0.53287  0.51449  1.0000
  F   F297      1.0  0.53267  0.04210  0.02403  1.0000
  F   F298      1.0  0.53924  0.03195  0.53864  1.0000
  F   F299      1.0  0.55009  0.53597  0.01316  1.0000
  F   F300      1.0  0.54486  0.53762  0.52171  1.0000
  F   F301      1.0  0.80432  0.02867  0.01936  1.0000
  F   F302      1.0  0.79476  0.03376  0.52959  1.0000
  F   F303      1.0  0.79522  0.53561  0.02598  1.0000
  F   F304      1.0  0.79908  0.51768  0.52913  1.0000
  F   F305      1.0  0.23273  0.41790  0.22966  1.0000
  F   F306      1.0  0.23432  0.43096  0.71354  1.0000
  F   F307      1.0  0.23334  0.92918  0.21563  1.0000
  F   F308      1.0  0.23118  0.92948  0.71788  1.0000
  F   F309      1.0  0.48035  0.42672  0.22334  1.0000
  F   F310      1.0  0.48805  0.41574  0.73013  1.0000
  F   F311      1.0  0.48205  0.90001  0.22976  1.0000
  F   F312      1.0  0.48605  0.89718  0.74716  1.0000
  F   F313      1.0  0.73413  0.41251  0.21895  1.0000
  F   F314      1.0  0.73737  0.41506  0.73855  1.0000
  F   F315      1.0  0.73188  0.91039  0.23183  1.0000
  F   F316      1.0  0.73127  0.91648  0.72139  1.0000
  F   F317      1.0  0.98783  0.42504  0.21505  1.0000
  F   F318      1.0  0.98553  0.40810  0.71379  1.0000
  F   F319      1.0  0.98854  0.91790  0.22117  1.0000
  F   F320      1.0  0.98363  0.89794  0.74206  1.0000
  F   F321      1.0  0.21274  0.48366  0.47101  1.0000
  F   F322      1.0  0.20264  0.47323  0.98348  1.0000
  F   F323      1.0  0.20602  0.96483  0.48662  1.0000
  F   F324      1.0  0.20253  0.97754  0.98210  1.0000
  F   F325      1.0  0.45646  0.47555  0.47820  1.0000
  F   F326      1.0  0.45438  0.48224  0.98001  1.0000
  F   F327      1.0  0.45922  0.96599  0.46625  1.0000
  F   F328      1.0  0.45241  0.97688  0.97561  1.0000
  F   F329      1.0  0.70622  0.46834  0.47680  1.0000
  F   F330      1.0  0.70911  0.45818  0.97535  1.0000
  F   F331      1.0  0.71170  0.96526  0.47509  1.0000
  F   F332      1.0  0.70162  0.96921  0.98437  1.0000
  F   F333      1.0  0.94773  0.48635  0.48929  1.0000
  F   F334      1.0  0.95582  0.45750  0.98115  1.0000
  F   F335      1.0  0.95416  0.97862  0.48168  1.0000
  F   F336      1.0  0.95240  0.97140  0.97863  1.0000
  F   F337      1.0  0.01789  0.08770  0.27469  1.0000
  F   F338      1.0  0.01586  0.06776  0.78458  1.0000
  F   F339      1.0  0.01547  0.58886  0.27917  1.0000
  F   F340      1.0  0.01226  0.57568  0.78802  1.0000
  F   F341      1.0  0.26308  0.06356  0.28738  1.0000
  F   F342      1.0  0.26700  0.08195  0.77441  1.0000
  F   F343      1.0  0.25981  0.59043  0.26444  1.0000
  F   F344      1.0  0.26651  0.58432  0.76565  1.0000
  F   F345      1.0  0.52290  0.07342  0.28521  1.0000
  F   F346      1.0  0.51718  0.09196  0.77416  1.0000
  F   F347      1.0  0.51209  0.58771  0.27794  1.0000
  F   F348      1.0  0.51727  0.60913  0.77059  1.0000
  F   F349      1.0  0.76355  0.07355  0.27070  1.0000
  F   F350      1.0  0.76228  0.09612  0.76504  1.0000
  F   F351      1.0  0.77114  0.57540  0.28006  1.0000
  F   F352      1.0  0.76749  0.58595  0.77343  1.0000
  F   F353      1.0  0.11494  0.38619  0.46934  1.0000
  F   F354      1.0  0.09941  0.40292  0.95304  1.0000
  F   F355      1.0  0.09805  0.90573  0.45534  1.0000
  F   F356      1.0  0.09851  0.90228  0.95603  1.0000
  F   F357      1.0  0.36155  0.42834  0.46076  1.0000
  F   F358      1.0  0.34992  0.41798  0.95261  1.0000
  F   F359      1.0  0.34508  0.90207  0.46150  1.0000
  F   F360      1.0  0.34730  0.91284  0.95990  1.0000
  F   F361      1.0  0.60111  0.39743  0.46604  1.0000
  F   F362      1.0  0.60335  0.41554  0.96108  1.0000
  F   F363      1.0  0.59735  0.91158  0.46885  1.0000
  F   F364      1.0  0.59384  0.92162  0.97610  1.0000
  F   F365      1.0  0.85882  0.41591  0.45519  1.0000
  F   F366      1.0  0.85684  0.40283  0.96252  1.0000
  F   F367      1.0  0.85433  0.90699  0.46707  1.0000
  F   F368      1.0  0.84506  0.89524  0.97606  1.0000
  F   F369      1.0  0.04895  0.31015  0.27630  1.0000
  F   F370      1.0  0.04527  0.29184  0.79030  1.0000
  F   F371      1.0  0.04320  0.80675  0.28010  1.0000
  F   F372      1.0  0.05428  0.79082  0.77814  1.0000
  F   F373      1.0  0.29530  0.30823  0.28399  1.0000
  F   F374      1.0  0.29888  0.31061  0.77598  1.0000
  F   F375      1.0  0.29079  0.79974  0.28380  1.0000
  F   F376      1.0  0.29368  0.81100  0.78950  1.0000
  F   F377      1.0  0.54553  0.29594  0.28432  1.0000
  F   F378      1.0  0.54676  0.29398  0.78788  1.0000
  F   F379      1.0  0.53777  0.78975  0.30286  1.0000
  F   F380      1.0  0.55820  0.79894  0.79079  1.0000
  F   F381      1.0  0.79427  0.30315  0.29288  1.0000
  F   F382      1.0  0.80277  0.30220  0.77292  1.0000
  F   F383      1.0  0.79750  0.79804  0.29922  1.0000
  F   F384      1.0  0.79666  0.78942  0.77354  1.0000
