data_image0
_chemical_formula_structural       Hf96F384
_chemical_formula_sum              "Hf96 F384"
_cell_length_a       31.0219
_cell_length_b       15.5104
_cell_length_c       15.5008
_cell_angle_alpha    63.342
_cell_angle_beta     63.342
_cell_angle_gamma    80.1625

_space_group_name_H-M_alt    "P 1"
_space_group_IT_number       1

loop_
  _space_group_symop_operation_xyz
  'x, y, z'

loop_
  _atom_site_type_symbol
  _atom_site_label
  _atom_site_symmetry_multiplicity
  _atom_site_fract_x
  _atom_site_fract_y
  _atom_site_fract_z
  _atom_site_occupancy
  Hf  Hf1       1.0  0.19544  0.10342  0.37864  1.0000
  Hf  Hf2       1.0  0.19903  0.10358  0.87698  1.0000
  Hf  Hf3       1.0  0.18949  0.60391  0.38143  1.0000
  Hf  Hf4       1.0  0.19548  0.60357  0.88320  1.0000
  Hf  Hf5       1.0  0.44799  0.10780  0.37809  1.0000
  Hf  Hf6       1.0  0.44612  0.10615  0.87458  1.0000
  Hf  Hf7       1.0  0.44734  0.61265  0.37072  1.0000
  Hf  Hf8       1.0  0.44537  0.61034  0.87701  1.0000
  Hf  Hf9       1.0  0.69250  0.10623  0.38145  1.0000
  Hf  Hf10      1.0  0.69407  0.10725  0.87750  1.0000
  Hf  Hf11      1.0  0.69469  0.60845  0.37738  1.0000
  Hf  Hf12      1.0  0.69825  0.61022  0.87160  1.0000
  Hf  Hf13      1.0  0.94749  0.10150  0.37442  1.0000
  Hf  Hf14      1.0  0.95200  0.10885  0.87253  1.0000
  Hf  Hf15      1.0  0.94082  0.60189  0.38375  1.0000
  Hf  Hf16      1.0  0.95013  0.60591  0.87110  1.0000
  Hf  Hf17      1.0  0.05583  0.38309  0.12701  1.0000
  Hf  Hf18      1.0  0.05539  0.39407  0.61590  1.0000
  Hf  Hf19      1.0  0.05515  0.89045  0.11710  1.0000
  Hf  Hf20      1.0  0.05352  0.88473  0.62559  1.0000
  Hf  Hf21      1.0  0.30216  0.39265  0.12543  1.0000
  Hf  Hf22      1.0  0.30459  0.39160  0.62127  1.0000
  Hf  Hf23      1.0  0.30039  0.88438  0.13774  1.0000
  Hf  Hf24      1.0  0.30148  0.89038  0.63196  1.0000
  Hf  Hf25      1.0  0.55560  0.40029  0.12159  1.0000
  Hf  Hf26      1.0  0.55190  0.39570  0.62628  1.0000
  Hf  Hf27      1.0  0.54849  0.89384  0.12373  1.0000
  Hf  Hf28      1.0  0.55416  0.89808  0.61709  1.0000
  Hf  Hf29      1.0  0.80110  0.39240  0.11895  1.0000
  Hf  Hf30      1.0  0.80218  0.38138  0.64112  1.0000
  Hf  Hf31      1.0  0.80283  0.89618  0.11554  1.0000
  Hf  Hf32      1.0  0.80598  0.90213  0.61431  1.0000
  Hf  Hf33      1.0  0.05665  0.17841  0.41683  1.0000
  Hf  Hf34      1.0  0.06311  0.18786  0.90580  1.0000
  Hf  Hf35      1.0  0.05223  0.68512  0.41658  1.0000
  Hf  Hf36      1.0  0.05568  0.68440  0.92127  1.0000
  Hf  Hf37      1.0  0.30808  0.17785  0.41665  1.0000
  Hf  Hf38      1.0  0.30906  0.17824  0.91231  1.0000
  Hf  Hf39      1.0  0.30330  0.67837  0.42269  1.0000
  Hf  Hf40      1.0  0.30355  0.68035  0.91992  1.0000
  Hf  Hf41      1.0  0.55249  0.18697  0.41690  1.0000
  Hf  Hf42      1.0  0.55360  0.18922  0.92183  1.0000
  Hf  Hf43      1.0  0.55663  0.69311  0.40816  1.0000
  Hf  Hf44      1.0  0.55604  0.68347  0.92043  1.0000
  Hf  Hf45      1.0  0.80697  0.19010  0.41045  1.0000
  Hf  Hf46      1.0  0.80838  0.17432  0.91464  1.0000
  Hf  Hf47      1.0  0.80268  0.67381  0.42538  1.0000
  Hf  Hf48      1.0  0.81043  0.69686  0.90738  1.0000
  Hf  Hf49      1.0  0.16186  0.37863  0.33723  1.0000
  Hf  Hf50      1.0  0.16433  0.38719  0.83038  1.0000
  Hf  Hf51      1.0  0.15784  0.88575  0.34021  1.0000
  Hf  Hf52      1.0  0.16136  0.88841  0.83667  1.0000
  Hf  Hf53      1.0  0.40919  0.38869  0.32565  1.0000
  Hf  Hf54      1.0  0.40516  0.39050  0.83052  1.0000
  Hf  Hf55      1.0  0.40478  0.88509  0.33747  1.0000
  Hf  Hf56      1.0  0.40933  0.88695  0.83257  1.0000
  Hf  Hf57      1.0  0.65727  0.39032  0.32976  1.0000
  Hf  Hf58      1.0  0.65428  0.39096  0.83445  1.0000
  Hf  Hf59      1.0  0.65853  0.90085  0.32675  1.0000
  Hf  Hf60      1.0  0.65554  0.88379  0.83613  1.0000
  Hf  Hf61      1.0  0.91312  0.38939  0.32767  1.0000
  Hf  Hf62      1.0  0.90757  0.38533  0.83443  1.0000
  Hf  Hf63      1.0  0.91119  0.88579  0.32749  1.0000
  Hf  Hf64      1.0  0.91190  0.89090  0.82854  1.0000
  Hf  Hf65      1.0  0.19637  0.31037  0.08234  1.0000
  Hf  Hf66      1.0  0.19771  0.31459  0.58779  1.0000
  Hf  Hf67      1.0  0.19351  0.80950  0.09712  1.0000
  Hf  Hf68      1.0  0.19437  0.81379  0.59030  1.0000
  Hf  Hf69      1.0  0.44348  0.31503  0.08589  1.0000
  Hf  Hf70      1.0  0.44282  0.32360  0.57950  1.0000
  Hf  Hf71      1.0  0.44019  0.81507  0.09396  1.0000
  Hf  Hf72      1.0  0.44308  0.81559  0.58629  1.0000
  Hf  Hf73      1.0  0.69612  0.31895  0.07738  1.0000
  Hf  Hf74      1.0  0.69532  0.32851  0.57407  1.0000
  Hf  Hf75      1.0  0.69223  0.82397  0.07631  1.0000
  Hf  Hf76      1.0  0.69206  0.82324  0.57616  1.0000
  Hf  Hf77      1.0  0.94350  0.31937  0.08094  1.0000
  Hf  Hf78      1.0  0.94775  0.31643  0.57787  1.0000
  Hf  Hf79      1.0  0.94104  0.81931  0.08093  1.0000
  Hf  Hf80      1.0  0.94413  0.81706  0.58003  1.0000
  Hf  Hf81      1.0  0.09210  0.10927  0.16768  1.0000
  Hf  Hf82      1.0  0.09572  0.11288  0.66374  1.0000
  Hf  Hf83      1.0  0.09184  0.59823  0.17285  1.0000
  Hf  Hf84      1.0  0.09122  0.60067  0.67285  1.0000
  Hf  Hf85      1.0  0.33941  0.10687  0.16956  1.0000
  Hf  Hf86      1.0  0.34003  0.11035  0.66736  1.0000
  Hf  Hf87      1.0  0.33905  0.60848  0.16651  1.0000
  Hf  Hf88      1.0  0.33917  0.60971  0.67127  1.0000
  Hf  Hf89      1.0  0.58912  0.11842  0.16761  1.0000
  Hf  Hf90      1.0  0.59047  0.11331  0.66985  1.0000
  Hf  Hf91      1.0  0.58913  0.61351  0.16861  1.0000
  Hf  Hf92      1.0  0.59183  0.61327  0.66808  1.0000
  Hf  Hf93      1.0  0.85043  0.11568  0.15759  1.0000
  Hf  Hf94      1.0  0.84016  0.11147  0.65789  1.0000
  Hf  Hf95      1.0  0.84247  0.61456  0.16061  1.0000
  Hf  Hf96      1.0  0.84119  0.61205  0.67155  1.0000
  F   F1        1.0  0.08365  0.11961  0.30815  1.0000
  F   F2        1.0  0.08876  0.13175  0.80152  1.0000
  F   F3        1.0  0.07458  0.62300  0.30606  1.0000
  F   F4        1.0  0.08089  0.62450  0.81396  1.0000
  F   F5        1.0  0.32882  0.12278  0.30579  1.0000
  F   F6        1.0  0.33549  0.12591  0.79517  1.0000
  F   F7        1.0  0.32554  0.62256  0.31390  1.0000
  F   F8        1.0  0.32288  0.62607  0.81573  1.0000
  F   F9        1.0  0.57517  0.11923  0.30902  1.0000
  F   F10       1.0  0.58659  0.13945  0.79901  1.0000
  F   F11       1.0  0.58175  0.62954  0.30071  1.0000
  F   F12       1.0  0.57840  0.63266  0.80888  1.0000
  F   F13       1.0  0.82953  0.13890  0.30265  1.0000
  F   F14       1.0  0.83782  0.13994  0.78737  1.0000
  F   F15       1.0  0.83640  0.63595  0.29010  1.0000
  F   F16       1.0  0.82624  0.63629  0.80229  1.0000
  F   F17       1.0  0.18340  0.33857  0.45491  1.0000
  F   F18       1.0  0.19219  0.34264  0.94468  1.0000
  F   F19       1.0  0.18834  0.85090  0.44345  1.0000
  F   F20       1.0  0.19569  0.84444  0.94258  1.0000
  F   F21       1.0  0.42766  0.34799  0.45213  1.0000
  F   F22       1.0  0.42346  0.33237  0.95482  1.0000
  F   F23       1.0  0.42995  0.85390  0.44319  1.0000
  F   F24       1.0  0.42603  0.84381  0.96186  1.0000
  F   F25       1.0  0.69143  0.35060  0.43607  1.0000
  F   F26       1.0  0.68092  0.33555  0.95311  1.0000
  F   F27       1.0  0.68194  0.84714  0.44260  1.0000
  F   F28       1.0  0.69066  0.85699  0.93807  1.0000
  F   F29       1.0  0.95116  0.35486  0.43388  1.0000
  F   F30       1.0  0.93169  0.33801  0.95345  1.0000
  F   F31       1.0  0.93541  0.84147  0.43862  1.0000
  F   F32       1.0  0.93858  0.83825  0.94250  1.0000
  F   F33       1.0  0.17103  0.36126  0.20302  1.0000
  F   F34       1.0  0.16944  0.35787  0.70604  1.0000
  F   F35       1.0  0.17298  0.88671  0.18736  1.0000
  F   F36       1.0  0.17162  0.86161  0.69867  1.0000
  F   F37       1.0  0.42352  0.38089  0.18751  1.0000
  F   F38       1.0  0.41939  0.37015  0.69463  1.0000
  F   F39       1.0  0.42337  0.87773  0.19744  1.0000
  F   F40       1.0  0.42403  0.87010  0.69423  1.0000
  F   F41       1.0  0.67889  0.36817  0.18771  1.0000
  F   F42       1.0  0.67403  0.38274  0.69368  1.0000
  F   F43       1.0  0.66927  0.87407  0.19021  1.0000
  F   F44       1.0  0.65694  0.87032  0.70043  1.0000
  F   F45       1.0  0.92986  0.38121  0.18340  1.0000
  F   F46       1.0  0.92594  0.37901  0.68687  1.0000
  F   F47       1.0  0.92129  0.87376  0.18641  1.0000
  F   F48       1.0  0.92397  0.88258  0.69196  1.0000
  F   F49       1.0  0.06332  0.16210  0.05109  1.0000
  F   F50       1.0  0.06675  0.16823  0.54712  1.0000
  F   F51       1.0  0.06914  0.64993  0.05122  1.0000
  F   F52       1.0  0.06774  0.66099  0.54605  1.0000
  F   F53       1.0  0.31495  0.14801  0.05573  1.0000
  F   F54       1.0  0.30579  0.15691  0.56081  1.0000
  F   F55       1.0  0.31597  0.67003  0.04504  1.0000
  F   F56       1.0  0.30535  0.65562  0.56895  1.0000
  F   F57       1.0  0.55821  0.15856  0.06610  1.0000
  F   F58       1.0  0.56137  0.15599  0.55261  1.0000
  F   F59       1.0  0.55265  0.65397  0.07252  1.0000
  F   F60       1.0  0.56135  0.66605  0.55698  1.0000
  F   F61       1.0  0.82274  0.16539  0.04398  1.0000
  F   F62       1.0  0.82106  0.17816  0.53667  1.0000
  F   F63       1.0  0.82346  0.66220  0.04357  1.0000
  F   F64       1.0  0.81331  0.66984  0.54754  1.0000
  F   F65       1.0  0.20403  0.19790  0.21113  1.0000
  F   F66       1.0  0.20333  0.19220  0.72071  1.0000
  F   F67       1.0  0.19492  0.69796  0.22583  1.0000
  F   F68       1.0  0.20694  0.70125  0.70971  1.0000
  F   F69       1.0  0.45643  0.20469  0.19932  1.0000
  F   F70       1.0  0.45173  0.20764  0.70099  1.0000
  F   F71       1.0  0.45826  0.70601  0.21144  1.0000
  F   F72       1.0  0.45072  0.70517  0.71548  1.0000
  F   F73       1.0  0.70878  0.20428  0.21102  1.0000
  F   F74       1.0  0.69682  0.20508  0.70250  1.0000
  F   F75       1.0  0.70155  0.70981  0.22011  1.0000
  F   F76       1.0  0.71005  0.71085  0.70593  1.0000
  F   F77       1.0  0.96008  0.20016  0.22059  1.0000
  F   F78       1.0  0.95112  0.20900  0.72254  1.0000
  F   F79       1.0  0.94034  0.69296  0.21844  1.0000
  F   F80       1.0  0.95603  0.70571  0.70168  1.0000
  F   F81       1.0  0.15213  0.08730  0.04425  1.0000
  F   F82       1.0  0.15435  0.08895  0.54683  1.0000
  F   F83       1.0  0.14919  0.57171  0.04698  1.0000
  F   F84       1.0  0.14886  0.59153  0.53817  1.0000
  F   F85       1.0  0.39913  0.08997  0.03355  1.0000
  F   F86       1.0  0.39487  0.09525  0.53160  1.0000
  F   F87       1.0  0.40145  0.59629  0.05313  1.0000
  F   F88       1.0  0.39799  0.60931  0.54044  1.0000
  F   F89       1.0  0.64990  0.11804  0.03187  1.0000
  F   F90       1.0  0.64381  0.08317  0.54562  1.0000
  F   F91       1.0  0.64544  0.60388  0.03294  1.0000
  F   F92       1.0  0.64763  0.59533  0.54876  1.0000
  F   F93       1.0  0.90221  0.07155  0.04955  1.0000
  F   F94       1.0  0.89540  0.08041  0.53015  1.0000
  F   F95       1.0  0.90057  0.58775  0.03281  1.0000
  F   F96       1.0  0.89915  0.59648  0.54571  1.0000
  F   F97       1.0  0.15062  0.19612  0.11680  1.0000
  F   F98       1.0  0.15018  0.20492  0.62751  1.0000
  F   F99       1.0  0.14899  0.68939  0.12203  1.0000
  F   F100      1.0  0.14643  0.69311  0.62785  1.0000
  F   F101      1.0  0.40254  0.18988  0.13442  1.0000
  F   F102      1.0  0.40275  0.19764  0.61478  1.0000
  F   F103      1.0  0.39870  0.70081  0.14886  1.0000
  F   F104      1.0  0.39853  0.70351  0.62908  1.0000
  F   F105      1.0  0.65291  0.19803  0.13873  1.0000
  F   F106      1.0  0.64798  0.21003  0.61487  1.0000
  F   F107      1.0  0.64853  0.70344  0.12239  1.0000
  F   F108      1.0  0.65384  0.69456  0.63297  1.0000
  F   F109      1.0  0.90842  0.18732  0.12539  1.0000
  F   F110      1.0  0.90524  0.20058  0.60540  1.0000
  F   F111      1.0  0.89971  0.70260  0.10388  1.0000
  F   F112      1.0  0.89903  0.70904  0.62674  1.0000
  F   F113      1.0  0.10308  0.29736  0.38106  1.0000
  F   F114      1.0  0.09997  0.30920  0.87019  1.0000
  F   F115      1.0  0.09907  0.81574  0.36464  1.0000
  F   F116      1.0  0.10102  0.81284  0.87549  1.0000
  F   F117      1.0  0.35179  0.29532  0.37739  1.0000
  F   F118      1.0  0.34788  0.30192  0.87942  1.0000
  F   F119      1.0  0.34814  0.79259  0.37153  1.0000
  F   F120      1.0  0.35344  0.79876  0.85195  1.0000
  F   F121      1.0  0.60036  0.30678  0.37339  1.0000
  F   F122      1.0  0.59538  0.31008  0.88627  1.0000
  F   F123      1.0  0.59179  0.81368  0.37082  1.0000
  F   F124      1.0  0.59957  0.80565  0.87864  1.0000
  F   F125      1.0  0.85206  0.31517  0.36358  1.0000
  F   F126      1.0  0.84979  0.30440  0.87187  1.0000
  F   F127      1.0  0.85228  0.80537  0.35951  1.0000
  F   F128      1.0  0.84599  0.81386  0.87196  1.0000
  F   F129      1.0  0.06032  0.23622  0.16110  1.0000
  F   F130      1.0  0.06922  0.25049  0.63594  1.0000
  F   F131      1.0  0.05610  0.74645  0.15446  1.0000
  F   F132      1.0  0.05653  0.73961  0.66287  1.0000
  F   F133      1.0  0.32102  0.25190  0.13038  1.0000
  F   F134      1.0  0.30384  0.24253  0.65173  1.0000
  F   F135      1.0  0.31339  0.74645  0.15105  1.0000
  F   F136      1.0  0.30700  0.74365  0.66026  1.0000
  F   F137      1.0  0.57261  0.25795  0.12262  1.0000
  F   F138      1.0  0.56570  0.25386  0.63515  1.0000
  F   F139      1.0  0.56497  0.75574  0.13324  1.0000
  F   F140      1.0  0.56985  0.75351  0.63646  1.0000
  F   F141      1.0  0.82045  0.25135  0.12597  1.0000
  F   F142      1.0  0.81836  0.25173  0.64117  1.0000
  F   F143      1.0  0.81308  0.75841  0.13304  1.0000
  F   F144      1.0  0.81027  0.75966  0.64764  1.0000
  F   F145      1.0  0.12634  0.36724  0.10531  1.0000
  F   F146      1.0  0.12685  0.37889  0.60166  1.0000
  F   F147      1.0  0.12215  0.85901  0.11721  1.0000
  F   F148      1.0  0.12802  0.86200  0.61200  1.0000
  F   F149      1.0  0.37511  0.36985  0.11023  1.0000
  F   F150      1.0  0.37272  0.36465  0.61114  1.0000
  F   F151      1.0  0.37447  0.87020  0.11660  1.0000
  F   F152      1.0  0.37332  0.86932  0.61236  1.0000
  F   F153      1.0  0.62946  0.37802  0.10572  1.0000
  F   F154      1.0  0.62310  0.38262  0.59919  1.0000
  F   F155      1.0  0.62454  0.89157  0.08828  1.0000
  F   F156      1.0  0.62463  0.88834  0.58901  1.0000
  F   F157      1.0  0.87642  0.35759  0.11340  1.0000
  F   F158      1.0  0.87664  0.37211  0.60921  1.0000
  F   F159      1.0  0.87402  0.86677  0.10931  1.0000
  F   F160      1.0  0.87380  0.86770  0.61979  1.0000
  F   F161      1.0  0.18942  0.24078  0.36065  1.0000
  F   F162      1.0  0.18742  0.24641  0.86823  1.0000
  F   F163      1.0  0.18661  0.74407  0.35923  1.0000
  F   F164      1.0  0.18481  0.74777  0.86572  1.0000
  F   F165      1.0  0.43988  0.24921  0.35271  1.0000
  F   F166      1.0  0.43463  0.24368  0.84831  1.0000
  F   F167      1.0  0.43580  0.75214  0.35164  1.0000
  F   F168      1.0  0.43309  0.75259  0.86044  1.0000
  F   F169      1.0  0.68352  0.24463  0.36441  1.0000
  F   F170      1.0  0.68898  0.25549  0.84494  1.0000
  F   F171      1.0  0.68099  0.75727  0.36167  1.0000
  F   F172      1.0  0.68283  0.74669  0.86822  1.0000
  F   F173      1.0  0.92881  0.24313  0.38772  1.0000
  F   F174      1.0  0.92485  0.23349  0.87881  1.0000
  F   F175      1.0  0.93857  0.74602  0.34842  1.0000
  F   F176      1.0  0.93996  0.75378  0.84662  1.0000
  F   F177      1.0  0.12607  0.12424  0.41140  1.0000
  F   F178      1.0  0.12938  0.13107  0.90327  1.0000
  F   F179      1.0  0.12501  0.62721  0.38199  1.0000
  F   F180      1.0  0.12983  0.64225  0.88323  1.0000
  F   F181      1.0  0.37610  0.13953  0.38204  1.0000
  F   F182      1.0  0.37727  0.12044  0.89056  1.0000
  F   F183      1.0  0.37033  0.62079  0.40365  1.0000
  F   F184      1.0  0.37209  0.61218  0.91762  1.0000
  F   F185      1.0  0.62472  0.14344  0.38018  1.0000
  F   F186      1.0  0.62389  0.13772  0.89505  1.0000
  F   F187      1.0  0.62580  0.64140  0.38468  1.0000
  F   F188      1.0  0.62749  0.63261  0.89385  1.0000
  F   F189      1.0  0.87848  0.14017  0.37716  1.0000
  F   F190      1.0  0.87403  0.11045  0.91596  1.0000
  F   F191      1.0  0.86953  0.59511  0.43048  1.0000
  F   F192      1.0  0.88099  0.65733  0.86932  1.0000
  F   F193      1.0  0.01458  0.36796  0.06717  1.0000
  F   F194      1.0  0.01189  0.35899  0.57366  1.0000
  F   F195      1.0  0.00848  0.86512  0.06552  1.0000
  F   F196      1.0  0.01123  0.86774  0.56069  1.0000
  F   F197      1.0  0.26026  0.35650  0.06765  1.0000
  F   F198      1.0  0.25384  0.36429  0.58317  1.0000
  F   F199      1.0  0.25514  0.84762  0.07951  1.0000
  F   F200      1.0  0.25706  0.86219  0.57702  1.0000
  F   F201      1.0  0.50691  0.36282  0.08209  1.0000
  F   F202      1.0  0.51462  0.36489  0.56864  1.0000
  F   F203      1.0  0.50467  0.87002  0.06798  1.0000
  F   F204      1.0  0.50940  0.84876  0.57565  1.0000
  F   F205      1.0  0.76011  0.36019  0.06212  1.0000
  F   F206      1.0  0.76297  0.35102  0.58609  1.0000
  F   F207      1.0  0.75426  0.86443  0.06715  1.0000
  F   F208      1.0  0.75347  0.87230  0.57172  1.0000
  F   F209      1.0  0.06942  0.47089  0.18816  1.0000
  F   F210      1.0  0.06479  0.48214  0.67805  1.0000
  F   F211      1.0  0.07058  0.98573  0.16503  1.0000
  F   F212      1.0  0.06873  0.99706  0.67250  1.0000
  F   F213      1.0  0.31222  0.48236  0.19211  1.0000
  F   F214      1.0  0.32235  0.48177  0.67978  1.0000
  F   F215      1.0  0.30931  0.98103  0.18955  1.0000
  F   F216      1.0  0.31673  0.97793  0.68380  1.0000
  F   F217      1.0  0.56895  0.47885  0.18419  1.0000
  F   F218      1.0  0.56851  0.48389  0.67428  1.0000
  F   F219      1.0  0.56272  0.98843  0.19134  1.0000
  F   F220      1.0  0.56870  0.98506  0.67513  1.0000
  F   F221      1.0  0.81696  0.48594  0.16540  1.0000
  F   F222      1.0  0.81883  0.48846  0.67764  1.0000
  F   F223      1.0  0.81749  0.98071  0.17398  1.0000
  F   F224      1.0  0.82060  0.98740  0.67156  1.0000
  F   F225      1.0  0.24489  0.13757  0.43118  1.0000
  F   F226      1.0  0.24873  0.13443  0.92066  1.0000
  F   F227      1.0  0.24239  0.63390  0.42977  1.0000
  F   F228      1.0  0.23918  0.63469  0.93208  1.0000
  F   F229      1.0  0.48614  0.12089  0.45382  1.0000
  F   F230      1.0  0.49182  0.14787  0.93164  1.0000
  F   F231      1.0  0.49302  0.63571  0.42482  1.0000
  F   F232      1.0  0.49158  0.64013  0.92729  1.0000
  F   F233      1.0  0.74190  0.13662  0.44860  1.0000
  F   F234      1.0  0.74961  0.14008  0.90753  1.0000
  F   F235      1.0  0.74500  0.63416  0.42843  1.0000
  F   F236      1.0  0.74198  0.64351  0.91774  1.0000
  F   F237      1.0  0.99260  0.13058  0.42375  1.0000
  F   F238      1.0  0.99431  0.13559  0.92941  1.0000
  F   F239      1.0  0.99249  0.63747  0.42180  1.0000
  F   F240      1.0  0.99661  0.62591  0.92757  1.0000
  F   F241      1.0  0.17458  0.01085  0.33612  1.0000
  F   F242      1.0  0.18279  0.02041  0.82366  1.0000
  F   F243      1.0  0.18347  0.51181  0.32468  1.0000
  F   F244      1.0  0.17996  0.51818  0.81916  1.0000
  F   F245      1.0  0.42881  0.02182  0.33819  1.0000
  F   F246      1.0  0.43451  0.00679  0.82060  1.0000
  F   F247      1.0  0.42744  0.51242  0.33583  1.0000
  F   F248      1.0  0.43094  0.51213  0.82720  1.0000
  F   F249      1.0  0.67725  0.02605  0.32608  1.0000
  F   F250      1.0  0.67717  0.03029  0.82401  1.0000
  F   F251      1.0  0.68298  0.51415  0.33001  1.0000
  F   F252      1.0  0.67825  0.51907  0.82363  1.0000
  F   F253      1.0  0.92795  0.01917  0.32029  1.0000
  F   F254      1.0  0.93138  0.01618  0.81547  1.0000
  F   F255      1.0  0.93086  0.51176  0.32781  1.0000
  F   F256      1.0  0.93344  0.52247  0.82215  1.0000
  F   F257      1.0  0.99842  0.25188  0.99128  1.0000
  F   F258      1.0  0.99592  0.23126  0.51234  1.0000
  F   F259      1.0  0.99758  0.73452  0.01904  1.0000
  F   F260      1.0  0.00035  0.76888  0.48219  1.0000
  F   F261      1.0  0.25000  0.23726  0.00937  1.0000
  F   F262      1.0  0.25644  0.26014  0.49366  1.0000
  F   F263      1.0  0.24665  0.72804  0.02423  1.0000
  F   F264      1.0  0.24989  0.75180  0.50720  1.0000
  F   F265      1.0  0.50467  0.28999  0.97370  1.0000
  F   F266      1.0  0.49832  0.26215  0.48190  1.0000
  F   F267      1.0  0.49602  0.76636  0.99014  1.0000
  F   F268      1.0  0.49201  0.73677  0.51052  1.0000
  F   F269      1.0  0.74871  0.23422  0.00384  1.0000
  F   F270      1.0  0.75780  0.28615  0.47393  1.0000
  F   F271      1.0  0.74836  0.74465  0.00038  1.0000
  F   F272      1.0  0.75224  0.76936  0.48443  1.0000
  F   F273      1.0  0.12335  0.99301  0.26195  1.0000
  F   F274      1.0  0.12392  0.00725  0.76184  1.0000
  F   F275      1.0  0.13562  0.49898  0.23838  1.0000
  F   F276      1.0  0.13491  0.49780  0.73347  1.0000
  F   F277      1.0  0.37202  0.99849  0.25683  1.0000
  F   F278      1.0  0.37310  0.99487  0.75327  1.0000
  F   F279      1.0  0.37725  0.49837  0.24421  1.0000
  F   F280      1.0  0.38328  0.51266  0.74029  1.0000
  F   F281      1.0  0.63060  0.00903  0.23308  1.0000
  F   F282      1.0  0.62009  0.00119  0.75446  1.0000
  F   F283      1.0  0.62900  0.50512  0.24379  1.0000
  F   F284      1.0  0.62509  0.49870  0.74147  1.0000
  F   F285      1.0  0.87340  0.99016  0.25204  1.0000
  F   F286      1.0  0.87065  0.99476  0.74646  1.0000
  F   F287      1.0  0.87185  0.49632  0.25265  1.0000
  F   F288      1.0  0.87344  0.50486  0.75528  1.0000
  F   F289      1.0  0.04771  0.02723  0.01367  1.0000
  F   F290      1.0  0.03561  0.03104  0.53529  1.0000
  F   F291      1.0  0.05312  0.52089  0.02479  1.0000
  F   F292      1.0  0.03983  0.53818  0.52838  1.0000
  F   F293      1.0  0.29599  0.01251  0.02456  1.0000
  F   F294      1.0  0.29881  0.02807  0.51682  1.0000
  F   F295      1.0  0.28859  0.52788  0.03512  1.0000
  F   F296      1.0  0.29628  0.52748  0.52690  1.0000
  F   F297      1.0  0.54256  0.03952  0.02339  1.0000
  F   F298      1.0  0.55247  0.03137  0.50553  1.0000
  F   F299      1.0  0.53608  0.53469  0.03449  1.0000
  F   F300      1.0  0.55005  0.53539  0.51350  1.0000
  F   F301      1.0  0.78720  0.03778  0.02742  1.0000
  F   F302      1.0  0.79821  0.04467  0.52167  1.0000
  F   F303      1.0  0.80293  0.53615  0.00554  1.0000
  F   F304      1.0  0.78827  0.52893  0.53638  1.0000
  F   F305      1.0  0.23778  0.40325  0.23708  1.0000
  F   F306      1.0  0.23684  0.41570  0.72236  1.0000
  F   F307      1.0  0.22934  0.90282  0.23053  1.0000
  F   F308      1.0  0.23366  0.92247  0.71811  1.0000
  F   F309      1.0  0.48665  0.41268  0.23972  1.0000
  F   F310      1.0  0.47970  0.39931  0.74248  1.0000
  F   F311      1.0  0.48364  0.91639  0.22583  1.0000
  F   F312      1.0  0.48348  0.90605  0.73556  1.0000
  F   F313      1.0  0.73503  0.42368  0.20770  1.0000
  F   F314      1.0  0.73656  0.40843  0.74837  1.0000
  F   F315      1.0  0.73205  0.91513  0.22315  1.0000
  F   F316      1.0  0.72725  0.92350  0.73174  1.0000
  F   F317      1.0  0.98878  0.40075  0.23118  1.0000
  F   F318      1.0  0.98299  0.40819  0.73457  1.0000
  F   F319      1.0  0.98523  0.92477  0.22035  1.0000
  F   F320      1.0  0.98939  0.91370  0.72909  1.0000
  F   F321      1.0  0.20409  0.47189  0.48254  1.0000
  F   F322      1.0  0.20704  0.46151  0.98292  1.0000
  F   F323      1.0  0.21352  0.97310  0.47655  1.0000
  F   F324      1.0  0.21216  0.96926  0.98371  1.0000
  F   F325      1.0  0.45435  0.47802  0.47812  1.0000
  F   F326      1.0  0.45016  0.46621  0.97970  1.0000
  F   F327      1.0  0.45871  0.96126  0.48791  1.0000
  F   F328      1.0  0.45669  0.97606  0.97915  1.0000
  F   F329      1.0  0.71184  0.47960  0.48107  1.0000
  F   F330      1.0  0.71090  0.47900  0.96842  1.0000
  F   F331      1.0  0.70252  0.96888  0.47559  1.0000
  F   F332      1.0  0.70466  0.98668  0.98116  1.0000
  F   F333      1.0  0.95373  0.46967  0.48442  1.0000
  F   F334      1.0  0.95811  0.46455  0.97604  1.0000
  F   F335      1.0  0.95696  0.96464  0.47930  1.0000
  F   F336      1.0  0.96160  0.96486  0.96334  1.0000
  F   F337      1.0  0.01738  0.07730  0.27629  1.0000
  F   F338      1.0  0.01807  0.09361  0.76623  1.0000
  F   F339      1.0  0.01021  0.58558  0.27441  1.0000
  F   F340      1.0  0.01864  0.57648  0.77988  1.0000
  F   F341      1.0  0.26553  0.08531  0.26732  1.0000
  F   F342      1.0  0.27014  0.09087  0.76829  1.0000
  F   F343      1.0  0.26280  0.59075  0.27100  1.0000
  F   F344      1.0  0.26395  0.57718  0.77641  1.0000
  F   F345      1.0  0.51358  0.10125  0.27219  1.0000
  F   F346      1.0  0.51457  0.09229  0.78094  1.0000
  F   F347      1.0  0.51439  0.57325  0.28705  1.0000
  F   F348      1.0  0.51068  0.58359  0.77761  1.0000
  F   F349      1.0  0.76161  0.09090  0.27845  1.0000
  F   F350      1.0  0.76277  0.09584  0.75673  1.0000
  F   F351      1.0  0.76747  0.60119  0.25660  1.0000
  F   F352      1.0  0.76690  0.58493  0.76533  1.0000
  F   F353      1.0  0.09879  0.41167  0.46477  1.0000
  F   F354      1.0  0.10220  0.39446  0.96047  1.0000
  F   F355      1.0  0.10148  0.90857  0.46813  1.0000
  F   F356      1.0  0.10642  0.90598  0.96151  1.0000
  F   F357      1.0  0.34387  0.40442  0.47039  1.0000
  F   F358      1.0  0.34804  0.40981  0.96448  1.0000
  F   F359      1.0  0.34753  0.91046  0.45002  1.0000
  F   F360      1.0  0.34631  0.89332  0.96752  1.0000
  F   F361      1.0  0.60510  0.40775  0.45758  1.0000
  F   F362      1.0  0.59460  0.42762  0.95720  1.0000
  F   F363      1.0  0.59678  0.90581  0.46103  1.0000
  F   F364      1.0  0.60145  0.90287  0.95723  1.0000
  F   F365      1.0  0.85498  0.39908  0.46224  1.0000
  F   F366      1.0  0.85405  0.40354  0.96515  1.0000
  F   F367      1.0  0.84767  0.90068  0.46786  1.0000
  F   F368      1.0  0.85161  0.91306  0.96246  1.0000
  F   F369      1.0  0.04868  0.29083  0.29922  1.0000
  F   F370      1.0  0.04598  0.30125  0.78328  1.0000
  F   F371      1.0  0.04583  0.79999  0.29315  1.0000
  F   F372      1.0  0.04803  0.81028  0.79476  1.0000
  F   F373      1.0  0.30174  0.29710  0.28397  1.0000
  F   F374      1.0  0.30171  0.29606  0.78750  1.0000
  F   F375      1.0  0.29553  0.79599  0.29551  1.0000
  F   F376      1.0  0.28815  0.79995  0.80414  1.0000
  F   F377      1.0  0.54869  0.29134  0.28740  1.0000
  F   F378      1.0  0.54697  0.30582  0.78748  1.0000
  F   F379      1.0  0.54137  0.79837  0.28653  1.0000
  F   F380      1.0  0.54293  0.79954  0.79728  1.0000
  F   F381      1.0  0.79275  0.29477  0.27240  1.0000
  F   F382      1.0  0.79920  0.30376  0.79600  1.0000
  F   F383      1.0  0.79783  0.79112  0.29764  1.0000
  F   F384      1.0  0.79725  0.80127  0.78485  1.0000
