data_image0
_chemical_formula_structural       Hf96F384
_chemical_formula_sum              "Hf96 F384"
_cell_length_a       31.051
_cell_length_b       15.5282
_cell_length_c       15.5189
_cell_angle_alpha    63.342
_cell_angle_beta     63.342
_cell_angle_gamma    80.1625

_space_group_name_H-M_alt    "P 1"
_space_group_IT_number       1

loop_
  _space_group_symop_operation_xyz
  'x, y, z'

loop_
  _atom_site_type_symbol
  _atom_site_label
  _atom_site_symmetry_multiplicity
  _atom_site_fract_x
  _atom_site_fract_y
  _atom_site_fract_z
  _atom_site_occupancy
  Hf  Hf1       1.0  0.20272  0.10092  0.37214  1.0000
  Hf  Hf2       1.0  0.19588  0.10735  0.87551  1.0000
  Hf  Hf3       1.0  0.19954  0.61607  0.36831  1.0000
  Hf  Hf4       1.0  0.19536  0.60064  0.87511  1.0000
  Hf  Hf5       1.0  0.44675  0.10445  0.37609  1.0000
  Hf  Hf6       1.0  0.44547  0.11060  0.87836  1.0000
  Hf  Hf7       1.0  0.44866  0.61188  0.37776  1.0000
  Hf  Hf8       1.0  0.44775  0.60883  0.87570  1.0000
  Hf  Hf9       1.0  0.69551  0.11089  0.37625  1.0000
  Hf  Hf10      1.0  0.69856  0.10787  0.87825  1.0000
  Hf  Hf11      1.0  0.69382  0.60104  0.39105  1.0000
  Hf  Hf12      1.0  0.69518  0.61150  0.87185  1.0000
  Hf  Hf13      1.0  0.95047  0.10630  0.36566  1.0000
  Hf  Hf14      1.0  0.94658  0.11242  0.87260  1.0000
  Hf  Hf15      1.0  0.94139  0.60880  0.37636  1.0000
  Hf  Hf16      1.0  0.94210  0.60242  0.87625  1.0000
  Hf  Hf17      1.0  0.05293  0.39381  0.13018  1.0000
  Hf  Hf18      1.0  0.05298  0.38999  0.62460  1.0000
  Hf  Hf19      1.0  0.05634  0.89582  0.11399  1.0000
  Hf  Hf20      1.0  0.05936  0.89826  0.61058  1.0000
  Hf  Hf21      1.0  0.30482  0.39399  0.13019  1.0000
  Hf  Hf22      1.0  0.30448  0.39707  0.61095  1.0000
  Hf  Hf23      1.0  0.30723  0.89506  0.10731  1.0000
  Hf  Hf24      1.0  0.30240  0.89815  0.62532  1.0000
  Hf  Hf25      1.0  0.55700  0.38680  0.13205  1.0000
  Hf  Hf26      1.0  0.55136  0.39189  0.63535  1.0000
  Hf  Hf27      1.0  0.55016  0.88889  0.12552  1.0000
  Hf  Hf28      1.0  0.55302  0.88888  0.63090  1.0000
  Hf  Hf29      1.0  0.80121  0.38833  0.13358  1.0000
  Hf  Hf30      1.0  0.80152  0.39102  0.63060  1.0000
  Hf  Hf31      1.0  0.80122  0.88099  0.13869  1.0000
  Hf  Hf32      1.0  0.80407  0.89229  0.62335  1.0000
  Hf  Hf33      1.0  0.06156  0.18660  0.40731  1.0000
  Hf  Hf34      1.0  0.05688  0.18353  0.91891  1.0000
  Hf  Hf35      1.0  0.05829  0.67828  0.41049  1.0000
  Hf  Hf36      1.0  0.05546  0.68056  0.91631  1.0000
  Hf  Hf37      1.0  0.30788  0.18128  0.41503  1.0000
  Hf  Hf38      1.0  0.30550  0.18654  0.91674  1.0000
  Hf  Hf39      1.0  0.30827  0.69272  0.41059  1.0000
  Hf  Hf40      1.0  0.30836  0.68606  0.91085  1.0000
  Hf  Hf41      1.0  0.55581  0.17989  0.41825  1.0000
  Hf  Hf42      1.0  0.55914  0.18565  0.91438  1.0000
  Hf  Hf43      1.0  0.55757  0.68483  0.41689  1.0000
  Hf  Hf44      1.0  0.55236  0.67824  0.92403  1.0000
  Hf  Hf45      1.0  0.80613  0.18108  0.41836  1.0000
  Hf  Hf46      1.0  0.80523  0.17617  0.92213  1.0000
  Hf  Hf47      1.0  0.80084  0.67214  0.43098  1.0000
  Hf  Hf48      1.0  0.80296  0.68030  0.92588  1.0000
  Hf  Hf49      1.0  0.16517  0.39869  0.32417  1.0000
  Hf  Hf50      1.0  0.15620  0.38938  0.82711  1.0000
  Hf  Hf51      1.0  0.16171  0.88359  0.32397  1.0000
  Hf  Hf52      1.0  0.15755  0.88942  0.83024  1.0000
  Hf  Hf53      1.0  0.41097  0.38413  0.33290  1.0000
  Hf  Hf54      1.0  0.41220  0.39311  0.83311  1.0000
  Hf  Hf55      1.0  0.41000  0.89425  0.33482  1.0000
  Hf  Hf56      1.0  0.41027  0.88930  0.83054  1.0000
  Hf  Hf57      1.0  0.65635  0.39244  0.33697  1.0000
  Hf  Hf58      1.0  0.66061  0.39564  0.83414  1.0000
  Hf  Hf59      1.0  0.65784  0.89077  0.33549  1.0000
  Hf  Hf60      1.0  0.65598  0.88707  0.83786  1.0000
  Hf  Hf61      1.0  0.90718  0.38363  0.34323  1.0000
  Hf  Hf62      1.0  0.90592  0.39140  0.82719  1.0000
  Hf  Hf63      1.0  0.90785  0.88339  0.32614  1.0000
  Hf  Hf64      1.0  0.91329  0.88451  0.82868  1.0000
  Hf  Hf65      1.0  0.19833  0.32207  0.07010  1.0000
  Hf  Hf66      1.0  0.19511  0.31720  0.57885  1.0000
  Hf  Hf67      1.0  0.19334  0.81344  0.08592  1.0000
  Hf  Hf68      1.0  0.19574  0.81643  0.58000  1.0000
  Hf  Hf69      1.0  0.44457  0.31741  0.08724  1.0000
  Hf  Hf70      1.0  0.44572  0.32223  0.58642  1.0000
  Hf  Hf71      1.0  0.44596  0.81818  0.07969  1.0000
  Hf  Hf72      1.0  0.44477  0.81353  0.57799  1.0000
  Hf  Hf73      1.0  0.69074  0.31391  0.09217  1.0000
  Hf  Hf74      1.0  0.69510  0.32077  0.58718  1.0000
  Hf  Hf75      1.0  0.69211  0.81824  0.09057  1.0000
  Hf  Hf76      1.0  0.68888  0.81072  0.58987  1.0000
  Hf  Hf77      1.0  0.94150  0.31985  0.08711  1.0000
  Hf  Hf78      1.0  0.94364  0.31790  0.57837  1.0000
  Hf  Hf79      1.0  0.94025  0.81078  0.08499  1.0000
  Hf  Hf80      1.0  0.94588  0.81288  0.57333  1.0000
  Hf  Hf81      1.0  0.09465  0.10633  0.16610  1.0000
  Hf  Hf82      1.0  0.09116  0.11087  0.66646  1.0000
  Hf  Hf83      1.0  0.09095  0.61211  0.16873  1.0000
  Hf  Hf84      1.0  0.08218  0.61251  0.67187  1.0000
  Hf  Hf85      1.0  0.34421  0.11652  0.15191  1.0000
  Hf  Hf86      1.0  0.34280  0.11475  0.66456  1.0000
  Hf  Hf87      1.0  0.33993  0.60935  0.16878  1.0000
  Hf  Hf88      1.0  0.33971  0.61054  0.66903  1.0000
  Hf  Hf89      1.0  0.58976  0.10741  0.16255  1.0000
  Hf  Hf90      1.0  0.59226  0.11507  0.67284  1.0000
  Hf  Hf91      1.0  0.59046  0.61369  0.16546  1.0000
  Hf  Hf92      1.0  0.59198  0.61089  0.67519  1.0000
  Hf  Hf93      1.0  0.83543  0.11632  0.16964  1.0000
  Hf  Hf94      1.0  0.84482  0.11097  0.66523  1.0000
  Hf  Hf95      1.0  0.83913  0.60595  0.17232  1.0000
  Hf  Hf96      1.0  0.84071  0.61679  0.66620  1.0000
  F   F1        1.0  0.08795  0.12683  0.30098  1.0000
  F   F2        1.0  0.07817  0.13301  0.80465  1.0000
  F   F3        1.0  0.07444  0.63983  0.29472  1.0000
  F   F4        1.0  0.08126  0.62074  0.81070  1.0000
  F   F5        1.0  0.33004  0.13295  0.29476  1.0000
  F   F6        1.0  0.33276  0.12454  0.79838  1.0000
  F   F7        1.0  0.32720  0.63523  0.29169  1.0000
  F   F8        1.0  0.32931  0.63242  0.80246  1.0000
  F   F9        1.0  0.58213  0.12154  0.30794  1.0000
  F   F10       1.0  0.58270  0.13089  0.80340  1.0000
  F   F11       1.0  0.58323  0.64435  0.29818  1.0000
  F   F12       1.0  0.57607  0.62983  0.81170  1.0000
  F   F13       1.0  0.82260  0.11643  0.30771  1.0000
  F   F14       1.0  0.83310  0.12580  0.80883  1.0000
  F   F15       1.0  0.81813  0.61245  0.32456  1.0000
  F   F16       1.0  0.83140  0.63740  0.79509  1.0000
  F   F17       1.0  0.19139  0.34470  0.43796  1.0000
  F   F18       1.0  0.18692  0.34682  0.93246  1.0000
  F   F19       1.0  0.19145  0.83540  0.44179  1.0000
  F   F20       1.0  0.17870  0.83489  0.94750  1.0000
  F   F21       1.0  0.43654  0.34235  0.45174  1.0000
  F   F22       1.0  0.43887  0.34680  0.94928  1.0000
  F   F23       1.0  0.44345  0.83815  0.43740  1.0000
  F   F24       1.0  0.43803  0.83049  0.93963  1.0000
  F   F25       1.0  0.68316  0.34230  0.45070  1.0000
  F   F26       1.0  0.67973  0.35132  0.95611  1.0000
  F   F27       1.0  0.67626  0.81580  0.47013  1.0000
  F   F28       1.0  0.68610  0.84024  0.94722  1.0000
  F   F29       1.0  0.93436  0.31672  0.45620  1.0000
  F   F30       1.0  0.93248  0.33875  0.95041  1.0000
  F   F31       1.0  0.93990  0.83400  0.43744  1.0000
  F   F32       1.0  0.94633  0.85240  0.93365  1.0000
  F   F33       1.0  0.17514  0.38825  0.18617  1.0000
  F   F34       1.0  0.16612  0.34854  0.70376  1.0000
  F   F35       1.0  0.17248  0.87045  0.19424  1.0000
  F   F36       1.0  0.17718  0.86898  0.69637  1.0000
  F   F37       1.0  0.42076  0.36956  0.20131  1.0000
  F   F38       1.0  0.42290  0.36934  0.69633  1.0000
  F   F39       1.0  0.41453  0.87673  0.18688  1.0000
  F   F40       1.0  0.42487  0.87390  0.68589  1.0000
  F   F41       1.0  0.66747  0.37667  0.19920  1.0000
  F   F42       1.0  0.67252  0.38407  0.69464  1.0000
  F   F43       1.0  0.67548  0.88016  0.19415  1.0000
  F   F44       1.0  0.65925  0.87062  0.70578  1.0000
  F   F45       1.0  0.92823  0.37836  0.18973  1.0000
  F   F46       1.0  0.91506  0.36142  0.70543  1.0000
  F   F47       1.0  0.90964  0.87785  0.19745  1.0000
  F   F48       1.0  0.92479  0.86990  0.69424  1.0000
  F   F49       1.0  0.07641  0.15791  0.04205  1.0000
  F   F50       1.0  0.06503  0.15656  0.55368  1.0000
  F   F51       1.0  0.06510  0.64614  0.05873  1.0000
  F   F52       1.0  0.06330  0.65661  0.55421  1.0000
  F   F53       1.0  0.30335  0.15720  0.06652  1.0000
  F   F54       1.0  0.31921  0.17120  0.54048  1.0000
  F   F55       1.0  0.30576  0.66723  0.05916  1.0000
  F   F56       1.0  0.31700  0.65759  0.55362  1.0000
  F   F57       1.0  0.56825  0.16883  0.04763  1.0000
  F   F58       1.0  0.57319  0.16568  0.54391  1.0000
  F   F59       1.0  0.56510  0.65518  0.04828  1.0000
  F   F60       1.0  0.57920  0.65159  0.55029  1.0000
  F   F61       1.0  0.80595  0.15593  0.05837  1.0000
  F   F62       1.0  0.81770  0.15962  0.54280  1.0000
  F   F63       1.0  0.81905  0.67178  0.04158  1.0000
  F   F64       1.0  0.80795  0.65005  0.56505  1.0000
  F   F65       1.0  0.19859  0.19966  0.20522  1.0000
  F   F66       1.0  0.20783  0.19380  0.71753  1.0000
  F   F67       1.0  0.20754  0.69221  0.20475  1.0000
  F   F68       1.0  0.19217  0.69635  0.71746  1.0000
  F   F69       1.0  0.45054  0.19846  0.21725  1.0000
  F   F70       1.0  0.45574  0.20144  0.72979  1.0000
  F   F71       1.0  0.45421  0.70575  0.21945  1.0000
  F   F72       1.0  0.44382  0.68697  0.71798  1.0000
  F   F73       1.0  0.70250  0.20541  0.21788  1.0000
  F   F74       1.0  0.70713  0.20470  0.72031  1.0000
  F   F75       1.0  0.69858  0.69378  0.21010  1.0000
  F   F76       1.0  0.70530  0.71181  0.70653  1.0000
  F   F77       1.0  0.95727  0.19526  0.20827  1.0000
  F   F78       1.0  0.95451  0.21563  0.69894  1.0000
  F   F79       1.0  0.94346  0.69055  0.21834  1.0000
  F   F80       1.0  0.95019  0.70575  0.71487  1.0000
  F   F81       1.0  0.15194  0.06493  0.04924  1.0000
  F   F82       1.0  0.15452  0.09563  0.54644  1.0000
  F   F83       1.0  0.15076  0.58251  0.04288  1.0000
  F   F84       1.0  0.14891  0.58357  0.53051  1.0000
  F   F85       1.0  0.39721  0.08096  0.03635  1.0000
  F   F86       1.0  0.40044  0.08014  0.54644  1.0000
  F   F87       1.0  0.39652  0.61109  0.03637  1.0000
  F   F88       1.0  0.39944  0.57539  0.53918  1.0000
  F   F89       1.0  0.65647  0.08076  0.03412  1.0000
  F   F90       1.0  0.65372  0.09596  0.54365  1.0000
  F   F91       1.0  0.64541  0.58756  0.04191  1.0000
  F   F92       1.0  0.65188  0.57506  0.54490  1.0000
  F   F93       1.0  0.88977  0.09565  0.04389  1.0000
  F   F94       1.0  0.90441  0.08865  0.53005  1.0000
  F   F95       1.0  0.89579  0.58157  0.04708  1.0000
  F   F96       1.0  0.89759  0.60225  0.52987  1.0000
  F   F97       1.0  0.14755  0.20144  0.12295  1.0000
  F   F98       1.0  0.15096  0.21300  0.61052  1.0000
  F   F99       1.0  0.14848  0.69524  0.12019  1.0000
  F   F100      1.0  0.14686  0.69067  0.61160  1.0000
  F   F101      1.0  0.40823  0.18093  0.11746  1.0000
  F   F102      1.0  0.40278  0.20370  0.62434  1.0000
  F   F103      1.0  0.39958  0.70368  0.13115  1.0000
  F   F104      1.0  0.40224  0.69597  0.61197  1.0000
  F   F105      1.0  0.64513  0.20563  0.11068  1.0000
  F   F106      1.0  0.64887  0.20945  0.63334  1.0000
  F   F107      1.0  0.64771  0.69918  0.11373  1.0000
  F   F108      1.0  0.65243  0.68262  0.63674  1.0000
  F   F109      1.0  0.89310  0.20575  0.13323  1.0000
  F   F110      1.0  0.90027  0.19811  0.61988  1.0000
  F   F111      1.0  0.89067  0.70238  0.13112  1.0000
  F   F112      1.0  0.89646  0.69508  0.63154  1.0000
  F   F113      1.0  0.10091  0.30705  0.36942  1.0000
  F   F114      1.0  0.09842  0.31154  0.86791  1.0000
  F   F115      1.0  0.10006  0.80369  0.37668  1.0000
  F   F116      1.0  0.09855  0.79955  0.88693  1.0000
  F   F117      1.0  0.35663  0.30104  0.35863  1.0000
  F   F118      1.0  0.34736  0.31073  0.86974  1.0000
  F   F119      1.0  0.35091  0.81409  0.37352  1.0000
  F   F120      1.0  0.35319  0.80406  0.85095  1.0000
  F   F121      1.0  0.60138  0.31176  0.36626  1.0000
  F   F122      1.0  0.60114  0.29386  0.86878  1.0000
  F   F123      1.0  0.59265  0.80358  0.37509  1.0000
  F   F124      1.0  0.59277  0.81033  0.90359  1.0000
  F   F125      1.0  0.84766  0.31302  0.37176  1.0000
  F   F126      1.0  0.84708  0.29870  0.87970  1.0000
  F   F127      1.0  0.85452  0.77754  0.39627  1.0000
  F   F128      1.0  0.84993  0.80618  0.85293  1.0000
  F   F129      1.0  0.06687  0.25147  0.14004  1.0000
  F   F130      1.0  0.05848  0.24801  0.66403  1.0000
  F   F131      1.0  0.05488  0.74604  0.13772  1.0000
  F   F132      1.0  0.06535  0.75485  0.64074  1.0000
  F   F133      1.0  0.32293  0.26137  0.12975  1.0000
  F   F134      1.0  0.30795  0.25249  0.63961  1.0000
  F   F135      1.0  0.30872  0.74823  0.14356  1.0000
  F   F136      1.0  0.30887  0.75110  0.65341  1.0000
  F   F137      1.0  0.55922  0.24369  0.15906  1.0000
  F   F138      1.0  0.56019  0.23674  0.66761  1.0000
  F   F139      1.0  0.56434  0.75673  0.13127  1.0000
  F   F140      1.0  0.56742  0.74885  0.65125  1.0000
  F   F141      1.0  0.81322  0.25234  0.14469  1.0000
  F   F142      1.0  0.81575  0.25164  0.64351  1.0000
  F   F143      1.0  0.80667  0.74893  0.14224  1.0000
  F   F144      1.0  0.82178  0.76283  0.61458  1.0000
  F   F145      1.0  0.12606  0.38115  0.09802  1.0000
  F   F146      1.0  0.11961  0.36582  0.61786  1.0000
  F   F147      1.0  0.11995  0.84509  0.12813  1.0000
  F   F148      1.0  0.12292  0.87415  0.61128  1.0000
  F   F149      1.0  0.37635  0.36372  0.12245  1.0000
  F   F150      1.0  0.37243  0.37915  0.60130  1.0000
  F   F151      1.0  0.37518  0.87837  0.08541  1.0000
  F   F152      1.0  0.37414  0.86802  0.60091  1.0000
  F   F153      1.0  0.62589  0.37665  0.10516  1.0000
  F   F154      1.0  0.62743  0.38047  0.59999  1.0000
  F   F155      1.0  0.62872  0.87412  0.11717  1.0000
  F   F156      1.0  0.62187  0.88252  0.59882  1.0000
  F   F157      1.0  0.87732  0.38102  0.10145  1.0000
  F   F158      1.0  0.87296  0.37466  0.60202  1.0000
  F   F159      1.0  0.87357  0.86222  0.10720  1.0000
  F   F160      1.0  0.87909  0.86679  0.59664  1.0000
  F   F161      1.0  0.19238  0.25739  0.32308  1.0000
  F   F162      1.0  0.18151  0.24199  0.86861  1.0000
  F   F163      1.0  0.18443  0.74893  0.36087  1.0000
  F   F164      1.0  0.18957  0.74016  0.85942  1.0000
  F   F165      1.0  0.43259  0.23780  0.36812  1.0000
  F   F166      1.0  0.43153  0.25541  0.86851  1.0000
  F   F167      1.0  0.43099  0.74726  0.36511  1.0000
  F   F168      1.0  0.44097  0.74819  0.83951  1.0000
  F   F169      1.0  0.69151  0.25648  0.35336  1.0000
  F   F170      1.0  0.68190  0.24699  0.87047  1.0000
  F   F171      1.0  0.67400  0.73928  0.36956  1.0000
  F   F172      1.0  0.68425  0.74743  0.85936  1.0000
  F   F173      1.0  0.93453  0.24604  0.35271  1.0000
  F   F174      1.0  0.93169  0.25352  0.85436  1.0000
  F   F175      1.0  0.94634  0.75709  0.32925  1.0000
  F   F176      1.0  0.93126  0.74633  0.87119  1.0000
  F   F177      1.0  0.13127  0.12161  0.39771  1.0000
  F   F178      1.0  0.12588  0.13193  0.88442  1.0000
  F   F179      1.0  0.12657  0.64905  0.38006  1.0000
  F   F180      1.0  0.12521  0.62061  0.89908  1.0000
  F   F181      1.0  0.37263  0.10525  0.40466  1.0000
  F   F182      1.0  0.37180  0.13376  0.89892  1.0000
  F   F183      1.0  0.37506  0.64551  0.37690  1.0000
  F   F184      1.0  0.37190  0.62022  0.90818  1.0000
  F   F185      1.0  0.62553  0.13312  0.39363  1.0000
  F   F186      1.0  0.62523  0.12056  0.90442  1.0000
  F   F187      1.0  0.62241  0.61829  0.40574  1.0000
  F   F188      1.0  0.62410  0.64033  0.88857  1.0000
  F   F189      1.0  0.87718  0.14231  0.37789  1.0000
  F   F190      1.0  0.87519  0.12509  0.89413  1.0000
  F   F191      1.0  0.87086  0.60571  0.40092  1.0000
  F   F192      1.0  0.87481  0.62837  0.89780  1.0000
  F   F193      1.0  0.01141  0.36605  0.06709  1.0000
  F   F194      1.0  0.00430  0.36448  0.56849  1.0000
  F   F195      1.0  0.99900  0.86735  0.06299  1.0000
  F   F196      1.0  0.01506  0.86444  0.56082  1.0000
  F   F197      1.0  0.25813  0.35260  0.09211  1.0000
  F   F198      1.0  0.26142  0.37865  0.55270  1.0000
  F   F199      1.0  0.25871  0.85914  0.06516  1.0000
  F   F200      1.0  0.26134  0.87594  0.56258  1.0000
  F   F201      1.0  0.50634  0.35679  0.09590  1.0000
  F   F202      1.0  0.50471  0.35310  0.59126  1.0000
  F   F203      1.0  0.50972  0.87261  0.06850  1.0000
  F   F204      1.0  0.50965  0.86766  0.57166  1.0000
  F   F205      1.0  0.75215  0.36693  0.07098  1.0000
  F   F206      1.0  0.75558  0.35712  0.58675  1.0000
  F   F207      1.0  0.75398  0.86544  0.08114  1.0000
  F   F208      1.0  0.74781  0.86660  0.58547  1.0000
  F   F209      1.0  0.07032  0.47598  0.18529  1.0000
  F   F210      1.0  0.06369  0.48546  0.67305  1.0000
  F   F211      1.0  0.07222  0.98473  0.15888  1.0000
  F   F212      1.0  0.07036  0.98945  0.67891  1.0000
  F   F213      1.0  0.32853  0.48626  0.16517  1.0000
  F   F214      1.0  0.32225  0.49363  0.67048  1.0000
  F   F215      1.0  0.31796  0.98149  0.17317  1.0000
  F   F216      1.0  0.32422  0.99157  0.66644  1.0000
  F   F217      1.0  0.57024  0.48472  0.17700  1.0000
  F   F218      1.0  0.56638  0.48060  0.68025  1.0000
  F   F219      1.0  0.56953  0.97168  0.19092  1.0000
  F   F220      1.0  0.56653  0.98132  0.68530  1.0000
  F   F221      1.0  0.81580  0.48959  0.17672  1.0000
  F   F222      1.0  0.81817  0.48130  0.67428  1.0000
  F   F223      1.0  0.80983  0.97726  0.19742  1.0000
  F   F224      1.0  0.82475  0.99141  0.64587  1.0000
  F   F225      1.0  0.24130  0.14703  0.41807  1.0000
  F   F226      1.0  0.23757  0.15591  0.94186  1.0000
  F   F227      1.0  0.24441  0.65332  0.40975  1.0000
  F   F228      1.0  0.25136  0.63835  0.91964  1.0000
  F   F229      1.0  0.49469  0.14876  0.41463  1.0000
  F   F230      1.0  0.49328  0.14175  0.92401  1.0000
  F   F231      1.0  0.49787  0.64741  0.42010  1.0000
  F   F232      1.0  0.48763  0.63037  0.95235  1.0000
  F   F233      1.0  0.73705  0.13864  0.43355  1.0000
  F   F234      1.0  0.74636  0.13728  0.91880  1.0000
  F   F235      1.0  0.73771  0.65119  0.43643  1.0000
  F   F236      1.0  0.74273  0.64266  0.93252  1.0000
  F   F237      1.0  0.99975  0.12198  0.41839  1.0000
  F   F238      1.0  0.99087  0.13942  0.93428  1.0000
  F   F239      1.0  0.98907  0.63081  0.43662  1.0000
  F   F240      1.0  0.99248  0.64203  0.90771  1.0000
  F   F241      1.0  0.18525  0.00545  0.32737  1.0000
  F   F242      1.0  0.17887  0.00755  0.83659  1.0000
  F   F243      1.0  0.17673  0.51772  0.32516  1.0000
  F   F244      1.0  0.18609  0.51656  0.80932  1.0000
  F   F245      1.0  0.43632  0.01735  0.31139  1.0000
  F   F246      1.0  0.42716  0.01325  0.83566  1.0000
  F   F247      1.0  0.42627  0.51250  0.35136  1.0000
  F   F248      1.0  0.43157  0.50623  0.84793  1.0000
  F   F249      1.0  0.67758  0.01614  0.32894  1.0000
  F   F250      1.0  0.67844  0.01321  0.83464  1.0000
  F   F251      1.0  0.68662  0.51106  0.31601  1.0000
  F   F252      1.0  0.67878  0.54060  0.79903  1.0000
  F   F253      1.0  0.93438  0.00649  0.32564  1.0000
  F   F254      1.0  0.92775  0.01289  0.82804  1.0000
  F   F255      1.0  0.93508  0.51398  0.31733  1.0000
  F   F256      1.0  0.93153  0.51484  0.81739  1.0000
  F   F257      1.0  0.00011  0.23631  0.01410  1.0000
  F   F258      1.0  0.00265  0.24199  0.48580  1.0000
  F   F259      1.0  0.99330  0.73436  0.01145  1.0000
  F   F260      1.0  0.99890  0.75340  0.48697  1.0000
  F   F261      1.0  0.25803  0.27750  0.97993  1.0000
  F   F262      1.0  0.25177  0.25778  0.49689  1.0000
  F   F263      1.0  0.25144  0.75784  0.98545  1.0000
  F   F264      1.0  0.25468  0.75551  0.50811  1.0000
  F   F265      1.0  0.50282  0.25943  0.99414  1.0000
  F   F266      1.0  0.49983  0.24367  0.51027  1.0000
  F   F267      1.0  0.50064  0.74885  0.00866  1.0000
  F   F268      1.0  0.49677  0.72973  0.52338  1.0000
  F   F269      1.0  0.74260  0.25299  0.00961  1.0000
  F   F270      1.0  0.75501  0.27075  0.48697  1.0000
  F   F271      1.0  0.75592  0.76599  0.98735  1.0000
  F   F272      1.0  0.75348  0.75964  0.49327  1.0000
  F   F273      1.0  0.12346  0.99282  0.24844  1.0000
  F   F274      1.0  0.12178  0.99478  0.75405  1.0000
  F   F275      1.0  0.12107  0.50694  0.26368  1.0000
  F   F276      1.0  0.12265  0.49326  0.74472  1.0000
  F   F277      1.0  0.37467  0.00914  0.24148  1.0000
  F   F278      1.0  0.37358  0.99342  0.75052  1.0000
  F   F279      1.0  0.37196  0.49412  0.26308  1.0000
  F   F280      1.0  0.37657  0.50191  0.75106  1.0000
  F   F281      1.0  0.62699  0.00733  0.24903  1.0000
  F   F282      1.0  0.62667  0.00506  0.75812  1.0000
  F   F283      1.0  0.61994  0.50164  0.25536  1.0000
  F   F284      1.0  0.61340  0.48783  0.78096  1.0000
  F   F285      1.0  0.86824  0.99348  0.26197  1.0000
  F   F286      1.0  0.87147  0.99083  0.75896  1.0000
  F   F287      1.0  0.87268  0.50298  0.25688  1.0000
  F   F288      1.0  0.87003  0.50026  0.74211  1.0000
  F   F289      1.0  0.04630  0.02879  0.01829  1.0000
  F   F290      1.0  0.05064  0.03211  0.52281  1.0000
  F   F291      1.0  0.03650  0.52894  0.03010  1.0000
  F   F292      1.0  0.04652  0.52908  0.51336  1.0000
  F   F293      1.0  0.28954  0.02922  0.01120  1.0000
  F   F294      1.0  0.29168  0.03866  0.52727  1.0000
  F   F295      1.0  0.28930  0.52791  0.03494  1.0000
  F   F296      1.0  0.30315  0.54124  0.50571  1.0000
  F   F297      1.0  0.54252  0.03962  0.02115  1.0000
  F   F298      1.0  0.54023  0.02788  0.53872  1.0000
  F   F299      1.0  0.54703  0.53633  0.02132  1.0000
  F   F300      1.0  0.54076  0.53488  0.52936  1.0000
  F   F301      1.0  0.79590  0.02189  0.02901  1.0000
  F   F302      1.0  0.78354  0.03318  0.52609  1.0000
  F   F303      1.0  0.79266  0.53471  0.03073  1.0000
  F   F304      1.0  0.78208  0.52687  0.52521  1.0000
  F   F305      1.0  0.23421  0.42595  0.23766  1.0000
  F   F306      1.0  0.23260  0.40912  0.70481  1.0000
  F   F307      1.0  0.23404  0.89631  0.22413  1.0000
  F   F308      1.0  0.23364  0.92778  0.71799  1.0000
  F   F309      1.0  0.48691  0.41367  0.24100  1.0000
  F   F310      1.0  0.48150  0.42785  0.71959  1.0000
  F   F311      1.0  0.48237  0.91967  0.21808  1.0000
  F   F312      1.0  0.47941  0.92771  0.73186  1.0000
  F   F313      1.0  0.73485  0.41548  0.22984  1.0000
  F   F314      1.0  0.73243  0.43409  0.73325  1.0000
  F   F315      1.0  0.73101  0.90687  0.24442  1.0000
  F   F316      1.0  0.73144  0.91733  0.74331  1.0000
  F   F317      1.0  0.98233  0.40175  0.24900  1.0000
  F   F318      1.0  0.97991  0.40915  0.71879  1.0000
  F   F319      1.0  0.98667  0.92518  0.20352  1.0000
  F   F320      1.0  0.99450  0.91263  0.71682  1.0000
  F   F321      1.0  0.20972  0.46827  0.47057  1.0000
  F   F322      1.0  0.21069  0.46407  0.96637  1.0000
  F   F323      1.0  0.20831  0.96352  0.47789  1.0000
  F   F324      1.0  0.21265  0.95719  0.96865  1.0000
  F   F325      1.0  0.46873  0.46855  0.47137  1.0000
  F   F326      1.0  0.45376  0.47157  0.99761  1.0000
  F   F327      1.0  0.46024  0.96712  0.47165  1.0000
  F   F328      1.0  0.45830  0.96487  0.98430  1.0000
  F   F329      1.0  0.71221  0.46615  0.48450  1.0000
  F   F330      1.0  0.70915  0.48461  0.96169  1.0000
  F   F331      1.0  0.70225  0.96941  0.46813  1.0000
  F   F332      1.0  0.71374  0.96462  0.96538  1.0000
  F   F333      1.0  0.95308  0.46278  0.48362  1.0000
  F   F334      1.0  0.96288  0.46509  0.97019  1.0000
  F   F335      1.0  0.95452  0.96276  0.48329  1.0000
  F   F336      1.0  0.95107  0.98235  0.98100  1.0000
  F   F337      1.0  0.02302  0.08029  0.26131  1.0000
  F   F338      1.0  0.01243  0.09765  0.77012  1.0000
  F   F339      1.0  0.01243  0.58997  0.28409  1.0000
  F   F340      1.0  0.00965  0.59470  0.75906  1.0000
  F   F341      1.0  0.27007  0.07148  0.27710  1.0000
  F   F342      1.0  0.26665  0.08389  0.77271  1.0000
  F   F343      1.0  0.26468  0.57224  0.27552  1.0000
  F   F344      1.0  0.26309  0.58354  0.77112  1.0000
  F   F345      1.0  0.51962  0.07475  0.26633  1.0000
  F   F346      1.0  0.51742  0.08280  0.78242  1.0000
  F   F347      1.0  0.51677  0.59515  0.26498  1.0000
  F   F348      1.0  0.51658  0.58994  0.77865  1.0000
  F   F349      1.0  0.76194  0.09163  0.26397  1.0000
  F   F350      1.0  0.76955  0.09198  0.75842  1.0000
  F   F351      1.0  0.75953  0.60259  0.27203  1.0000
  F   F352      1.0  0.76858  0.59425  0.76442  1.0000
  F   F353      1.0  0.10376  0.39734  0.47271  1.0000
  F   F354      1.0  0.10170  0.40881  0.95584  1.0000
  F   F355      1.0  0.10848  0.92512  0.44388  1.0000
  F   F356      1.0  0.09724  0.90342  0.96455  1.0000
  F   F357      1.0  0.35330  0.39885  0.45726  1.0000
  F   F358      1.0  0.35046  0.41368  0.96791  1.0000
  F   F359      1.0  0.35494  0.92756  0.44668  1.0000
  F   F360      1.0  0.34453  0.89277  0.96356  1.0000
  F   F361      1.0  0.59546  0.39574  0.47702  1.0000
  F   F362      1.0  0.59954  0.39754  0.97095  1.0000
  F   F363      1.0  0.59746  0.91297  0.45756  1.0000
  F   F364      1.0  0.60008  0.90985  0.96023  1.0000
  F   F365      1.0  0.84719  0.41719  0.46368  1.0000
  F   F366      1.0  0.84924  0.40310  0.96071  1.0000
  F   F367      1.0  0.85091  0.91956  0.45390  1.0000
  F   F368      1.0  0.85323  0.88025  0.95900  1.0000
  F   F369      1.0  0.05218  0.29008  0.28558  1.0000
  F   F370      1.0  0.03985  0.31561  0.80594  1.0000
  F   F371      1.0  0.04400  0.79933  0.28655  1.0000
  F   F372      1.0  0.04669  0.78806  0.79813  1.0000
  F   F373      1.0  0.28963  0.29068  0.29503  1.0000
  F   F374      1.0  0.29709  0.29903  0.78149  1.0000
  F   F375      1.0  0.30785  0.80384  0.27949  1.0000
  F   F376      1.0  0.29218  0.81028  0.78304  1.0000
  F   F377      1.0  0.55061  0.30431  0.29055  1.0000
  F   F378      1.0  0.54043  0.31295  0.78755  1.0000
  F   F379      1.0  0.54050  0.80390  0.28368  1.0000
  F   F380      1.0  0.54417  0.78994  0.79482  1.0000
  F   F381      1.0  0.80103  0.29920  0.29012  1.0000
  F   F382      1.0  0.80063  0.30495  0.78447  1.0000
  F   F383      1.0  0.79746  0.79196  0.29887  1.0000
  F   F384      1.0  0.79725  0.79713  0.77546  1.0000
