data_image0
_chemical_formula_structural       Hf96F384
_chemical_formula_sum              "Hf96 F384"
_cell_length_a       31.042
_cell_length_b       15.5157
_cell_length_c       15.5091
_cell_angle_alpha    63.342
_cell_angle_beta     63.342
_cell_angle_gamma    80.1625

_space_group_name_H-M_alt    "P 1"
_space_group_IT_number       1

loop_
  _space_group_symop_operation_xyz
  'x, y, z'

loop_
  _atom_site_type_symbol
  _atom_site_label
  _atom_site_symmetry_multiplicity
  _atom_site_fract_x
  _atom_site_fract_y
  _atom_site_fract_z
  _atom_site_occupancy
  Hf  Hf1       1.0  0.19626  0.10856  0.37325  1.0000
  Hf  Hf2       1.0  0.19635  0.11165  0.87869  1.0000
  Hf  Hf3       1.0  0.19601  0.60423  0.37843  1.0000
  Hf  Hf4       1.0  0.19531  0.60682  0.87602  1.0000
  Hf  Hf5       1.0  0.44682  0.10450  0.38135  1.0000
  Hf  Hf6       1.0  0.44751  0.10905  0.86653  1.0000
  Hf  Hf7       1.0  0.44750  0.61529  0.36581  1.0000
  Hf  Hf8       1.0  0.44344  0.61804  0.87046  1.0000
  Hf  Hf9       1.0  0.69561  0.10207  0.37318  1.0000
  Hf  Hf10      1.0  0.69708  0.10163  0.88204  1.0000
  Hf  Hf11      1.0  0.69889  0.59903  0.39170  1.0000
  Hf  Hf12      1.0  0.69886  0.60925  0.87220  1.0000
  Hf  Hf13      1.0  0.94585  0.10018  0.39014  1.0000
  Hf  Hf14      1.0  0.94422  0.10843  0.87753  1.0000
  Hf  Hf15      1.0  0.94662  0.61444  0.37078  1.0000
  Hf  Hf16      1.0  0.94430  0.60418  0.89117  1.0000
  Hf  Hf17      1.0  0.05438  0.39115  0.13083  1.0000
  Hf  Hf18      1.0  0.05565  0.39464  0.61264  1.0000
  Hf  Hf19      1.0  0.05016  0.89049  0.13261  1.0000
  Hf  Hf20      1.0  0.04899  0.88835  0.62260  1.0000
  Hf  Hf21      1.0  0.31152  0.39956  0.10907  1.0000
  Hf  Hf22      1.0  0.30296  0.39993  0.61975  1.0000
  Hf  Hf23      1.0  0.30198  0.89223  0.12556  1.0000
  Hf  Hf24      1.0  0.30066  0.89614  0.62256  1.0000
  Hf  Hf25      1.0  0.55082  0.38993  0.13008  1.0000
  Hf  Hf26      1.0  0.55204  0.39235  0.62677  1.0000
  Hf  Hf27      1.0  0.55094  0.89029  0.13075  1.0000
  Hf  Hf28      1.0  0.55083  0.89725  0.62568  1.0000
  Hf  Hf29      1.0  0.80058  0.39218  0.12624  1.0000
  Hf  Hf30      1.0  0.80068  0.39036  0.63619  1.0000
  Hf  Hf31      1.0  0.80119  0.88014  0.13859  1.0000
  Hf  Hf32      1.0  0.80217  0.88989  0.63166  1.0000
  Hf  Hf33      1.0  0.05612  0.18018  0.41837  1.0000
  Hf  Hf34      1.0  0.05465  0.17925  0.92065  1.0000
  Hf  Hf35      1.0  0.05687  0.68923  0.41320  1.0000
  Hf  Hf36      1.0  0.05868  0.68228  0.91353  1.0000
  Hf  Hf37      1.0  0.30591  0.18496  0.41940  1.0000
  Hf  Hf38      1.0  0.31156  0.19025  0.89922  1.0000
  Hf  Hf39      1.0  0.30613  0.68624  0.41059  1.0000
  Hf  Hf40      1.0  0.30652  0.69783  0.90281  1.0000
  Hf  Hf41      1.0  0.55482  0.17787  0.41972  1.0000
  Hf  Hf42      1.0  0.55767  0.18058  0.91410  1.0000
  Hf  Hf43      1.0  0.55895  0.68202  0.41830  1.0000
  Hf  Hf44      1.0  0.55627  0.68125  0.91428  1.0000
  Hf  Hf45      1.0  0.80939  0.17742  0.41590  1.0000
  Hf  Hf46      1.0  0.80802  0.18104  0.91860  1.0000
  Hf  Hf47      1.0  0.80919  0.68498  0.42072  1.0000
  Hf  Hf48      1.0  0.80728  0.67787  0.91761  1.0000
  Hf  Hf49      1.0  0.16061  0.38694  0.32580  1.0000
  Hf  Hf50      1.0  0.15573  0.38475  0.83479  1.0000
  Hf  Hf51      1.0  0.15814  0.88245  0.33592  1.0000
  Hf  Hf52      1.0  0.15401  0.88896  0.84564  1.0000
  Hf  Hf53      1.0  0.41123  0.38415  0.32799  1.0000
  Hf  Hf54      1.0  0.41100  0.39378  0.82226  1.0000
  Hf  Hf55      1.0  0.40864  0.89443  0.32647  1.0000
  Hf  Hf56      1.0  0.40923  0.89601  0.82914  1.0000
  Hf  Hf57      1.0  0.65606  0.38480  0.34617  1.0000
  Hf  Hf58      1.0  0.65663  0.38250  0.84241  1.0000
  Hf  Hf59      1.0  0.65741  0.87990  0.33527  1.0000
  Hf  Hf60      1.0  0.65868  0.88286  0.83423  1.0000
  Hf  Hf61      1.0  0.90686  0.38615  0.33852  1.0000
  Hf  Hf62      1.0  0.91195  0.39605  0.83459  1.0000
  Hf  Hf63      1.0  0.91367  0.89220  0.33226  1.0000
  Hf  Hf64      1.0  0.90677  0.88356  0.83652  1.0000
  Hf  Hf65      1.0  0.19875  0.31658  0.07553  1.0000
  Hf  Hf66      1.0  0.19181  0.32286  0.57930  1.0000
  Hf  Hf67      1.0  0.19192  0.81755  0.08857  1.0000
  Hf  Hf68      1.0  0.19081  0.81638  0.58868  1.0000
  Hf  Hf69      1.0  0.44693  0.31251  0.08102  1.0000
  Hf  Hf70      1.0  0.44472  0.32479  0.57097  1.0000
  Hf  Hf71      1.0  0.44628  0.82521  0.07393  1.0000
  Hf  Hf72      1.0  0.43916  0.81483  0.58471  1.0000
  Hf  Hf73      1.0  0.69762  0.32125  0.07677  1.0000
  Hf  Hf74      1.0  0.69438  0.30463  0.59065  1.0000
  Hf  Hf75      1.0  0.69084  0.81074  0.08878  1.0000
  Hf  Hf76      1.0  0.69239  0.81819  0.57931  1.0000
  Hf  Hf77      1.0  0.94396  0.31804  0.08819  1.0000
  Hf  Hf78      1.0  0.94114  0.31453  0.58970  1.0000
  Hf  Hf79      1.0  0.94668  0.82777  0.06649  1.0000
  Hf  Hf80      1.0  0.94004  0.80828  0.59318  1.0000
  Hf  Hf81      1.0  0.09372  0.11427  0.16329  1.0000
  Hf  Hf82      1.0  0.08847  0.11470  0.66507  1.0000
  Hf  Hf83      1.0  0.09065  0.61316  0.16759  1.0000
  Hf  Hf84      1.0  0.08854  0.60810  0.66862  1.0000
  Hf  Hf85      1.0  0.34150  0.12068  0.16051  1.0000
  Hf  Hf86      1.0  0.34153  0.11679  0.66341  1.0000
  Hf  Hf87      1.0  0.34430  0.61828  0.15626  1.0000
  Hf  Hf88      1.0  0.34017  0.61617  0.66504  1.0000
  Hf  Hf89      1.0  0.59215  0.11571  0.16179  1.0000
  Hf  Hf90      1.0  0.59438  0.11184  0.65591  1.0000
  Hf  Hf91      1.0  0.59007  0.60319  0.16509  1.0000
  Hf  Hf92      1.0  0.58902  0.61076  0.67118  1.0000
  Hf  Hf93      1.0  0.84072  0.10786  0.16889  1.0000
  Hf  Hf94      1.0  0.83949  0.11326  0.66911  1.0000
  Hf  Hf95      1.0  0.84197  0.60870  0.16704  1.0000
  Hf  Hf96      1.0  0.84293  0.61238  0.67150  1.0000
  F   F1        1.0  0.07928  0.12655  0.30414  1.0000
  F   F2        1.0  0.08723  0.15186  0.78368  1.0000
  F   F3        1.0  0.07886  0.62270  0.30325  1.0000
  F   F4        1.0  0.07934  0.62291  0.80993  1.0000
  F   F5        1.0  0.32730  0.13353  0.29059  1.0000
  F   F6        1.0  0.32946  0.11371  0.80678  1.0000
  F   F7        1.0  0.33263  0.62589  0.29359  1.0000
  F   F8        1.0  0.32962  0.62982  0.80172  1.0000
  F   F9        1.0  0.58102  0.11902  0.30653  1.0000
  F   F10       1.0  0.58806  0.15729  0.77925  1.0000
  F   F11       1.0  0.58341  0.62317  0.29616  1.0000
  F   F12       1.0  0.57735  0.62742  0.80678  1.0000
  F   F13       1.0  0.83244  0.11778  0.30527  1.0000
  F   F14       1.0  0.83228  0.12967  0.80405  1.0000
  F   F15       1.0  0.81954  0.62616  0.31339  1.0000
  F   F16       1.0  0.82619  0.62935  0.81010  1.0000
  F   F17       1.0  0.19413  0.35072  0.43231  1.0000
  F   F18       1.0  0.17808  0.34175  0.95855  1.0000
  F   F19       1.0  0.18121  0.83894  0.45896  1.0000
  F   F20       1.0  0.18320  0.84789  0.95299  1.0000
  F   F21       1.0  0.44740  0.35367  0.42212  1.0000
  F   F22       1.0  0.44315  0.35052  0.92834  1.0000
  F   F23       1.0  0.42644  0.82985  0.45382  1.0000
  F   F24       1.0  0.44546  0.85322  0.93846  1.0000
  F   F25       1.0  0.68645  0.34140  0.44921  1.0000
  F   F26       1.0  0.69375  0.35093  0.93575  1.0000
  F   F27       1.0  0.68186  0.83177  0.45435  1.0000
  F   F28       1.0  0.68501  0.85496  0.93877  1.0000
  F   F29       1.0  0.93403  0.33663  0.44981  1.0000
  F   F30       1.0  0.94118  0.34201  0.94177  1.0000
  F   F31       1.0  0.93540  0.83354  0.46054  1.0000
  F   F32       1.0  0.93281  0.82883  0.95605  1.0000
  F   F33       1.0  0.17873  0.39199  0.18074  1.0000
  F   F34       1.0  0.16600  0.36083  0.70882  1.0000
  F   F35       1.0  0.17251  0.86167  0.20239  1.0000
  F   F36       1.0  0.16477  0.87580  0.70499  1.0000
  F   F37       1.0  0.41842  0.36391  0.20219  1.0000
  F   F38       1.0  0.42516  0.39097  0.67782  1.0000
  F   F39       1.0  0.41949  0.86984  0.19725  1.0000
  F   F40       1.0  0.41012  0.86912  0.70611  1.0000
  F   F41       1.0  0.67601  0.36381  0.19840  1.0000
  F   F42       1.0  0.66954  0.36379  0.70212  1.0000
  F   F43       1.0  0.66428  0.83932  0.21304  1.0000
  F   F44       1.0  0.66643  0.86177  0.69801  1.0000
  F   F45       1.0  0.92142  0.37858  0.19528  1.0000
  F   F46       1.0  0.91819  0.36275  0.70665  1.0000
  F   F47       1.0  0.92645  0.87301  0.18681  1.0000
  F   F48       1.0  0.92761  0.87298  0.69142  1.0000
  F   F49       1.0  0.07122  0.15875  0.05131  1.0000
  F   F50       1.0  0.06313  0.14832  0.55594  1.0000
  F   F51       1.0  0.06763  0.66054  0.05041  1.0000
  F   F52       1.0  0.06616  0.65846  0.54655  1.0000
  F   F53       1.0  0.31218  0.16153  0.05170  1.0000
  F   F54       1.0  0.31543  0.16189  0.55347  1.0000
  F   F55       1.0  0.31716  0.66989  0.04581  1.0000
  F   F56       1.0  0.31176  0.66485  0.55153  1.0000
  F   F57       1.0  0.56851  0.15075  0.05250  1.0000
  F   F58       1.0  0.56186  0.15875  0.55771  1.0000
  F   F59       1.0  0.55784  0.64621  0.06189  1.0000
  F   F60       1.0  0.55633  0.64755  0.56815  1.0000
  F   F61       1.0  0.81944  0.16713  0.04269  1.0000
  F   F62       1.0  0.81559  0.16031  0.55067  1.0000
  F   F63       1.0  0.81902  0.66055  0.04796  1.0000
  F   F64       1.0  0.81809  0.66516  0.55120  1.0000
  F   F65       1.0  0.20132  0.20314  0.20890  1.0000
  F   F66       1.0  0.19676  0.19435  0.72865  1.0000
  F   F67       1.0  0.19871  0.69905  0.20301  1.0000
  F   F68       1.0  0.20121  0.69433  0.71283  1.0000
  F   F69       1.0  0.45620  0.20190  0.21444  1.0000
  F   F70       1.0  0.45706  0.20367  0.70602  1.0000
  F   F71       1.0  0.46149  0.71150  0.18514  1.0000
  F   F72       1.0  0.45651  0.70520  0.71429  1.0000
  F   F73       1.0  0.70100  0.20038  0.20756  1.0000
  F   F74       1.0  0.70986  0.19649  0.70671  1.0000
  F   F75       1.0  0.70264  0.68922  0.20373  1.0000
  F   F76       1.0  0.69886  0.68895  0.72490  1.0000
  F   F77       1.0  0.94588  0.21079  0.22242  1.0000
  F   F78       1.0  0.95345  0.20024  0.70624  1.0000
  F   F79       1.0  0.95447  0.69436  0.19948  1.0000
  F   F80       1.0  0.95164  0.70464  0.71952  1.0000
  F   F81       1.0  0.15636  0.08119  0.03901  1.0000
  F   F82       1.0  0.14843  0.10779  0.54371  1.0000
  F   F83       1.0  0.14880  0.58804  0.04515  1.0000
  F   F84       1.0  0.14280  0.57710  0.54128  1.0000
  F   F85       1.0  0.39556  0.09518  0.02709  1.0000
  F   F86       1.0  0.39551  0.08707  0.54044  1.0000
  F   F87       1.0  0.40216  0.60132  0.02408  1.0000
  F   F88       1.0  0.39737  0.60772  0.53787  1.0000
  F   F89       1.0  0.64987  0.09226  0.03184  1.0000
  F   F90       1.0  0.65068  0.09297  0.53091  1.0000
  F   F91       1.0  0.64823  0.58137  0.04798  1.0000
  F   F92       1.0  0.64402  0.59304  0.54487  1.0000
  F   F93       1.0  0.90337  0.08194  0.02989  1.0000
  F   F94       1.0  0.90130  0.08728  0.54354  1.0000
  F   F95       1.0  0.90005  0.56108  0.06518  1.0000
  F   F96       1.0  0.89958  0.59130  0.53406  1.0000
  F   F97       1.0  0.14946  0.19976  0.11355  1.0000
  F   F98       1.0  0.16673  0.19332  0.61853  1.0000
  F   F99       1.0  0.15128  0.69263  0.12335  1.0000
  F   F100      1.0  0.14695  0.68786  0.63195  1.0000
  F   F101      1.0  0.40334  0.20273  0.11953  1.0000
  F   F102      1.0  0.40363  0.20406  0.61755  1.0000
  F   F103      1.0  0.41018  0.70005  0.10671  1.0000
  F   F104      1.0  0.39964  0.69512  0.64308  1.0000
  F   F105      1.0  0.65257  0.19940  0.11041  1.0000
  F   F106      1.0  0.65768  0.18927  0.61573  1.0000
  F   F107      1.0  0.65205  0.70284  0.11142  1.0000
  F   F108      1.0  0.65008  0.69284  0.64010  1.0000
  F   F109      1.0  0.89854  0.18247  0.12341  1.0000
  F   F110      1.0  0.90084  0.20005  0.61138  1.0000
  F   F111      1.0  0.89732  0.68971  0.11887  1.0000
  F   F112      1.0  0.90414  0.67552  0.63346  1.0000
  F   F113      1.0  0.10044  0.30353  0.35527  1.0000
  F   F114      1.0  0.09119  0.30471  0.89554  1.0000
  F   F115      1.0  0.09806  0.80607  0.36181  1.0000
  F   F116      1.0  0.09621  0.80396  0.88122  1.0000
  F   F117      1.0  0.35242  0.30532  0.37289  1.0000
  F   F118      1.0  0.34999  0.30821  0.87272  1.0000
  F   F119      1.0  0.34608  0.81666  0.36935  1.0000
  F   F120      1.0  0.34350  0.81785  0.87532  1.0000
  F   F121      1.0  0.59541  0.29098  0.39081  1.0000
  F   F122      1.0  0.59616  0.29475  0.87824  1.0000
  F   F123      1.0  0.59395  0.80131  0.37827  1.0000
  F   F124      1.0  0.59415  0.80044  0.88022  1.0000
  F   F125      1.0  0.85560  0.29357  0.37471  1.0000
  F   F126      1.0  0.84840  0.30810  0.87552  1.0000
  F   F127      1.0  0.85781  0.78844  0.37927  1.0000
  F   F128      1.0  0.85205  0.79942  0.85623  1.0000
  F   F129      1.0  0.06279  0.24723  0.14760  1.0000
  F   F130      1.0  0.08059  0.25872  0.60948  1.0000
  F   F131      1.0  0.06026  0.75617  0.14841  1.0000
  F   F132      1.0  0.05993  0.74062  0.65175  1.0000
  F   F133      1.0  0.31919  0.25855  0.12439  1.0000
  F   F134      1.0  0.32136  0.24786  0.63806  1.0000
  F   F135      1.0  0.31915  0.75735  0.12831  1.0000
  F   F136      1.0  0.31414  0.75381  0.63810  1.0000
  F   F137      1.0  0.55600  0.24765  0.13681  1.0000
  F   F138      1.0  0.58059  0.26258  0.60130  1.0000
  F   F139      1.0  0.56092  0.74103  0.15375  1.0000
  F   F140      1.0  0.56653  0.76270  0.63112  1.0000
  F   F141      1.0  0.81010  0.24848  0.14647  1.0000
  F   F142      1.0  0.81934  0.25175  0.63806  1.0000
  F   F143      1.0  0.81718  0.74510  0.14934  1.0000
  F   F144      1.0  0.82365  0.74991  0.63116  1.0000
  F   F145      1.0  0.12879  0.35788  0.12314  1.0000
  F   F146      1.0  0.12686  0.39169  0.58341  1.0000
  F   F147      1.0  0.12045  0.86786  0.12880  1.0000
  F   F148      1.0  0.11859  0.85795  0.61539  1.0000
  F   F149      1.0  0.37820  0.36895  0.10307  1.0000
  F   F150      1.0  0.37710  0.36395  0.60872  1.0000
  F   F151      1.0  0.37430  0.86157  0.10848  1.0000
  F   F152      1.0  0.37131  0.86718  0.60790  1.0000
  F   F153      1.0  0.62336  0.35670  0.10917  1.0000
  F   F154      1.0  0.62158  0.37504  0.60792  1.0000
  F   F155      1.0  0.62255  0.87471  0.09817  1.0000
  F   F156      1.0  0.62585  0.88431  0.58972  1.0000
  F   F157      1.0  0.87122  0.36613  0.12032  1.0000
  F   F158      1.0  0.87331  0.38594  0.60442  1.0000
  F   F159      1.0  0.87420  0.87023  0.10835  1.0000
  F   F160      1.0  0.87114  0.84282  0.63664  1.0000
  F   F161      1.0  0.18385  0.24965  0.34194  1.0000
  F   F162      1.0  0.18712  0.25804  0.86128  1.0000
  F   F163      1.0  0.18297  0.74328  0.36178  1.0000
  F   F164      1.0  0.17809  0.75013  0.86644  1.0000
  F   F165      1.0  0.43859  0.25036  0.35586  1.0000
  F   F166      1.0  0.43493  0.25938  0.84226  1.0000
  F   F167      1.0  0.43673  0.74868  0.35273  1.0000
  F   F168      1.0  0.43499  0.76719  0.85190  1.0000
  F   F169      1.0  0.68666  0.24113  0.35516  1.0000
  F   F170      1.0  0.67996  0.24440  0.86015  1.0000
  F   F171      1.0  0.69230  0.74066  0.36022  1.0000
  F   F172      1.0  0.68711  0.74506  0.85830  1.0000
  F   F173      1.0  0.94372  0.24077  0.35740  1.0000
  F   F174      1.0  0.93868  0.25345  0.85565  1.0000
  F   F175      1.0  0.94446  0.75624  0.34110  1.0000
  F   F176      1.0  0.92561  0.74150  0.87803  1.0000
  F   F177      1.0  0.12714  0.11731  0.40006  1.0000
  F   F178      1.0  0.12425  0.11615  0.90322  1.0000
  F   F179      1.0  0.12568  0.63021  0.38728  1.0000
  F   F180      1.0  0.12570  0.60961  0.90273  1.0000
  F   F181      1.0  0.37099  0.12658  0.39615  1.0000
  F   F182      1.0  0.37607  0.14163  0.87591  1.0000
  F   F183      1.0  0.38094  0.64776  0.36682  1.0000
  F   F184      1.0  0.37378  0.65066  0.88335  1.0000
  F   F185      1.0  0.62166  0.11850  0.40365  1.0000
  F   F186      1.0  0.62536  0.12863  0.89415  1.0000
  F   F187      1.0  0.63069  0.63839  0.38244  1.0000
  F   F188      1.0  0.62465  0.62430  0.90055  1.0000
  F   F189      1.0  0.87370  0.11917  0.40435  1.0000
  F   F190      1.0  0.87746  0.13797  0.88808  1.0000
  F   F191      1.0  0.88189  0.63881  0.37524  1.0000
  F   F192      1.0  0.87548  0.62533  0.90271  1.0000
  F   F193      1.0  0.00907  0.35683  0.06101  1.0000
  F   F194      1.0  0.00757  0.34263  0.59404  1.0000
  F   F195      1.0  0.01168  0.86556  0.06252  1.0000
  F   F196      1.0  0.00656  0.85475  0.57223  1.0000
  F   F197      1.0  0.26730  0.36969  0.05005  1.0000
  F   F198      1.0  0.25689  0.35895  0.58777  1.0000
  F   F199      1.0  0.25721  0.87611  0.07024  1.0000
  F   F200      1.0  0.25011  0.85429  0.59309  1.0000
  F   F201      1.0  0.50444  0.35951  0.07088  1.0000
  F   F202      1.0  0.50736  0.37369  0.56471  1.0000
  F   F203      1.0  0.50940  0.86153  0.07448  1.0000
  F   F204      1.0  0.50494  0.85968  0.57857  1.0000
  F   F205      1.0  0.76214  0.37156  0.04860  1.0000
  F   F206      1.0  0.75311  0.35579  0.58686  1.0000
  F   F207      1.0  0.75841  0.86278  0.08299  1.0000
  F   F208      1.0  0.75279  0.85176  0.59530  1.0000
  F   F209      1.0  0.07035  0.48161  0.18323  1.0000
  F   F210      1.0  0.06597  0.48160  0.68267  1.0000
  F   F211      1.0  0.07142  0.99325  0.16437  1.0000
  F   F212      1.0  0.06356  0.98536  0.68036  1.0000
  F   F213      1.0  0.32885  0.48859  0.16724  1.0000
  F   F214      1.0  0.32036  0.49258  0.67466  1.0000
  F   F215      1.0  0.31524  0.98328  0.17332  1.0000
  F   F216      1.0  0.31852  0.98528  0.68354  1.0000
  F   F217      1.0  0.56822  0.46696  0.18475  1.0000
  F   F218      1.0  0.56915  0.48560  0.68912  1.0000
  F   F219      1.0  0.56126  0.98655  0.19314  1.0000
  F   F220      1.0  0.57465  0.97531  0.67690  1.0000
  F   F221      1.0  0.81762  0.48382  0.17573  1.0000
  F   F222      1.0  0.81685  0.48137  0.69871  1.0000
  F   F223      1.0  0.82341  0.98243  0.17378  1.0000
  F   F224      1.0  0.82341  0.99032  0.66861  1.0000
  F   F225      1.0  0.24817  0.16647  0.40336  1.0000
  F   F226      1.0  0.24704  0.14823  0.91035  1.0000
  F   F227      1.0  0.23818  0.65020  0.43072  1.0000
  F   F228      1.0  0.23796  0.64379  0.92943  1.0000
  F   F229      1.0  0.48695  0.12458  0.45203  1.0000
  F   F230      1.0  0.49460  0.13038  0.92208  1.0000
  F   F231      1.0  0.49280  0.63397  0.43252  1.0000
  F   F232      1.0  0.48925  0.64774  0.92775  1.0000
  F   F233      1.0  0.74834  0.12898  0.41259  1.0000
  F   F234      1.0  0.74625  0.13393  0.92391  1.0000
  F   F235      1.0  0.74260  0.62789  0.45570  1.0000
  F   F236      1.0  0.74408  0.64016  0.92594  1.0000
  F   F237      1.0  0.99606  0.11478  0.43971  1.0000
  F   F238      1.0  0.99684  0.14031  0.92430  1.0000
  F   F239      1.0  0.99051  0.63698  0.43290  1.0000
  F   F240      1.0  0.99080  0.65278  0.91801  1.0000
  F   F241      1.0  0.18477  0.00656  0.32755  1.0000
  F   F242      1.0  0.17682  0.01545  0.83656  1.0000
  F   F243      1.0  0.17994  0.51410  0.32735  1.0000
  F   F244      1.0  0.18631  0.51353  0.81553  1.0000
  F   F245      1.0  0.43279  0.01338  0.32751  1.0000
  F   F246      1.0  0.43363  0.02020  0.82398  1.0000
  F   F247      1.0  0.43026  0.52872  0.31619  1.0000
  F   F248      1.0  0.42792  0.52213  0.82444  1.0000
  F   F249      1.0  0.68441  0.00614  0.32512  1.0000
  F   F250      1.0  0.68628  0.02694  0.82049  1.0000
  F   F251      1.0  0.68112  0.50780  0.34683  1.0000
  F   F252      1.0  0.68019  0.50899  0.84380  1.0000
  F   F253      1.0  0.93367  0.01644  0.32266  1.0000
  F   F254      1.0  0.92638  0.01165  0.83111  1.0000
  F   F255      1.0  0.92305  0.50814  0.34622  1.0000
  F   F256      1.0  0.93562  0.52047  0.82972  1.0000
  F   F257      1.0  0.99871  0.24016  0.00575  1.0000
  F   F258      1.0  0.99827  0.24137  0.50437  1.0000
  F   F259      1.0  0.99794  0.74816  0.99323  1.0000
  F   F260      1.0  0.00211  0.74395  0.50892  1.0000
  F   F261      1.0  0.25254  0.25134  0.99168  1.0000
  F   F262      1.0  0.25352  0.26059  0.50628  1.0000
  F   F263      1.0  0.24960  0.75397  0.00040  1.0000
  F   F264      1.0  0.25168  0.75952  0.49220  1.0000
  F   F265      1.0  0.49898  0.24451  0.00077  1.0000
  F   F266      1.0  0.49894  0.24867  0.50856  1.0000
  F   F267      1.0  0.50207  0.75603  0.00069  1.0000
  F   F268      1.0  0.49776  0.76683  0.49116  1.0000
  F   F269      1.0  0.74717  0.22360  0.01690  1.0000
  F   F270      1.0  0.75025  0.24179  0.50280  1.0000
  F   F271      1.0  0.75582  0.76037  0.99679  1.0000
  F   F272      1.0  0.75411  0.77065  0.49311  1.0000
  F   F273      1.0  0.12241  0.99667  0.25347  1.0000
  F   F274      1.0  0.12318  0.00405  0.75006  1.0000
  F   F275      1.0  0.13125  0.50552  0.23995  1.0000
  F   F276      1.0  0.12649  0.50006  0.75359  1.0000
  F   F277      1.0  0.37841  0.00568  0.23548  1.0000
  F   F278      1.0  0.38043  0.00551  0.74447  1.0000
  F   F279      1.0  0.37937  0.49807  0.24580  1.0000
  F   F280      1.0  0.37730  0.51347  0.73502  1.0000
  F   F281      1.0  0.63117  0.99127  0.22800  1.0000
  F   F282      1.0  0.62749  0.99809  0.75004  1.0000
  F   F283      1.0  0.62978  0.49766  0.24908  1.0000
  F   F284      1.0  0.62239  0.48928  0.76926  1.0000
  F   F285      1.0  0.87675  0.98664  0.25706  1.0000
  F   F286      1.0  0.86715  0.98919  0.76420  1.0000
  F   F287      1.0  0.86713  0.49523  0.26919  1.0000
  F   F288      1.0  0.87520  0.49525  0.75632  1.0000
  F   F289      1.0  0.04168  0.03246  0.02446  1.0000
  F   F290      1.0  0.04320  0.02490  0.52374  1.0000
  F   F291      1.0  0.04011  0.53297  0.02675  1.0000
  F   F292      1.0  0.04399  0.53153  0.51130  1.0000
  F   F293      1.0  0.30243  0.03342  0.01410  1.0000
  F   F294      1.0  0.28532  0.04417  0.52940  1.0000
  F   F295      1.0  0.29507  0.53905  0.01957  1.0000
  F   F296      1.0  0.29300  0.53782  0.52584  1.0000
  F   F297      1.0  0.54114  0.03167  0.02229  1.0000
  F   F298      1.0  0.54160  0.03516  0.52203  1.0000
  F   F299      1.0  0.54328  0.52694  0.02007  1.0000
  F   F300      1.0  0.55035  0.52759  0.51905  1.0000
  F   F301      1.0  0.79894  0.02510  0.01811  1.0000
  F   F302      1.0  0.78680  0.02202  0.54220  1.0000
  F   F303      1.0  0.78988  0.53154  0.03320  1.0000
  F   F304      1.0  0.79773  0.53010  0.54044  1.0000
  F   F305      1.0  0.24208  0.40072  0.22273  1.0000
  F   F306      1.0  0.22958  0.40951  0.72937  1.0000
  F   F307      1.0  0.23152  0.90207  0.23875  1.0000
  F   F308      1.0  0.23415  0.91884  0.72662  1.0000
  F   F309      1.0  0.48822  0.43256  0.19947  1.0000
  F   F310      1.0  0.48641  0.44148  0.71242  1.0000
  F   F311      1.0  0.48127  0.90849  0.23987  1.0000
  F   F312      1.0  0.48229  0.93091  0.71830  1.0000
  F   F313      1.0  0.73561  0.40875  0.22945  1.0000
  F   F314      1.0  0.73292  0.41273  0.73295  1.0000
  F   F315      1.0  0.73315  0.90728  0.23638  1.0000
  F   F316      1.0  0.73054  0.91384  0.72895  1.0000
  F   F317      1.0  0.98441  0.41578  0.23313  1.0000
  F   F318      1.0  0.98078  0.41680  0.72810  1.0000
  F   F319      1.0  0.98096  0.92854  0.22321  1.0000
  F   F320      1.0  0.98464  0.91340  0.72943  1.0000
  F   F321      1.0  0.21489  0.47510  0.46348  1.0000
  F   F322      1.0  0.20896  0.46861  0.96983  1.0000
  F   F323      1.0  0.20165  0.97685  0.48874  1.0000
  F   F324      1.0  0.20187  0.96963  0.98368  1.0000
  F   F325      1.0  0.44663  0.48423  0.48899  1.0000
  F   F326      1.0  0.45658  0.47743  0.96421  1.0000
  F   F327      1.0  0.44689  0.95892  0.48696  1.0000
  F   F328      1.0  0.45427  0.97599  0.98569  1.0000
  F   F329      1.0  0.70145  0.46477  0.50158  1.0000
  F   F330      1.0  0.70350  0.46707  0.99103  1.0000
  F   F331      1.0  0.71354  0.97054  0.47081  1.0000
  F   F332      1.0  0.70971  0.95963  0.97996  1.0000
  F   F333      1.0  0.96526  0.45735  0.46661  1.0000
  F   F334      1.0  0.95572  0.46682  0.98906  1.0000
  F   F335      1.0  0.95201  0.96185  0.48290  1.0000
  F   F336      1.0  0.97001  0.97253  0.95371  1.0000
  F   F337      1.0  0.01593  0.09495  0.27489  1.0000
  F   F338      1.0  0.01262  0.10822  0.76292  1.0000
  F   F339      1.0  0.01291  0.59823  0.27339  1.0000
  F   F340      1.0  0.01485  0.57923  0.78043  1.0000
  F   F341      1.0  0.26057  0.09221  0.25880  1.0000
  F   F342      1.0  0.26356  0.09987  0.75572  1.0000
  F   F343      1.0  0.26152  0.60241  0.26793  1.0000
  F   F344      1.0  0.26592  0.60403  0.76113  1.0000
  F   F345      1.0  0.51473  0.08947  0.29192  1.0000
  F   F346      1.0  0.52287  0.08046  0.77520  1.0000
  F   F347      1.0  0.51505  0.57488  0.27811  1.0000
  F   F348      1.0  0.51493  0.58835  0.77566  1.0000
  F   F349      1.0  0.76541  0.07670  0.26868  1.0000
  F   F350      1.0  0.77250  0.07338  0.77645  1.0000
  F   F351      1.0  0.76364  0.58433  0.28207  1.0000
  F   F352      1.0  0.76423  0.59696  0.76807  1.0000
  F   F353      1.0  0.09573  0.41542  0.44735  1.0000
  F   F354      1.0  0.10349  0.41227  0.97863  1.0000
  F   F355      1.0  0.09841  0.88925  0.46526  1.0000
  F   F356      1.0  0.10002  0.91157  0.96888  1.0000
  F   F357      1.0  0.35528  0.40938  0.46667  1.0000
  F   F358      1.0  0.35861  0.41593  0.95267  1.0000
  F   F359      1.0  0.34713  0.92476  0.46294  1.0000
  F   F360      1.0  0.35630  0.91822  0.95409  1.0000
  F   F361      1.0  0.59912  0.41651  0.44821  1.0000
  F   F362      1.0  0.60012  0.39200  0.97076  1.0000
  F   F363      1.0  0.60606  0.92114  0.44663  1.0000
  F   F364      1.0  0.59775  0.91878  0.94542  1.0000
  F   F365      1.0  0.84767  0.40184  0.45443  1.0000
  F   F366      1.0  0.85109  0.41390  0.97331  1.0000
  F   F367      1.0  0.85631  0.90675  0.48903  1.0000
  F   F368      1.0  0.84960  0.88543  0.96379  1.0000
  F   F369      1.0  0.04767  0.29047  0.29346  1.0000
  F   F370      1.0  0.05200  0.30884  0.76271  1.0000
  F   F371      1.0  0.03648  0.80324  0.29951  1.0000
  F   F372      1.0  0.04880  0.79364  0.78726  1.0000
  F   F373      1.0  0.30220  0.31307  0.27755  1.0000
  F   F374      1.0  0.30110  0.31225  0.77242  1.0000
  F   F375      1.0  0.29548  0.79429  0.27839  1.0000
  F   F376      1.0  0.29620  0.81118  0.77732  1.0000
  F   F377      1.0  0.54310  0.28261  0.29228  1.0000
  F   F378      1.0  0.53953  0.29591  0.78468  1.0000
  F   F379      1.0  0.54955  0.79063  0.28730  1.0000
  F   F380      1.0  0.55059  0.79934  0.78128  1.0000
  F   F381      1.0  0.79902  0.29080  0.30056  1.0000
  F   F382      1.0  0.79213  0.29803  0.79718  1.0000
  F   F383      1.0  0.79271  0.79813  0.30418  1.0000
  F   F384      1.0  0.79154  0.79149  0.79247  1.0000
