data_image0
_chemical_formula_structural       Hf96F384
_chemical_formula_sum              "Hf96 F384"
_cell_length_a       31.009
_cell_length_b       15.5047
_cell_length_c       15.4961
_cell_angle_alpha    63.342
_cell_angle_beta     63.342
_cell_angle_gamma    80.1625

_space_group_name_H-M_alt    "P 1"
_space_group_IT_number       1

loop_
  _space_group_symop_operation_xyz
  'x, y, z'

loop_
  _atom_site_type_symbol
  _atom_site_label
  _atom_site_symmetry_multiplicity
  _atom_site_fract_x
  _atom_site_fract_y
  _atom_site_fract_z
  _atom_site_occupancy
  Hf  Hf1       1.0  0.19707  0.10462  0.37903  1.0000
  Hf  Hf2       1.0  0.19570  0.10085  0.88049  1.0000
  Hf  Hf3       1.0  0.19592  0.60288  0.37563  1.0000
  Hf  Hf4       1.0  0.19828  0.60286  0.87374  1.0000
  Hf  Hf5       1.0  0.44818  0.10553  0.37866  1.0000
  Hf  Hf6       1.0  0.44348  0.11255  0.87650  1.0000
  Hf  Hf7       1.0  0.44610  0.61080  0.37064  1.0000
  Hf  Hf8       1.0  0.44239  0.60612  0.88931  1.0000
  Hf  Hf9       1.0  0.69487  0.11037  0.37096  1.0000
  Hf  Hf10      1.0  0.69514  0.11681  0.87295  1.0000
  Hf  Hf11      1.0  0.69609  0.60773  0.37333  1.0000
  Hf  Hf12      1.0  0.69926  0.61411  0.86647  1.0000
  Hf  Hf13      1.0  0.94529  0.10726  0.37789  1.0000
  Hf  Hf14      1.0  0.94633  0.10481  0.87483  1.0000
  Hf  Hf15      1.0  0.94709  0.60938  0.36661  1.0000
  Hf  Hf16      1.0  0.94636  0.60645  0.87812  1.0000
  Hf  Hf17      1.0  0.05420  0.38658  0.12740  1.0000
  Hf  Hf18      1.0  0.05398  0.38833  0.62683  1.0000
  Hf  Hf19      1.0  0.05320  0.89786  0.12853  1.0000
  Hf  Hf20      1.0  0.05308  0.89154  0.61851  1.0000
  Hf  Hf21      1.0  0.30275  0.40186  0.11422  1.0000
  Hf  Hf22      1.0  0.30709  0.38195  0.62793  1.0000
  Hf  Hf23      1.0  0.30021  0.88890  0.13683  1.0000
  Hf  Hf24      1.0  0.30546  0.89284  0.61960  1.0000
  Hf  Hf25      1.0  0.55251  0.39394  0.11706  1.0000
  Hf  Hf26      1.0  0.55964  0.39978  0.61413  1.0000
  Hf  Hf27      1.0  0.55168  0.89797  0.11765  1.0000
  Hf  Hf28      1.0  0.55285  0.89325  0.63573  1.0000
  Hf  Hf29      1.0  0.80318  0.39584  0.11924  1.0000
  Hf  Hf30      1.0  0.80448  0.38880  0.63027  1.0000
  Hf  Hf31      1.0  0.80360  0.89213  0.12881  1.0000
  Hf  Hf32      1.0  0.80422  0.89087  0.62088  1.0000
  Hf  Hf33      1.0  0.05540  0.18260  0.41839  1.0000
  Hf  Hf34      1.0  0.05660  0.18345  0.91513  1.0000
  Hf  Hf35      1.0  0.05653  0.67775  0.41860  1.0000
  Hf  Hf36      1.0  0.05746  0.68201  0.91648  1.0000
  Hf  Hf37      1.0  0.30710  0.18129  0.41267  1.0000
  Hf  Hf38      1.0  0.30524  0.17884  0.91892  1.0000
  Hf  Hf39      1.0  0.30377  0.67107  0.42515  1.0000
  Hf  Hf40      1.0  0.30577  0.69177  0.90464  1.0000
  Hf  Hf41      1.0  0.55542  0.18412  0.41305  1.0000
  Hf  Hf42      1.0  0.55454  0.19306  0.91137  1.0000
  Hf  Hf43      1.0  0.55594  0.68570  0.41291  1.0000
  Hf  Hf44      1.0  0.55622  0.68499  0.91856  1.0000
  Hf  Hf45      1.0  0.80519  0.18371  0.41725  1.0000
  Hf  Hf46      1.0  0.80909  0.18339  0.90912  1.0000
  Hf  Hf47      1.0  0.80172  0.67749  0.42737  1.0000
  Hf  Hf48      1.0  0.80648  0.68519  0.91891  1.0000
  Hf  Hf49      1.0  0.15739  0.38227  0.33678  1.0000
  Hf  Hf50      1.0  0.16077  0.38783  0.83023  1.0000
  Hf  Hf51      1.0  0.15576  0.89204  0.33581  1.0000
  Hf  Hf52      1.0  0.15927  0.88761  0.83531  1.0000
  Hf  Hf53      1.0  0.40658  0.38751  0.33847  1.0000
  Hf  Hf54      1.0  0.41311  0.39271  0.82896  1.0000
  Hf  Hf55      1.0  0.40665  0.87935  0.34032  1.0000
  Hf  Hf56      1.0  0.41011  0.89306  0.83196  1.0000
  Hf  Hf57      1.0  0.65939  0.39225  0.32908  1.0000
  Hf  Hf58      1.0  0.65911  0.39812  0.82586  1.0000
  Hf  Hf59      1.0  0.65746  0.88714  0.33593  1.0000
  Hf  Hf60      1.0  0.66082  0.88983  0.82672  1.0000
  Hf  Hf61      1.0  0.90875  0.38470  0.33809  1.0000
  Hf  Hf62      1.0  0.91194  0.38960  0.83512  1.0000
  Hf  Hf63      1.0  0.90559  0.87920  0.33705  1.0000
  Hf  Hf64      1.0  0.90736  0.88866  0.83718  1.0000
  Hf  Hf65      1.0  0.19266  0.31735  0.08400  1.0000
  Hf  Hf66      1.0  0.19669  0.31395  0.57879  1.0000
  Hf  Hf67      1.0  0.19455  0.81844  0.08570  1.0000
  Hf  Hf68      1.0  0.19247  0.81390  0.58331  1.0000
  Hf  Hf69      1.0  0.44107  0.31131  0.09550  1.0000
  Hf  Hf70      1.0  0.44582  0.31747  0.58545  1.0000
  Hf  Hf71      1.0  0.44195  0.82410  0.07935  1.0000
  Hf  Hf72      1.0  0.44318  0.81746  0.58688  1.0000
  Hf  Hf73      1.0  0.69418  0.32398  0.07773  1.0000
  Hf  Hf74      1.0  0.69771  0.31816  0.58484  1.0000
  Hf  Hf75      1.0  0.69435  0.82589  0.07749  1.0000
  Hf  Hf76      1.0  0.69209  0.81966  0.58354  1.0000
  Hf  Hf77      1.0  0.94545  0.30800  0.08857  1.0000
  Hf  Hf78      1.0  0.94636  0.31900  0.58151  1.0000
  Hf  Hf79      1.0  0.94406  0.81888  0.08184  1.0000
  Hf  Hf80      1.0  0.94329  0.81420  0.58443  1.0000
  Hf  Hf81      1.0  0.09187  0.10820  0.16913  1.0000
  Hf  Hf82      1.0  0.09099  0.10690  0.67007  1.0000
  Hf  Hf83      1.0  0.08993  0.61029  0.16596  1.0000
  Hf  Hf84      1.0  0.09252  0.60807  0.66287  1.0000
  Hf  Hf85      1.0  0.33995  0.10951  0.17348  1.0000
  Hf  Hf86      1.0  0.34395  0.11194  0.66065  1.0000
  Hf  Hf87      1.0  0.33779  0.61434  0.16975  1.0000
  Hf  Hf88      1.0  0.34344  0.61002  0.66896  1.0000
  Hf  Hf89      1.0  0.59259  0.11402  0.16107  1.0000
  Hf  Hf90      1.0  0.59961  0.11871  0.65871  1.0000
  Hf  Hf91      1.0  0.59256  0.61370  0.16545  1.0000
  Hf  Hf92      1.0  0.58833  0.61609  0.66203  1.0000
  Hf  Hf93      1.0  0.83838  0.10496  0.17195  1.0000
  Hf  Hf94      1.0  0.84014  0.10521  0.67170  1.0000
  Hf  Hf95      1.0  0.84103  0.61055  0.16689  1.0000
  Hf  Hf96      1.0  0.84259  0.61387  0.66399  1.0000
  F   F1        1.0  0.07779  0.11645  0.31546  1.0000
  F   F2        1.0  0.07964  0.13429  0.80505  1.0000
  F   F3        1.0  0.08032  0.62331  0.30584  1.0000
  F   F4        1.0  0.07599  0.62143  0.80608  1.0000
  F   F5        1.0  0.32091  0.11765  0.30918  1.0000
  F   F6        1.0  0.32825  0.13483  0.80391  1.0000
  F   F7        1.0  0.33055  0.61396  0.30692  1.0000
  F   F8        1.0  0.32705  0.63450  0.80317  1.0000
  F   F9        1.0  0.57039  0.13174  0.30850  1.0000
  F   F10       1.0  0.57863  0.13433  0.79361  1.0000
  F   F11       1.0  0.57775  0.63582  0.29721  1.0000
  F   F12       1.0  0.58038  0.63377  0.80914  1.0000
  F   F13       1.0  0.83260  0.12521  0.30474  1.0000
  F   F14       1.0  0.82363  0.11047  0.81498  1.0000
  F   F15       1.0  0.82638  0.61495  0.31382  1.0000
  F   F16       1.0  0.82790  0.63497  0.80807  1.0000
  F   F17       1.0  0.19128  0.33729  0.44149  1.0000
  F   F18       1.0  0.18265  0.34785  0.94846  1.0000
  F   F19       1.0  0.18196  0.83374  0.44809  1.0000
  F   F20       1.0  0.18548  0.83663  0.95426  1.0000
  F   F21       1.0  0.43985  0.34939  0.44599  1.0000
  F   F22       1.0  0.43225  0.32344  0.96708  1.0000
  F   F23       1.0  0.42935  0.83628  0.45640  1.0000
  F   F24       1.0  0.44244  0.85478  0.93798  1.0000
  F   F25       1.0  0.68614  0.34667  0.44186  1.0000
  F   F26       1.0  0.68216  0.34764  0.94640  1.0000
  F   F27       1.0  0.67925  0.83783  0.45563  1.0000
  F   F28       1.0  0.68490  0.84851  0.93788  1.0000
  F   F29       1.0  0.93327  0.33998  0.45741  1.0000
  F   F30       1.0  0.94169  0.34168  0.94060  1.0000
  F   F31       1.0  0.93653  0.83597  0.44402  1.0000
  F   F32       1.0  0.93386  0.84362  0.95085  1.0000
  F   F33       1.0  0.17403  0.37730  0.18926  1.0000
  F   F34       1.0  0.16665  0.36750  0.69669  1.0000
  F   F35       1.0  0.16895  0.86250  0.20833  1.0000
  F   F36       1.0  0.16773  0.85722  0.70293  1.0000
  F   F37       1.0  0.41832  0.36366  0.20456  1.0000
  F   F38       1.0  0.42393  0.38410  0.69343  1.0000
  F   F39       1.0  0.41283  0.87096  0.20585  1.0000
  F   F40       1.0  0.41873  0.86336  0.70701  1.0000
  F   F41       1.0  0.66948  0.37319  0.19661  1.0000
  F   F42       1.0  0.67393  0.37772  0.69259  1.0000
  F   F43       1.0  0.67547  0.88587  0.18521  1.0000
  F   F44       1.0  0.67455  0.87538  0.68780  1.0000
  F   F45       1.0  0.92026  0.35839  0.20228  1.0000
  F   F46       1.0  0.91999  0.36255  0.70332  1.0000
  F   F47       1.0  0.91630  0.85035  0.20771  1.0000
  F   F48       1.0  0.92263  0.87102  0.69477  1.0000
  F   F49       1.0  0.06297  0.15196  0.05792  1.0000
  F   F50       1.0  0.06736  0.16749  0.55135  1.0000
  F   F51       1.0  0.05981  0.65513  0.05836  1.0000
  F   F52       1.0  0.06480  0.64609  0.55662  1.0000
  F   F53       1.0  0.30993  0.14847  0.06368  1.0000
  F   F54       1.0  0.32115  0.15027  0.54785  1.0000
  F   F55       1.0  0.31517  0.66462  0.05498  1.0000
  F   F56       1.0  0.30657  0.64295  0.56820  1.0000
  F   F57       1.0  0.57407  0.16807  0.03307  1.0000
  F   F58       1.0  0.57475  0.16232  0.54468  1.0000
  F   F59       1.0  0.56765  0.66444  0.04509  1.0000
  F   F60       1.0  0.56239  0.66207  0.54744  1.0000
  F   F61       1.0  0.81205  0.14591  0.06380  1.0000
  F   F62       1.0  0.81107  0.15467  0.55940  1.0000
  F   F63       1.0  0.81179  0.66441  0.05074  1.0000
  F   F64       1.0  0.81032  0.65563  0.56744  1.0000
  F   F65       1.0  0.20406  0.20605  0.20453  1.0000
  F   F66       1.0  0.20392  0.19791  0.70043  1.0000
  F   F67       1.0  0.20228  0.70196  0.22146  1.0000
  F   F68       1.0  0.20592  0.69572  0.72160  1.0000
  F   F69       1.0  0.46030  0.19905  0.21711  1.0000
  F   F70       1.0  0.44773  0.20616  0.71050  1.0000
  F   F71       1.0  0.44661  0.70300  0.21268  1.0000
  F   F72       1.0  0.45643  0.70233  0.73554  1.0000
  F   F73       1.0  0.70137  0.20697  0.21089  1.0000
  F   F74       1.0  0.71404  0.21999  0.70616  1.0000
  F   F75       1.0  0.70109  0.71611  0.21294  1.0000
  F   F76       1.0  0.70197  0.70725  0.70757  1.0000
  F   F77       1.0  0.95634  0.19807  0.21358  1.0000
  F   F78       1.0  0.95814  0.19437  0.70770  1.0000
  F   F79       1.0  0.96566  0.70550  0.20437  1.0000
  F   F80       1.0  0.95139  0.70660  0.71271  1.0000
  F   F81       1.0  0.14653  0.08652  0.03804  1.0000
  F   F82       1.0  0.15528  0.07403  0.54914  1.0000
  F   F83       1.0  0.15130  0.60558  0.03499  1.0000
  F   F84       1.0  0.14862  0.58597  0.55013  1.0000
  F   F85       1.0  0.39926  0.08949  0.03952  1.0000
  F   F86       1.0  0.40287  0.08860  0.53435  1.0000
  F   F87       1.0  0.39484  0.58478  0.04292  1.0000
  F   F88       1.0  0.40359  0.63236  0.52891  1.0000
  F   F89       1.0  0.65436  0.08195  0.03669  1.0000
  F   F90       1.0  0.65536  0.10606  0.51763  1.0000
  F   F91       1.0  0.65113  0.60049  0.03338  1.0000
  F   F92       1.0  0.64868  0.57049  0.53345  1.0000
  F   F93       1.0  0.89047  0.07723  0.03624  1.0000
  F   F94       1.0  0.89385  0.08296  0.54018  1.0000
  F   F95       1.0  0.89721  0.57872  0.04604  1.0000
  F   F96       1.0  0.89755  0.59741  0.53672  1.0000
  F   F97       1.0  0.15294  0.20212  0.11821  1.0000
  F   F98       1.0  0.14773  0.20595  0.62168  1.0000
  F   F99       1.0  0.14995  0.69724  0.13751  1.0000
  F   F100      1.0  0.14882  0.69540  0.63315  1.0000
  F   F101      1.0  0.39974  0.18362  0.15308  1.0000
  F   F102      1.0  0.39986  0.19593  0.61282  1.0000
  F   F103      1.0  0.39831  0.71177  0.11613  1.0000
  F   F104      1.0  0.40171  0.70386  0.64749  1.0000
  F   F105      1.0  0.65121  0.20226  0.11040  1.0000
  F   F106      1.0  0.65667  0.19818  0.63466  1.0000
  F   F107      1.0  0.64730  0.70570  0.12614  1.0000
  F   F108      1.0  0.64879  0.68942  0.61727  1.0000
  F   F109      1.0  0.90140  0.18655  0.11799  1.0000
  F   F110      1.0  0.90346  0.19036  0.63082  1.0000
  F   F111      1.0  0.90281  0.69198  0.13556  1.0000
  F   F112      1.0  0.89480  0.70639  0.63160  1.0000
  F   F113      1.0  0.09471  0.30948  0.35771  1.0000
  F   F114      1.0  0.09932  0.30716  0.88014  1.0000
  F   F115      1.0  0.09640  0.80044  0.38213  1.0000
  F   F116      1.0  0.09742  0.79459  0.88652  1.0000
  F   F117      1.0  0.34940  0.29549  0.39100  1.0000
  F   F118      1.0  0.35182  0.30634  0.89170  1.0000
  F   F119      1.0  0.35008  0.78537  0.39399  1.0000
  F   F120      1.0  0.34710  0.80619  0.86656  1.0000
  F   F121      1.0  0.59961  0.30763  0.36019  1.0000
  F   F122      1.0  0.59877  0.31744  0.86777  1.0000
  F   F123      1.0  0.59188  0.81521  0.36407  1.0000
  F   F124      1.0  0.60455  0.80224  0.85600  1.0000
  F   F125      1.0  0.84576  0.30948  0.38591  1.0000
  F   F126      1.0  0.84246  0.30706  0.89816  1.0000
  F   F127      1.0  0.84482  0.80066  0.38573  1.0000
  F   F128      1.0  0.84826  0.80659  0.86796  1.0000
  F   F129      1.0  0.07057  0.25520  0.12740  1.0000
  F   F130      1.0  0.06768  0.25020  0.64535  1.0000
  F   F131      1.0  0.06948  0.75783  0.12799  1.0000
  F   F132      1.0  0.06727  0.75211  0.62656  1.0000
  F   F133      1.0  0.31462  0.25945  0.14451  1.0000
  F   F134      1.0  0.31091  0.24303  0.64837  1.0000
  F   F135      1.0  0.30774  0.75113  0.16123  1.0000
  F   F136      1.0  0.31945  0.74796  0.64165  1.0000
  F   F137      1.0  0.56105  0.25199  0.14468  1.0000
  F   F138      1.0  0.56945  0.26087  0.63509  1.0000
  F   F139      1.0  0.56374  0.75549  0.13500  1.0000
  F   F140      1.0  0.55943  0.74645  0.65420  1.0000
  F   F141      1.0  0.80919  0.23833  0.15469  1.0000
  F   F142      1.0  0.81594  0.24424  0.64426  1.0000
  F   F143      1.0  0.81932  0.75295  0.13178  1.0000
  F   F144      1.0  0.81045  0.75146  0.64665  1.0000
  F   F145      1.0  0.12247  0.36067  0.12351  1.0000
  F   F146      1.0  0.12532  0.39375  0.58116  1.0000
  F   F147      1.0  0.12539  0.88468  0.10200  1.0000
  F   F148      1.0  0.12622  0.88866  0.58459  1.0000
  F   F149      1.0  0.37412  0.35796  0.11916  1.0000
  F   F150      1.0  0.37450  0.35227  0.61950  1.0000
  F   F151      1.0  0.37233  0.88686  0.10378  1.0000
  F   F152      1.0  0.37566  0.87405  0.61087  1.0000
  F   F153      1.0  0.62191  0.35769  0.11535  1.0000
  F   F154      1.0  0.62856  0.36627  0.60557  1.0000
  F   F155      1.0  0.62386  0.88577  0.10491  1.0000
  F   F156      1.0  0.62250  0.85616  0.62395  1.0000
  F   F157      1.0  0.87249  0.34506  0.12132  1.0000
  F   F158      1.0  0.87399  0.36889  0.61778  1.0000
  F   F159      1.0  0.87403  0.87613  0.10772  1.0000
  F   F160      1.0  0.87648  0.87194  0.60135  1.0000
  F   F161      1.0  0.18101  0.23426  0.36793  1.0000
  F   F162      1.0  0.18950  0.24243  0.85931  1.0000
  F   F163      1.0  0.18269  0.73957  0.36818  1.0000
  F   F164      1.0  0.18515  0.74667  0.86079  1.0000
  F   F165      1.0  0.43430  0.25267  0.35987  1.0000
  F   F166      1.0  0.43868  0.25910  0.84704  1.0000
  F   F167      1.0  0.44407  0.75165  0.34156  1.0000
  F   F168      1.0  0.42401  0.75389  0.87989  1.0000
  F   F169      1.0  0.68683  0.25097  0.35137  1.0000
  F   F170      1.0  0.67912  0.25107  0.87343  1.0000
  F   F171      1.0  0.67149  0.74343  0.38271  1.0000
  F   F172      1.0  0.69143  0.76076  0.85253  1.0000
  F   F173      1.0  0.92943  0.24643  0.37385  1.0000
  F   F174      1.0  0.92978  0.24465  0.87341  1.0000
  F   F175      1.0  0.93531  0.75031  0.34823  1.0000
  F   F176      1.0  0.93489  0.75755  0.86440  1.0000
  F   F177      1.0  0.12314  0.12276  0.40929  1.0000
  F   F178      1.0  0.12422  0.12908  0.88992  1.0000
  F   F179      1.0  0.12404  0.63194  0.39701  1.0000
  F   F180      1.0  0.12459  0.62770  0.89194  1.0000
  F   F181      1.0  0.38043  0.14869  0.36678  1.0000
  F   F182      1.0  0.37515  0.14340  0.88739  1.0000
  F   F183      1.0  0.37613  0.61647  0.40822  1.0000
  F   F184      1.0  0.37072  0.63376  0.89474  1.0000
  F   F185      1.0  0.62813  0.12335  0.38218  1.0000
  F   F186      1.0  0.62925  0.14679  0.87430  1.0000
  F   F187      1.0  0.62546  0.64327  0.37973  1.0000
  F   F188      1.0  0.62930  0.63700  0.89333  1.0000
  F   F189      1.0  0.87502  0.13430  0.39347  1.0000
  F   F190      1.0  0.87880  0.15040  0.86843  1.0000
  F   F191      1.0  0.87196  0.64069  0.38266  1.0000
  F   F192      1.0  0.87386  0.60346  0.91300  1.0000
  F   F193      1.0  0.00685  0.35395  0.08027  1.0000
  F   F194      1.0  0.00536  0.36282  0.57983  1.0000
  F   F195      1.0  0.01017  0.85836  0.07541  1.0000
  F   F196      1.0  0.00985  0.85662  0.56879  1.0000
  F   F197      1.0  0.25721  0.35710  0.06880  1.0000
  F   F198      1.0  0.26307  0.36061  0.56691  1.0000
  F   F199      1.0  0.25626  0.84671  0.08677  1.0000
  F   F200      1.0  0.25696  0.84565  0.58387  1.0000
  F   F201      1.0  0.50431  0.37254  0.07257  1.0000
  F   F202      1.0  0.50593  0.36758  0.58188  1.0000
  F   F203      1.0  0.50938  0.86051  0.06140  1.0000
  F   F204      1.0  0.50801  0.86363  0.57543  1.0000
  F   F205      1.0  0.76308  0.36412  0.06917  1.0000
  F   F206      1.0  0.76181  0.37027  0.56650  1.0000
  F   F207      1.0  0.75714  0.86185  0.07067  1.0000
  F   F208      1.0  0.75765  0.86639  0.56802  1.0000
  F   F209      1.0  0.07256  0.48809  0.17029  1.0000
  F   F210      1.0  0.06040  0.48241  0.69975  1.0000
  F   F211      1.0  0.06549  0.98665  0.18301  1.0000
  F   F212      1.0  0.07124  0.98380  0.67294  1.0000
  F   F213      1.0  0.31709  0.48259  0.17022  1.0000
  F   F214      1.0  0.32852  0.47492  0.66681  1.0000
  F   F215      1.0  0.31174  0.98061  0.19436  1.0000
  F   F216      1.0  0.31103  0.98553  0.68354  1.0000
  F   F217      1.0  0.56746  0.48986  0.17214  1.0000
  F   F218      1.0  0.56512  0.48509  0.67704  1.0000
  F   F219      1.0  0.56716  0.99567  0.16777  1.0000
  F   F220      1.0  0.56818  0.99161  0.68001  1.0000
  F   F221      1.0  0.81867  0.48137  0.17155  1.0000
  F   F222      1.0  0.82379  0.48210  0.67466  1.0000
  F   F223      1.0  0.81277  0.97425  0.18745  1.0000
  F   F224      1.0  0.81623  0.98282  0.67909  1.0000
  F   F225      1.0  0.24168  0.13471  0.42861  1.0000
  F   F226      1.0  0.24244  0.12714  0.93411  1.0000
  F   F227      1.0  0.24234  0.64114  0.41911  1.0000
  F   F228      1.0  0.24263  0.63664  0.91756  1.0000
  F   F229      1.0  0.49161  0.14416  0.42902  1.0000
  F   F230      1.0  0.49590  0.14204  0.92111  1.0000
  F   F231      1.0  0.49491  0.64322  0.41541  1.0000
  F   F232      1.0  0.49090  0.63977  0.92916  1.0000
  F   F233      1.0  0.74142  0.14645  0.43135  1.0000
  F   F234      1.0  0.74368  0.14859  0.92304  1.0000
  F   F235      1.0  0.74195  0.64546  0.41880  1.0000
  F   F236      1.0  0.74614  0.63616  0.91618  1.0000
  F   F237      1.0  0.98966  0.12973  0.43375  1.0000
  F   F238      1.0  0.99184  0.14734  0.91454  1.0000
  F   F239      1.0  0.98956  0.63755  0.42306  1.0000
  F   F240      1.0  0.98625  0.62532  0.94460  1.0000
  F   F241      1.0  0.17536  0.01236  0.33767  1.0000
  F   F242      1.0  0.18047  0.01891  0.82919  1.0000
  F   F243      1.0  0.18084  0.51855  0.32156  1.0000
  F   F244      1.0  0.19596  0.51283  0.81086  1.0000
  F   F245      1.0  0.43119  0.00585  0.33759  1.0000
  F   F246      1.0  0.42782  0.02136  0.82452  1.0000
  F   F247      1.0  0.43355  0.51376  0.32403  1.0000
  F   F248      1.0  0.43000  0.51538  0.83483  1.0000
  F   F249      1.0  0.69009  0.01302  0.30791  1.0000
  F   F250      1.0  0.67451  0.02464  0.82601  1.0000
  F   F251      1.0  0.68350  0.52113  0.31583  1.0000
  F   F252      1.0  0.68245  0.51990  0.80967  1.0000
  F   F253      1.0  0.92334  0.01619  0.33106  1.0000
  F   F254      1.0  0.93194  0.01458  0.81711  1.0000
  F   F255      1.0  0.92694  0.51796  0.32814  1.0000
  F   F256      1.0  0.93187  0.50700  0.82772  1.0000
  F   F257      1.0  0.00094  0.24440  0.00046  1.0000
  F   F258      1.0  0.00308  0.25031  0.49554  1.0000
  F   F259      1.0  0.00427  0.75951  0.98755  1.0000
  F   F260      1.0  0.99922  0.74372  0.50017  1.0000
  F   F261      1.0  0.24966  0.25734  0.99125  1.0000
  F   F262      1.0  0.24947  0.22779  0.51190  1.0000
  F   F263      1.0  0.24810  0.73975  0.99649  1.0000
  F   F264      1.0  0.24553  0.73692  0.50553  1.0000
  F   F265      1.0  0.50173  0.24599  0.02086  1.0000
  F   F266      1.0  0.50366  0.24526  0.51549  1.0000
  F   F267      1.0  0.49866  0.74326  0.00202  1.0000
  F   F268      1.0  0.49778  0.75469  0.48958  1.0000
  F   F269      1.0  0.74778  0.26035  0.99414  1.0000
  F   F270      1.0  0.75085  0.24930  0.50544  1.0000
  F   F271      1.0  0.74733  0.75042  0.99531  1.0000
  F   F272      1.0  0.74325  0.72242  0.53000  1.0000
  F   F273      1.0  0.12727  0.00130  0.24667  1.0000
  F   F274      1.0  0.12956  0.99852  0.74029  1.0000
  F   F275      1.0  0.12785  0.50093  0.24153  1.0000
  F   F276      1.0  0.12569  0.50097  0.75693  1.0000
  F   F277      1.0  0.37501  0.99876  0.25274  1.0000
  F   F278      1.0  0.37443  0.99965  0.74496  1.0000
  F   F279      1.0  0.37553  0.49747  0.25489  1.0000
  F   F280      1.0  0.37956  0.50885  0.74742  1.0000
  F   F281      1.0  0.62710  0.01139  0.24333  1.0000
  F   F282      1.0  0.63074  0.01323  0.73607  1.0000
  F   F283      1.0  0.62584  0.50186  0.24879  1.0000
  F   F284      1.0  0.62408  0.50314  0.74697  1.0000
  F   F285      1.0  0.88094  0.00219  0.23188  1.0000
  F   F286      1.0  0.87874  0.99870  0.74084  1.0000
  F   F287      1.0  0.87477  0.49462  0.25665  1.0000
  F   F288      1.0  0.87702  0.49671  0.75006  1.0000
  F   F289      1.0  0.04528  0.03096  0.01429  1.0000
  F   F290      1.0  0.04237  0.03280  0.52744  1.0000
  F   F291      1.0  0.04339  0.52875  0.01193  1.0000
  F   F292      1.0  0.04787  0.52898  0.51742  1.0000
  F   F293      1.0  0.30439  0.01456  0.01564  1.0000
  F   F294      1.0  0.30025  0.03240  0.50698  1.0000
  F   F295      1.0  0.28409  0.53621  0.02314  1.0000
  F   F296      1.0  0.28739  0.52143  0.53389  1.0000
  F   F297      1.0  0.54680  0.03277  0.00940  1.0000
  F   F298      1.0  0.54410  0.03617  0.53246  1.0000
  F   F299      1.0  0.53943  0.53561  0.02203  1.0000
  F   F300      1.0  0.54514  0.53572  0.51052  1.0000
  F   F301      1.0  0.79373  0.01920  0.02036  1.0000
  F   F302      1.0  0.79816  0.02858  0.51844  1.0000
  F   F303      1.0  0.79168  0.53794  0.01967  1.0000
  F   F304      1.0  0.79366  0.53079  0.52538  1.0000
  F   F305      1.0  0.23744  0.38848  0.23673  1.0000
  F   F306      1.0  0.23241  0.40844  0.72227  1.0000
  F   F307      1.0  0.23102  0.91592  0.22904  1.0000
  F   F308      1.0  0.23002  0.92606  0.71944  1.0000
  F   F309      1.0  0.48205  0.41856  0.21689  1.0000
  F   F310      1.0  0.48879  0.42166  0.71756  1.0000
  F   F311      1.0  0.47922  0.93812  0.19593  1.0000
  F   F312      1.0  0.48324  0.90912  0.72463  1.0000
  F   F313      1.0  0.73353  0.42314  0.21879  1.0000
  F   F314      1.0  0.73936  0.39943  0.73813  1.0000
  F   F315      1.0  0.73725  0.90083  0.23993  1.0000
  F   F316      1.0  0.73188  0.93979  0.70734  1.0000
  F   F317      1.0  0.98530  0.40913  0.23374  1.0000
  F   F318      1.0  0.98452  0.41684  0.72132  1.0000
  F   F319      1.0  0.98201  0.91557  0.22947  1.0000
  F   F320      1.0  0.98920  0.91462  0.72093  1.0000
  F   F321      1.0  0.21015  0.46861  0.47616  1.0000
  F   F322      1.0  0.20105  0.46527  0.98078  1.0000
  F   F323      1.0  0.21410  0.95437  0.47241  1.0000
  F   F324      1.0  0.21158  0.96298  0.97388  1.0000
  F   F325      1.0  0.45303  0.47796  0.48310  1.0000
  F   F326      1.0  0.45507  0.46792  0.97906  1.0000
  F   F327      1.0  0.45667  0.96619  0.48184  1.0000
  F   F328      1.0  0.45459  0.97859  0.96968  1.0000
  F   F329      1.0  0.71523  0.47433  0.45726  1.0000
  F   F330      1.0  0.70951  0.47153  0.97378  1.0000
  F   F331      1.0  0.70498  0.97029  0.47458  1.0000
  F   F332      1.0  0.71331  0.97044  0.96364  1.0000
  F   F333      1.0  0.96364  0.47156  0.46464  1.0000
  F   F334      1.0  0.95771  0.46676  0.98030  1.0000
  F   F335      1.0  0.95459  0.97023  0.48496  1.0000
  F   F336      1.0  0.96023  0.96702  0.97935  1.0000
  F   F337      1.0  0.01534  0.08828  0.26539  1.0000
  F   F338      1.0  0.01611  0.08821  0.78300  1.0000
  F   F339      1.0  0.01468  0.58587  0.27556  1.0000
  F   F340      1.0  0.01045  0.58694  0.77387  1.0000
  F   F341      1.0  0.26352  0.09821  0.26151  1.0000
  F   F342      1.0  0.26497  0.08795  0.77803  1.0000
  F   F343      1.0  0.26580  0.58153  0.27415  1.0000
  F   F344      1.0  0.27281  0.57223  0.77244  1.0000
  F   F345      1.0  0.51554  0.07448  0.27991  1.0000
  F   F346      1.0  0.51356  0.09739  0.76876  1.0000
  F   F347      1.0  0.51570  0.59722  0.25841  1.0000
  F   F348      1.0  0.52088  0.57501  0.78887  1.0000
  F   F349      1.0  0.76663  0.09203  0.28086  1.0000
  F   F350      1.0  0.75982  0.08597  0.77509  1.0000
  F   F351      1.0  0.76461  0.59351  0.26694  1.0000
  F   F352      1.0  0.77092  0.58710  0.77294  1.0000
  F   F353      1.0  0.10207  0.38608  0.46161  1.0000
  F   F354      1.0  0.10279  0.41352  0.96419  1.0000
  F   F355      1.0  0.09703  0.91122  0.45167  1.0000
  F   F356      1.0  0.10502  0.92038  0.94600  1.0000
  F   F357      1.0  0.35145  0.41371  0.46485  1.0000
  F   F358      1.0  0.35046  0.42271  0.96342  1.0000
  F   F359      1.0  0.34548  0.89670  0.46447  1.0000
  F   F360      1.0  0.35495  0.89850  0.95400  1.0000
  F   F361      1.0  0.60177  0.41023  0.46140  1.0000
  F   F362      1.0  0.59998  0.41483  0.96060  1.0000
  F   F363      1.0  0.60585  0.92034  0.45581  1.0000
  F   F364      1.0  0.60038  0.90374  0.95191  1.0000
  F   F365      1.0  0.85484  0.40648  0.46344  1.0000
  F   F366      1.0  0.85385  0.41531  0.96061  1.0000
  F   F367      1.0  0.85174  0.89672  0.46216  1.0000
  F   F368      1.0  0.85025  0.90646  0.95918  1.0000
  F   F369      1.0  0.03772  0.28079  0.28733  1.0000
  F   F370      1.0  0.04999  0.30291  0.78134  1.0000
  F   F371      1.0  0.04462  0.79591  0.28113  1.0000
  F   F372      1.0  0.05164  0.79685  0.78146  1.0000
  F   F373      1.0  0.30012  0.30175  0.29815  1.0000
  F   F374      1.0  0.29921  0.29912  0.79407  1.0000
  F   F375      1.0  0.29769  0.79405  0.30193  1.0000
  F   F376      1.0  0.29008  0.79901  0.78541  1.0000
  F   F377      1.0  0.53885  0.29862  0.29979  1.0000
  F   F378      1.0  0.54700  0.30302  0.79042  1.0000
  F   F379      1.0  0.53794  0.80862  0.27540  1.0000
  F   F380      1.0  0.53713  0.80664  0.79499  1.0000
  F   F381      1.0  0.79056  0.30338  0.29036  1.0000
  F   F382      1.0  0.79927  0.28844  0.78491  1.0000
  F   F383      1.0  0.80308  0.79004  0.28953  1.0000
  F   F384      1.0  0.79495  0.79934  0.79588  1.0000
