data_image0
_chemical_formula_structural       Hf96F384
_chemical_formula_sum              "Hf96 F384"
_cell_length_a       31.014
_cell_length_b       15.5077
_cell_length_c       15.4998
_cell_angle_alpha    63.342
_cell_angle_beta     63.342
_cell_angle_gamma    80.1625

_space_group_name_H-M_alt    "P 1"
_space_group_IT_number       1

loop_
  _space_group_symop_operation_xyz
  'x, y, z'

loop_
  _atom_site_type_symbol
  _atom_site_label
  _atom_site_symmetry_multiplicity
  _atom_site_fract_x
  _atom_site_fract_y
  _atom_site_fract_z
  _atom_site_occupancy
  Hf  Hf1       1.0  0.19441  0.10437  0.38416  1.0000
  Hf  Hf2       1.0  0.19704  0.11089  0.87191  1.0000
  Hf  Hf3       1.0  0.19391  0.60869  0.37235  1.0000
  Hf  Hf4       1.0  0.19251  0.60607  0.88151  1.0000
  Hf  Hf5       1.0  0.44419  0.10557  0.36981  1.0000
  Hf  Hf6       1.0  0.44639  0.10596  0.87588  1.0000
  Hf  Hf7       1.0  0.44859  0.61494  0.37151  1.0000
  Hf  Hf8       1.0  0.44673  0.61433  0.87474  1.0000
  Hf  Hf9       1.0  0.69506  0.10977  0.38165  1.0000
  Hf  Hf10      1.0  0.69889  0.10359  0.87709  1.0000
  Hf  Hf11      1.0  0.69642  0.60366  0.38024  1.0000
  Hf  Hf12      1.0  0.69961  0.60522  0.86928  1.0000
  Hf  Hf13      1.0  0.94545  0.10490  0.37715  1.0000
  Hf  Hf14      1.0  0.94686  0.10557  0.87423  1.0000
  Hf  Hf15      1.0  0.94445  0.60744  0.37969  1.0000
  Hf  Hf16      1.0  0.94424  0.60415  0.87796  1.0000
  Hf  Hf17      1.0  0.05501  0.39239  0.12037  1.0000
  Hf  Hf18      1.0  0.05300  0.38985  0.63123  1.0000
  Hf  Hf19      1.0  0.05168  0.89372  0.11849  1.0000
  Hf  Hf20      1.0  0.05494  0.89967  0.61049  1.0000
  Hf  Hf21      1.0  0.30607  0.38919  0.12674  1.0000
  Hf  Hf22      1.0  0.30134  0.38751  0.63313  1.0000
  Hf  Hf23      1.0  0.30171  0.89381  0.11979  1.0000
  Hf  Hf24      1.0  0.30432  0.88605  0.62939  1.0000
  Hf  Hf25      1.0  0.55589  0.39220  0.11915  1.0000
  Hf  Hf26      1.0  0.55545  0.39437  0.61696  1.0000
  Hf  Hf27      1.0  0.55670  0.89234  0.12251  1.0000
  Hf  Hf28      1.0  0.55457  0.88700  0.62489  1.0000
  Hf  Hf29      1.0  0.80259  0.39791  0.12028  1.0000
  Hf  Hf30      1.0  0.80301  0.39573  0.62023  1.0000
  Hf  Hf31      1.0  0.80208  0.89762  0.12303  1.0000
  Hf  Hf32      1.0  0.80439  0.89364  0.62375  1.0000
  Hf  Hf33      1.0  0.05643  0.18878  0.41724  1.0000
  Hf  Hf34      1.0  0.05508  0.18208  0.91805  1.0000
  Hf  Hf35      1.0  0.05421  0.67990  0.42518  1.0000
  Hf  Hf36      1.0  0.05384  0.68119  0.91543  1.0000
  Hf  Hf37      1.0  0.30216  0.17315  0.42553  1.0000
  Hf  Hf38      1.0  0.30735  0.18977  0.91382  1.0000
  Hf  Hf39      1.0  0.30240  0.67072  0.42620  1.0000
  Hf  Hf40      1.0  0.30404  0.67706  0.92206  1.0000
  Hf  Hf41      1.0  0.55523  0.17872  0.41929  1.0000
  Hf  Hf42      1.0  0.55810  0.18123  0.91212  1.0000
  Hf  Hf43      1.0  0.55627  0.68483  0.41658  1.0000
  Hf  Hf44      1.0  0.55729  0.68647  0.91310  1.0000
  Hf  Hf45      1.0  0.80641  0.18884  0.41787  1.0000
  Hf  Hf46      1.0  0.80637  0.18444  0.91800  1.0000
  Hf  Hf47      1.0  0.80729  0.68228  0.41907  1.0000
  Hf  Hf48      1.0  0.80798  0.68003  0.91678  1.0000
  Hf  Hf49      1.0  0.15732  0.38914  0.33421  1.0000
  Hf  Hf50      1.0  0.15671  0.39906  0.83175  1.0000
  Hf  Hf51      1.0  0.16048  0.89249  0.32548  1.0000
  Hf  Hf52      1.0  0.15970  0.89368  0.82746  1.0000
  Hf  Hf53      1.0  0.40995  0.38576  0.33361  1.0000
  Hf  Hf54      1.0  0.41158  0.39135  0.83475  1.0000
  Hf  Hf55      1.0  0.41160  0.89272  0.33331  1.0000
  Hf  Hf56      1.0  0.40689  0.88888  0.83608  1.0000
  Hf  Hf57      1.0  0.65897  0.38554  0.33490  1.0000
  Hf  Hf58      1.0  0.65542  0.38954  0.83676  1.0000
  Hf  Hf59      1.0  0.66218  0.88682  0.33328  1.0000
  Hf  Hf60      1.0  0.65498  0.88651  0.84100  1.0000
  Hf  Hf61      1.0  0.90475  0.38487  0.33716  1.0000
  Hf  Hf62      1.0  0.90795  0.39487  0.82932  1.0000
  Hf  Hf63      1.0  0.90957  0.89289  0.32946  1.0000
  Hf  Hf64      1.0  0.90766  0.88809  0.83109  1.0000
  Hf  Hf65      1.0  0.19263  0.31200  0.08640  1.0000
  Hf  Hf66      1.0  0.19386  0.31722  0.58467  1.0000
  Hf  Hf67      1.0  0.19185  0.81741  0.08292  1.0000
  Hf  Hf68      1.0  0.19378  0.81771  0.58269  1.0000
  Hf  Hf69      1.0  0.44781  0.31421  0.07887  1.0000
  Hf  Hf70      1.0  0.44719  0.31942  0.57457  1.0000
  Hf  Hf71      1.0  0.44265  0.82109  0.08815  1.0000
  Hf  Hf72      1.0  0.44502  0.81583  0.58246  1.0000
  Hf  Hf73      1.0  0.69456  0.31480  0.08661  1.0000
  Hf  Hf74      1.0  0.69475  0.31427  0.58288  1.0000
  Hf  Hf75      1.0  0.69336  0.80532  0.09093  1.0000
  Hf  Hf76      1.0  0.69660  0.81767  0.58430  1.0000
  Hf  Hf77      1.0  0.94298  0.31608  0.08958  1.0000
  Hf  Hf78      1.0  0.94250  0.32243  0.58666  1.0000
  Hf  Hf79      1.0  0.94102  0.81253  0.08649  1.0000
  Hf  Hf80      1.0  0.94402  0.81760  0.58049  1.0000
  Hf  Hf81      1.0  0.08800  0.11097  0.17272  1.0000
  Hf  Hf82      1.0  0.09082  0.10807  0.66561  1.0000
  Hf  Hf83      1.0  0.08867  0.61851  0.16867  1.0000
  Hf  Hf84      1.0  0.08917  0.61735  0.66243  1.0000
  Hf  Hf85      1.0  0.34209  0.10766  0.16822  1.0000
  Hf  Hf86      1.0  0.34128  0.11944  0.65679  1.0000
  Hf  Hf87      1.0  0.34433  0.61061  0.16780  1.0000
  Hf  Hf88      1.0  0.34286  0.61259  0.66332  1.0000
  Hf  Hf89      1.0  0.59538  0.11515  0.15933  1.0000
  Hf  Hf90      1.0  0.58844  0.10497  0.67799  1.0000
  Hf  Hf91      1.0  0.59149  0.60813  0.16756  1.0000
  Hf  Hf92      1.0  0.58964  0.60600  0.67020  1.0000
  Hf  Hf93      1.0  0.84126  0.11745  0.16520  1.0000
  Hf  Hf94      1.0  0.84026  0.11208  0.66914  1.0000
  Hf  Hf95      1.0  0.83875  0.60921  0.17632  1.0000
  Hf  Hf96      1.0  0.84221  0.61136  0.66573  1.0000
  F   F1        1.0  0.07544  0.12189  0.30541  1.0000
  F   F2        1.0  0.07826  0.11720  0.80572  1.0000
  F   F3        1.0  0.07841  0.62014  0.31116  1.0000
  F   F4        1.0  0.08151  0.62596  0.79580  1.0000
  F   F5        1.0  0.32366  0.12368  0.31302  1.0000
  F   F6        1.0  0.33304  0.14697  0.79305  1.0000
  F   F7        1.0  0.32836  0.60813  0.31807  1.0000
  F   F8        1.0  0.33044  0.63313  0.80198  1.0000
  F   F9        1.0  0.58380  0.11424  0.30219  1.0000
  F   F10       1.0  0.57928  0.10766  0.81480  1.0000
  F   F11       1.0  0.58297  0.62532  0.30221  1.0000
  F   F12       1.0  0.57901  0.63037  0.79711  1.0000
  F   F13       1.0  0.82854  0.13305  0.30126  1.0000
  F   F14       1.0  0.83046  0.12900  0.80535  1.0000
  F   F15       1.0  0.82819  0.62329  0.31131  1.0000
  F   F16       1.0  0.83162  0.62536  0.80084  1.0000
  F   F17       1.0  0.18893  0.34763  0.45054  1.0000
  F   F18       1.0  0.18174  0.33305  0.95022  1.0000
  F   F19       1.0  0.18487  0.84636  0.44330  1.0000
  F   F20       1.0  0.17805  0.83427  0.94964  1.0000
  F   F21       1.0  0.43499  0.35047  0.44088  1.0000
  F   F22       1.0  0.43959  0.34840  0.94103  1.0000
  F   F23       1.0  0.43304  0.82930  0.45551  1.0000
  F   F24       1.0  0.43501  0.83425  0.95576  1.0000
  F   F25       1.0  0.69137  0.33610  0.44600  1.0000
  F   F26       1.0  0.68113  0.33264  0.95383  1.0000
  F   F27       1.0  0.69605  0.85080  0.43654  1.0000
  F   F28       1.0  0.68551  0.83080  0.95710  1.0000
  F   F29       1.0  0.92648  0.35360  0.44937  1.0000
  F   F30       1.0  0.93075  0.35199  0.94250  1.0000
  F   F31       1.0  0.93921  0.84922  0.43594  1.0000
  F   F32       1.0  0.93731  0.85694  0.93585  1.0000
  F   F33       1.0  0.16583  0.37547  0.20258  1.0000
  F   F34       1.0  0.16227  0.35109  0.71466  1.0000
  F   F35       1.0  0.17406  0.88200  0.18328  1.0000
  F   F36       1.0  0.17224  0.87887  0.68580  1.0000
  F   F37       1.0  0.42069  0.36194  0.19429  1.0000
  F   F38       1.0  0.42826  0.37551  0.68964  1.0000
  F   F39       1.0  0.41886  0.87410  0.19806  1.0000
  F   F40       1.0  0.42745  0.87933  0.68595  1.0000
  F   F41       1.0  0.66426  0.37125  0.20347  1.0000
  F   F42       1.0  0.65986  0.36088  0.71114  1.0000
  F   F43       1.0  0.67169  0.86881  0.19097  1.0000
  F   F44       1.0  0.67352  0.86282  0.70000  1.0000
  F   F45       1.0  0.92624  0.37692  0.19802  1.0000
  F   F46       1.0  0.92401  0.39884  0.68141  1.0000
  F   F47       1.0  0.91947  0.87456  0.19123  1.0000
  F   F48       1.0  0.92067  0.86927  0.69673  1.0000
  F   F49       1.0  0.05970  0.16417  0.05332  1.0000
  F   F50       1.0  0.06550  0.16809  0.54971  1.0000
  F   F51       1.0  0.06331  0.67300  0.04529  1.0000
  F   F52       1.0  0.05984  0.66154  0.55800  1.0000
  F   F53       1.0  0.30680  0.15340  0.07087  1.0000
  F   F54       1.0  0.31335  0.15252  0.55039  1.0000
  F   F55       1.0  0.31328  0.66465  0.05354  1.0000
  F   F56       1.0  0.31284  0.66246  0.55038  1.0000
  F   F57       1.0  0.56294  0.17370  0.04639  1.0000
  F   F58       1.0  0.55926  0.14781  0.56210  1.0000
  F   F59       1.0  0.56363  0.66734  0.05516  1.0000
  F   F60       1.0  0.56251  0.65210  0.55987  1.0000
  F   F61       1.0  0.80881  0.15130  0.06139  1.0000
  F   F62       1.0  0.82284  0.16319  0.54386  1.0000
  F   F63       1.0  0.81172  0.65361  0.06095  1.0000
  F   F64       1.0  0.81467  0.65898  0.55288  1.0000
  F   F65       1.0  0.20030  0.20670  0.21697  1.0000
  F   F66       1.0  0.20631  0.19189  0.70707  1.0000
  F   F67       1.0  0.19188  0.69844  0.22504  1.0000
  F   F68       1.0  0.19938  0.69412  0.70559  1.0000
  F   F69       1.0  0.45669  0.19391  0.20782  1.0000
  F   F70       1.0  0.44618  0.20143  0.70619  1.0000
  F   F71       1.0  0.45634  0.70761  0.21237  1.0000
  F   F72       1.0  0.44442  0.69962  0.71833  1.0000
  F   F73       1.0  0.70581  0.20271  0.20592  1.0000
  F   F74       1.0  0.70261  0.19592  0.71388  1.0000
  F   F75       1.0  0.70451  0.69962  0.20904  1.0000
  F   F76       1.0  0.71288  0.69395  0.71440  1.0000
  F   F77       1.0  0.95855  0.21323  0.21156  1.0000
  F   F78       1.0  0.95285  0.20715  0.70964  1.0000
  F   F79       1.0  0.95012  0.70039  0.20402  1.0000
  F   F80       1.0  0.94430  0.70569  0.71815  1.0000
  F   F81       1.0  0.14481  0.09412  0.04137  1.0000
  F   F82       1.0  0.14352  0.07696  0.54103  1.0000
  F   F83       1.0  0.14508  0.59638  0.03607  1.0000
  F   F84       1.0  0.14431  0.59698  0.53671  1.0000
  F   F85       1.0  0.40243  0.09171  0.04499  1.0000
  F   F86       1.0  0.40132  0.08649  0.53014  1.0000
  F   F87       1.0  0.40104  0.60030  0.03795  1.0000
  F   F88       1.0  0.39769  0.58189  0.52718  1.0000
  F   F89       1.0  0.64989  0.09134  0.03945  1.0000
  F   F90       1.0  0.64654  0.09407  0.53732  1.0000
  F   F91       1.0  0.64737  0.58501  0.03739  1.0000
  F   F92       1.0  0.64787  0.59867  0.54908  1.0000
  F   F93       1.0  0.90338  0.11135  0.02767  1.0000
  F   F94       1.0  0.90216  0.08040  0.53901  1.0000
  F   F95       1.0  0.90135  0.57787  0.04125  1.0000
  F   F96       1.0  0.89494  0.59193  0.53270  1.0000
  F   F97       1.0  0.15107  0.19497  0.13877  1.0000
  F   F98       1.0  0.15340  0.19487  0.60897  1.0000
  F   F99       1.0  0.14829  0.69183  0.12916  1.0000
  F   F100      1.0  0.14768  0.70190  0.61752  1.0000
  F   F101      1.0  0.40385  0.20413  0.12324  1.0000
  F   F102      1.0  0.39770  0.19930  0.61134  1.0000
  F   F103      1.0  0.39765  0.69539  0.13136  1.0000
  F   F104      1.0  0.40832  0.68548  0.61724  1.0000
  F   F105      1.0  0.65616  0.19838  0.12177  1.0000
  F   F106      1.0  0.65531  0.19935  0.62155  1.0000
  F   F107      1.0  0.64964  0.69128  0.11755  1.0000
  F   F108      1.0  0.66036  0.69734  0.62677  1.0000
  F   F109      1.0  0.90151  0.19624  0.12937  1.0000
  F   F110      1.0  0.89970  0.18751  0.62949  1.0000
  F   F111      1.0  0.90294  0.69620  0.11120  1.0000
  F   F112      1.0  0.90214  0.70808  0.61283  1.0000
  F   F113      1.0  0.09397  0.30884  0.37593  1.0000
  F   F114      1.0  0.10087  0.30856  0.88784  1.0000
  F   F115      1.0  0.10616  0.80206  0.36482  1.0000
  F   F116      1.0  0.10336  0.80518  0.87661  1.0000
  F   F117      1.0  0.35632  0.30240  0.36524  1.0000
  F   F118      1.0  0.35332  0.30185  0.87496  1.0000
  F   F119      1.0  0.35097  0.82201  0.38443  1.0000
  F   F120      1.0  0.35363  0.80198  0.85628  1.0000
  F   F121      1.0  0.59622  0.30096  0.38665  1.0000
  F   F122      1.0  0.59028  0.31144  0.87397  1.0000
  F   F123      1.0  0.60903  0.78679  0.38451  1.0000
  F   F124      1.0  0.59534  0.80575  0.86857  1.0000
  F   F125      1.0  0.84232  0.31440  0.36275  1.0000
  F   F126      1.0  0.85155  0.30617  0.86510  1.0000
  F   F127      1.0  0.85161  0.79983  0.37836  1.0000
  F   F128      1.0  0.84687  0.80490  0.87305  1.0000
  F   F129      1.0  0.07320  0.25477  0.12565  1.0000
  F   F130      1.0  0.06443  0.25769  0.64047  1.0000
  F   F131      1.0  0.06508  0.75092  0.14582  1.0000
  F   F132      1.0  0.06588  0.75427  0.62543  1.0000
  F   F133      1.0  0.32216  0.25749  0.12499  1.0000
  F   F134      1.0  0.31231  0.24950  0.63847  1.0000
  F   F135      1.0  0.31194  0.75216  0.15840  1.0000
  F   F136      1.0  0.32315  0.75169  0.62684  1.0000
  F   F137      1.0  0.56836  0.25390  0.13441  1.0000
  F   F138      1.0  0.57376  0.24933  0.62874  1.0000
  F   F139      1.0  0.55613  0.75191  0.16087  1.0000
  F   F140      1.0  0.56779  0.75258  0.63975  1.0000
  F   F141      1.0  0.82322  0.25972  0.11923  1.0000
  F   F142      1.0  0.80983  0.24262  0.65409  1.0000
  F   F143      1.0  0.80973  0.74664  0.14873  1.0000
  F   F144      1.0  0.82122  0.75319  0.62135  1.0000
  F   F145      1.0  0.12657  0.36751  0.10842  1.0000
  F   F146      1.0  0.12378  0.37069  0.60358  1.0000
  F   F147      1.0  0.12772  0.87279  0.09971  1.0000
  F   F148      1.0  0.12375  0.87766  0.58984  1.0000
  F   F149      1.0  0.38024  0.39295  0.08277  1.0000
  F   F150      1.0  0.37479  0.36523  0.61648  1.0000
  F   F151      1.0  0.37287  0.87205  0.10713  1.0000
  F   F152      1.0  0.37283  0.85694  0.63206  1.0000
  F   F153      1.0  0.62622  0.38678  0.09492  1.0000
  F   F154      1.0  0.62569  0.39813  0.59208  1.0000
  F   F155      1.0  0.62346  0.85961  0.10759  1.0000
  F   F156      1.0  0.62282  0.86573  0.61875  1.0000
  F   F157      1.0  0.87686  0.37700  0.10847  1.0000
  F   F158      1.0  0.87068  0.36850  0.60646  1.0000
  F   F159      1.0  0.87398  0.87311  0.10350  1.0000
  F   F160      1.0  0.87720  0.86887  0.61175  1.0000
  F   F161      1.0  0.17514  0.24379  0.38353  1.0000
  F   F162      1.0  0.19344  0.24768  0.85347  1.0000
  F   F163      1.0  0.18830  0.75156  0.35364  1.0000
  F   F164      1.0  0.19441  0.74847  0.83380  1.0000
  F   F165      1.0  0.44154  0.24616  0.35132  1.0000
  F   F166      1.0  0.44026  0.24263  0.85788  1.0000
  F   F167      1.0  0.43283  0.75154  0.36652  1.0000
  F   F168      1.0  0.43566  0.75609  0.85457  1.0000
  F   F169      1.0  0.68960  0.25364  0.34948  1.0000
  F   F170      1.0  0.68760  0.25060  0.85435  1.0000
  F   F171      1.0  0.69495  0.75386  0.34386  1.0000
  F   F172      1.0  0.67733  0.74406  0.86918  1.0000
  F   F173      1.0  0.93097  0.25427  0.37174  1.0000
  F   F174      1.0  0.94034  0.25144  0.85854  1.0000
  F   F175      1.0  0.94224  0.75320  0.34278  1.0000
  F   F176      1.0  0.92981  0.75222  0.86450  1.0000
  F   F177      1.0  0.12172  0.12526  0.39340  1.0000
  F   F178      1.0  0.12799  0.14379  0.87941  1.0000
  F   F179      1.0  0.12213  0.62317  0.40216  1.0000
  F   F180      1.0  0.12468  0.63584  0.89235  1.0000
  F   F181      1.0  0.37251  0.12193  0.39676  1.0000
  F   F182      1.0  0.37370  0.13948  0.89999  1.0000
  F   F183      1.0  0.37601  0.65549  0.37572  1.0000
  F   F184      1.0  0.37680  0.62853  0.90466  1.0000
  F   F185      1.0  0.62737  0.14843  0.38506  1.0000
  F   F186      1.0  0.62765  0.12436  0.89428  1.0000
  F   F187      1.0  0.62630  0.62303  0.39885  1.0000
  F   F188      1.0  0.62726  0.62298  0.87935  1.0000
  F   F189      1.0  0.88014  0.13668  0.37535  1.0000
  F   F190      1.0  0.87245  0.13066  0.89974  1.0000
  F   F191      1.0  0.87624  0.62388  0.39028  1.0000
  F   F192      1.0  0.87066  0.61266  0.91082  1.0000
  F   F193      1.0  0.00876  0.36586  0.06939  1.0000
  F   F194      1.0  0.00568  0.35887  0.57732  1.0000
  F   F195      1.0  0.00630  0.85119  0.07731  1.0000
  F   F196      1.0  0.00705  0.86683  0.57129  1.0000
  F   F197      1.0  0.25533  0.35704  0.08039  1.0000
  F   F198      1.0  0.25217  0.36660  0.59030  1.0000
  F   F199      1.0  0.25546  0.85624  0.07976  1.0000
  F   F200      1.0  0.25633  0.84425  0.59967  1.0000
  F   F201      1.0  0.51192  0.35217  0.07448  1.0000
  F   F202      1.0  0.50796  0.33968  0.59147  1.0000
  F   F203      1.0  0.50789  0.86619  0.06791  1.0000
  F   F204      1.0  0.51089  0.85268  0.58286  1.0000
  F   F205      1.0  0.75346  0.34829  0.09159  1.0000
  F   F206      1.0  0.76060  0.35517  0.56607  1.0000
  F   F207      1.0  0.75890  0.86857  0.06905  1.0000
  F   F208      1.0  0.76070  0.86028  0.57650  1.0000
  F   F209      1.0  0.07275  0.49232  0.16299  1.0000
  F   F210      1.0  0.06890  0.48400  0.67679  1.0000
  F   F211      1.0  0.06483  0.97549  0.18093  1.0000
  F   F212      1.0  0.06809  0.98028  0.68850  1.0000
  F   F213      1.0  0.32287  0.48656  0.17442  1.0000
  F   F214      1.0  0.31615  0.48862  0.67008  1.0000
  F   F215      1.0  0.32215  0.98675  0.16203  1.0000
  F   F216      1.0  0.31721  0.98047  0.67893  1.0000
  F   F217      1.0  0.57281  0.47563  0.18213  1.0000
  F   F218      1.0  0.56576  0.47919  0.68980  1.0000
  F   F219      1.0  0.57054  0.98662  0.17087  1.0000
  F   F220      1.0  0.56947  0.98115  0.67833  1.0000
  F   F221      1.0  0.81686  0.47647  0.18670  1.0000
  F   F222      1.0  0.81978  0.48248  0.66233  1.0000
  F   F223      1.0  0.81836  0.98079  0.18590  1.0000
  F   F224      1.0  0.81733  0.98262  0.67220  1.0000
  F   F225      1.0  0.23718  0.13159  0.44624  1.0000
  F   F226      1.0  0.24395  0.13605  0.92772  1.0000
  F   F227      1.0  0.24033  0.63687  0.42815  1.0000
  F   F228      1.0  0.24229  0.63917  0.93050  1.0000
  F   F229      1.0  0.49258  0.13282  0.42649  1.0000
  F   F230      1.0  0.49727  0.12931  0.91894  1.0000
  F   F231      1.0  0.49404  0.63945  0.42051  1.0000
  F   F232      1.0  0.49259  0.64196  0.92327  1.0000
  F   F233      1.0  0.74532  0.13777  0.42828  1.0000
  F   F234      1.0  0.74027  0.13667  0.93874  1.0000
  F   F235      1.0  0.74065  0.64446  0.43790  1.0000
  F   F236      1.0  0.74370  0.63734  0.91790  1.0000
  F   F237      1.0  0.99165  0.14432  0.41482  1.0000
  F   F238      1.0  0.99668  0.13220  0.92500  1.0000
  F   F239      1.0  0.98836  0.64081  0.43588  1.0000
  F   F240      1.0  0.99284  0.63504  0.92120  1.0000
  F   F241      1.0  0.17838  0.01053  0.33485  1.0000
  F   F242      1.0  0.18192  0.01859  0.82705  1.0000
  F   F243      1.0  0.18266  0.51320  0.31748  1.0000
  F   F244      1.0  0.18271  0.52389  0.81260  1.0000
  F   F245      1.0  0.42639  0.02204  0.32248  1.0000
  F   F246      1.0  0.42671  0.01967  0.82633  1.0000
  F   F247      1.0  0.42782  0.52639  0.33086  1.0000
  F   F248      1.0  0.43412  0.50901  0.82133  1.0000
  F   F249      1.0  0.68768  0.02462  0.32213  1.0000
  F   F250      1.0  0.68071  0.00853  0.82037  1.0000
  F   F251      1.0  0.68090  0.51140  0.33662  1.0000
  F   F252      1.0  0.68210  0.51089  0.82479  1.0000
  F   F253      1.0  0.93990  0.01490  0.30767  1.0000
  F   F254      1.0  0.92594  0.01720  0.82339  1.0000
  F   F255      1.0  0.92686  0.53045  0.32190  1.0000
  F   F256      1.0  0.92914  0.52305  0.81261  1.0000
  F   F257      1.0  0.99727  0.26002  0.99162  1.0000
  F   F258      1.0  0.99519  0.25742  0.50112  1.0000
  F   F259      1.0  0.99230  0.72848  0.00656  1.0000
  F   F260      1.0  0.00396  0.76808  0.48814  1.0000
  F   F261      1.0  0.25359  0.26855  0.98710  1.0000
  F   F262      1.0  0.25525  0.26189  0.49794  1.0000
  F   F263      1.0  0.25031  0.76126  0.99858  1.0000
  F   F264      1.0  0.25177  0.75665  0.50170  1.0000
  F   F265      1.0  0.49729  0.23799  0.99471  1.0000
  F   F266      1.0  0.49691  0.24349  0.49852  1.0000
  F   F267      1.0  0.50107  0.73753  0.00978  1.0000
  F   F268      1.0  0.50659  0.75921  0.48920  1.0000
  F   F269      1.0  0.75343  0.26979  0.98975  1.0000
  F   F270      1.0  0.74940  0.22382  0.52721  1.0000
  F   F271      1.0  0.75502  0.74895  0.99410  1.0000
  F   F272      1.0  0.75557  0.75260  0.50122  1.0000
  F   F273      1.0  0.12996  0.01512  0.24216  1.0000
  F   F274      1.0  0.13013  0.00711  0.73716  1.0000
  F   F275      1.0  0.12021  0.50178  0.25463  1.0000
  F   F276      1.0  0.12824  0.50173  0.73525  1.0000
  F   F277      1.0  0.37718  0.00005  0.24594  1.0000
  F   F278      1.0  0.37656  0.99689  0.74444  1.0000
  F   F279      1.0  0.37532  0.49012  0.25323  1.0000
  F   F280      1.0  0.37673  0.50109  0.75207  1.0000
  F   F281      1.0  0.63143  0.99685  0.25222  1.0000
  F   F282      1.0  0.62936  0.99250  0.73609  1.0000
  F   F283      1.0  0.63513  0.50376  0.24257  1.0000
  F   F284      1.0  0.62888  0.50615  0.74726  1.0000
  F   F285      1.0  0.87650  0.00666  0.24936  1.0000
  F   F286      1.0  0.87377  0.99659  0.74615  1.0000
  F   F287      1.0  0.87807  0.50317  0.23115  1.0000
  F   F288      1.0  0.86411  0.48977  0.75469  1.0000
  F   F289      1.0  0.04315  0.02649  0.02635  1.0000
  F   F290      1.0  0.03848  0.03774  0.53435  1.0000
  F   F291      1.0  0.04324  0.53391  0.01468  1.0000
  F   F292      1.0  0.04726  0.52468  0.52866  1.0000
  F   F293      1.0  0.29529  0.03577  0.01365  1.0000
  F   F294      1.0  0.28936  0.02719  0.52676  1.0000
  F   F295      1.0  0.29847  0.52269  0.02362  1.0000
  F   F296      1.0  0.29289  0.52660  0.53291  1.0000
  F   F297      1.0  0.54078  0.03592  0.02805  1.0000
  F   F298      1.0  0.55052  0.02926  0.50970  1.0000
  F   F299      1.0  0.54473  0.53278  0.03515  1.0000
  F   F300      1.0  0.54568  0.53282  0.50567  1.0000
  F   F301      1.0  0.79378  0.02607  0.01920  1.0000
  F   F302      1.0  0.78798  0.03620  0.53816  1.0000
  F   F303      1.0  0.78942  0.52868  0.01734  1.0000
  F   F304      1.0  0.79725  0.53121  0.51089  1.0000
  F   F305      1.0  0.23519  0.38995  0.25071  1.0000
  F   F306      1.0  0.22772  0.42153  0.73768  1.0000
  F   F307      1.0  0.23489  0.91473  0.22555  1.0000
  F   F308      1.0  0.23157  0.92505  0.72429  1.0000
  F   F309      1.0  0.48548  0.41032  0.22854  1.0000
  F   F310      1.0  0.48857  0.41925  0.72114  1.0000
  F   F311      1.0  0.48631  0.91748  0.23192  1.0000
  F   F312      1.0  0.48582  0.91711  0.72506  1.0000
  F   F313      1.0  0.73394  0.43397  0.21741  1.0000
  F   F314      1.0  0.73394  0.40909  0.71855  1.0000
  F   F315      1.0  0.73455  0.91553  0.23102  1.0000
  F   F316      1.0  0.73654  0.89273  0.73484  1.0000
  F   F317      1.0  0.98903  0.41027  0.23530  1.0000
  F   F318      1.0  0.98963  0.40826  0.73590  1.0000
  F   F319      1.0  0.98825  0.92617  0.20816  1.0000
  F   F320      1.0  0.98624  0.91614  0.72805  1.0000
  F   F321      1.0  0.20545  0.47141  0.48161  1.0000
  F   F322      1.0  0.20592  0.47464  0.97054  1.0000
  F   F323      1.0  0.21276  0.97317  0.47796  1.0000
  F   F324      1.0  0.20728  0.96624  0.97492  1.0000
  F   F325      1.0  0.46902  0.46190  0.47724  1.0000
  F   F326      1.0  0.46367  0.47110  0.96790  1.0000
  F   F327      1.0  0.46309  0.95645  0.46582  1.0000
  F   F328      1.0  0.45429  0.97025  0.97914  1.0000
  F   F329      1.0  0.71097  0.47480  0.48022  1.0000
  F   F330      1.0  0.71033  0.46938  0.96559  1.0000
  F   F331      1.0  0.70447  0.97212  0.48492  1.0000
  F   F332      1.0  0.69946  0.96773  0.97966  1.0000
  F   F333      1.0  0.96216  0.46956  0.46905  1.0000
  F   F334      1.0  0.96097  0.46083  0.97776  1.0000
  F   F335      1.0  0.96388  0.97545  0.46157  1.0000
  F   F336      1.0  0.96422  0.97296  0.96797  1.0000
  F   F337      1.0  0.01218  0.09089  0.27065  1.0000
  F   F338      1.0  0.01198  0.08540  0.77271  1.0000
  F   F339      1.0  0.01432  0.58708  0.27482  1.0000
  F   F340      1.0  0.00859  0.58785  0.78349  1.0000
  F   F341      1.0  0.26643  0.08753  0.27440  1.0000
  F   F342      1.0  0.26765  0.09581  0.77517  1.0000
  F   F343      1.0  0.26067  0.60784  0.26558  1.0000
  F   F344      1.0  0.26630  0.59205  0.77054  1.0000
  F   F345      1.0  0.52055  0.08511  0.27278  1.0000
  F   F346      1.0  0.51483  0.07844  0.77629  1.0000
  F   F347      1.0  0.51917  0.58703  0.26427  1.0000
  F   F348      1.0  0.50954  0.59011  0.76086  1.0000
  F   F349      1.0  0.76464  0.09259  0.27023  1.0000
  F   F350      1.0  0.76724  0.07254  0.77992  1.0000
  F   F351      1.0  0.76499  0.58350  0.27661  1.0000
  F   F352      1.0  0.77083  0.58263  0.76856  1.0000
  F   F353      1.0  0.10189  0.40659  0.45907  1.0000
  F   F354      1.0  0.10248  0.42805  0.95536  1.0000
  F   F355      1.0  0.09873  0.91165  0.44852  1.0000
  F   F356      1.0  0.09915  0.91590  0.95951  1.0000
  F   F357      1.0  0.35039  0.39969  0.46048  1.0000
  F   F358      1.0  0.35293  0.41471  0.95536  1.0000
  F   F359      1.0  0.35193  0.91805  0.46904  1.0000
  F   F360      1.0  0.34556  0.89819  0.95890  1.0000
  F   F361      1.0  0.60425  0.40553  0.46409  1.0000
  F   F362      1.0  0.60259  0.40817  0.96373  1.0000
  F   F363      1.0  0.60202  0.89820  0.46714  1.0000
  F   F364      1.0  0.59681  0.90112  0.96974  1.0000
  F   F365      1.0  0.84574  0.39692  0.46070  1.0000
  F   F366      1.0  0.84952  0.41653  0.96015  1.0000
  F   F367      1.0  0.85652  0.92515  0.45674  1.0000
  F   F368      1.0  0.84886  0.90451  0.95929  1.0000
  F   F369      1.0  0.04796  0.29231  0.28088  1.0000
  F   F370      1.0  0.05444  0.29552  0.78246  1.0000
  F   F371      1.0  0.04424  0.78957  0.30075  1.0000
  F   F372      1.0  0.04418  0.79106  0.77649  1.0000
  F   F373      1.0  0.30444  0.28892  0.27868  1.0000
  F   F374      1.0  0.29555  0.30902  0.78426  1.0000
  F   F375      1.0  0.30317  0.78878  0.29723  1.0000
  F   F376      1.0  0.28976  0.79064  0.79344  1.0000
  F   F377      1.0  0.55217  0.29296  0.28441  1.0000
  F   F378      1.0  0.55047  0.29425  0.78173  1.0000
  F   F379      1.0  0.55448  0.80443  0.29448  1.0000
  F   F380      1.0  0.54203  0.79685  0.79326  1.0000
  F   F381      1.0  0.79109  0.29459  0.28893  1.0000
  F   F382      1.0  0.79332  0.29613  0.78613  1.0000
  F   F383      1.0  0.80081  0.79755  0.28319  1.0000
  F   F384      1.0  0.79858  0.78825  0.77971  1.0000
