data_image0
_chemical_formula_structural       Hf96F384
_chemical_formula_sum              "Hf96 F384"
_cell_length_a       31.0314
_cell_length_b       15.5143
_cell_length_c       15.5091
_cell_angle_alpha    63.342
_cell_angle_beta     63.342
_cell_angle_gamma    80.1625

_space_group_name_H-M_alt    "P 1"
_space_group_IT_number       1

loop_
  _space_group_symop_operation_xyz
  'x, y, z'

loop_
  _atom_site_type_symbol
  _atom_site_label
  _atom_site_symmetry_multiplicity
  _atom_site_fract_x
  _atom_site_fract_y
  _atom_site_fract_z
  _atom_site_occupancy
  Hf  Hf1       1.0  0.19620  0.10317  0.36764  1.0000
  Hf  Hf2       1.0  0.19394  0.10830  0.87112  1.0000
  Hf  Hf3       1.0  0.19286  0.60653  0.37236  1.0000
  Hf  Hf4       1.0  0.19589  0.60702  0.87116  1.0000
  Hf  Hf5       1.0  0.44562  0.10441  0.38059  1.0000
  Hf  Hf6       1.0  0.44610  0.11369  0.86859  1.0000
  Hf  Hf7       1.0  0.44362  0.60468  0.37740  1.0000
  Hf  Hf8       1.0  0.44593  0.60163  0.88705  1.0000
  Hf  Hf9       1.0  0.69939  0.10510  0.37401  1.0000
  Hf  Hf10      1.0  0.69807  0.10273  0.87683  1.0000
  Hf  Hf11      1.0  0.69889  0.61075  0.37271  1.0000
  Hf  Hf12      1.0  0.69519  0.60491  0.88411  1.0000
  Hf  Hf13      1.0  0.94468  0.10894  0.37466  1.0000
  Hf  Hf14      1.0  0.94663  0.10773  0.86827  1.0000
  Hf  Hf15      1.0  0.94744  0.61583  0.37121  1.0000
  Hf  Hf16      1.0  0.94486  0.60568  0.88228  1.0000
  Hf  Hf17      1.0  0.05379  0.39875  0.12257  1.0000
  Hf  Hf18      1.0  0.05397  0.40372  0.61974  1.0000
  Hf  Hf19      1.0  0.05624  0.90282  0.11242  1.0000
  Hf  Hf20      1.0  0.05600  0.88982  0.63031  1.0000
  Hf  Hf21      1.0  0.30531  0.39783  0.10720  1.0000
  Hf  Hf22      1.0  0.30135  0.39184  0.63451  1.0000
  Hf  Hf23      1.0  0.30699  0.89043  0.12012  1.0000
  Hf  Hf24      1.0  0.30517  0.90268  0.60928  1.0000
  Hf  Hf25      1.0  0.55435  0.38405  0.13661  1.0000
  Hf  Hf26      1.0  0.55000  0.38399  0.63316  1.0000
  Hf  Hf27      1.0  0.55546  0.88183  0.13415  1.0000
  Hf  Hf28      1.0  0.55019  0.88558  0.63264  1.0000
  Hf  Hf29      1.0  0.80264  0.39406  0.12831  1.0000
  Hf  Hf30      1.0  0.80137  0.39303  0.62593  1.0000
  Hf  Hf31      1.0  0.80021  0.89734  0.12693  1.0000
  Hf  Hf32      1.0  0.80425  0.88819  0.62506  1.0000
  Hf  Hf33      1.0  0.05368  0.18229  0.41572  1.0000
  Hf  Hf34      1.0  0.05757  0.19016  0.90536  1.0000
  Hf  Hf35      1.0  0.05574  0.69083  0.41582  1.0000
  Hf  Hf36      1.0  0.05434  0.68361  0.91923  1.0000
  Hf  Hf37      1.0  0.30682  0.18551  0.41276  1.0000
  Hf  Hf38      1.0  0.30345  0.17676  0.91992  1.0000
  Hf  Hf39      1.0  0.30940  0.68941  0.40265  1.0000
  Hf  Hf40      1.0  0.30805  0.68906  0.90889  1.0000
  Hf  Hf41      1.0  0.55617  0.17227  0.43113  1.0000
  Hf  Hf42      1.0  0.55496  0.17542  0.92669  1.0000
  Hf  Hf43      1.0  0.55841  0.67523  0.42001  1.0000
  Hf  Hf44      1.0  0.55162  0.67761  0.93530  1.0000
  Hf  Hf45      1.0  0.80539  0.17980  0.42382  1.0000
  Hf  Hf46      1.0  0.80438  0.18649  0.91699  1.0000
  Hf  Hf47      1.0  0.80829  0.69485  0.41055  1.0000
  Hf  Hf48      1.0  0.80709  0.67983  0.91822  1.0000
  Hf  Hf49      1.0  0.15705  0.38924  0.32533  1.0000
  Hf  Hf50      1.0  0.15746  0.39063  0.83183  1.0000
  Hf  Hf51      1.0  0.15646  0.88674  0.32806  1.0000
  Hf  Hf52      1.0  0.16072  0.88933  0.81812  1.0000
  Hf  Hf53      1.0  0.41099  0.38648  0.33106  1.0000
  Hf  Hf54      1.0  0.40684  0.38526  0.83223  1.0000
  Hf  Hf55      1.0  0.40901  0.89122  0.32694  1.0000
  Hf  Hf56      1.0  0.40793  0.88488  0.83000  1.0000
  Hf  Hf57      1.0  0.66246  0.37810  0.34480  1.0000
  Hf  Hf58      1.0  0.65814  0.38174  0.83777  1.0000
  Hf  Hf59      1.0  0.65625  0.88211  0.34551  1.0000
  Hf  Hf60      1.0  0.65452  0.88664  0.84676  1.0000
  Hf  Hf61      1.0  0.90646  0.39067  0.33707  1.0000
  Hf  Hf62      1.0  0.90904  0.38901  0.83174  1.0000
  Hf  Hf63      1.0  0.91233  0.89924  0.32835  1.0000
  Hf  Hf64      1.0  0.90981  0.88981  0.83242  1.0000
  Hf  Hf65      1.0  0.19406  0.31159  0.07911  1.0000
  Hf  Hf66      1.0  0.19539  0.32598  0.57674  1.0000
  Hf  Hf67      1.0  0.19810  0.82723  0.06397  1.0000
  Hf  Hf68      1.0  0.19654  0.82099  0.57261  1.0000
  Hf  Hf69      1.0  0.44312  0.31278  0.08663  1.0000
  Hf  Hf70      1.0  0.44423  0.31700  0.58433  1.0000
  Hf  Hf71      1.0  0.44574  0.81739  0.07733  1.0000
  Hf  Hf72      1.0  0.44196  0.81613  0.57893  1.0000
  Hf  Hf73      1.0  0.69561  0.31168  0.08587  1.0000
  Hf  Hf74      1.0  0.69165  0.30602  0.59757  1.0000
  Hf  Hf75      1.0  0.69319  0.81912  0.09219  1.0000
  Hf  Hf76      1.0  0.69248  0.81003  0.59302  1.0000
  Hf  Hf77      1.0  0.94472  0.32286  0.07558  1.0000
  Hf  Hf78      1.0  0.94215  0.32661  0.58122  1.0000
  Hf  Hf79      1.0  0.94525  0.82366  0.08375  1.0000
  Hf  Hf80      1.0  0.94406  0.81828  0.58281  1.0000
  Hf  Hf81      1.0  0.09501  0.11775  0.16071  1.0000
  Hf  Hf82      1.0  0.09116  0.11640  0.66227  1.0000
  Hf  Hf83      1.0  0.09395  0.62334  0.15439  1.0000
  Hf  Hf84      1.0  0.08833  0.61281  0.67225  1.0000
  Hf  Hf85      1.0  0.34235  0.11625  0.16525  1.0000
  Hf  Hf86      1.0  0.34264  0.10705  0.66650  1.0000
  Hf  Hf87      1.0  0.33132  0.60155  0.17110  1.0000
  Hf  Hf88      1.0  0.34212  0.61889  0.65854  1.0000
  Hf  Hf89      1.0  0.59141  0.10677  0.17569  1.0000
  Hf  Hf90      1.0  0.58843  0.10122  0.67703  1.0000
  Hf  Hf91      1.0  0.59266  0.60232  0.17481  1.0000
  Hf  Hf92      1.0  0.59189  0.61551  0.67051  1.0000
  Hf  Hf93      1.0  0.84277  0.10846  0.16619  1.0000
  Hf  Hf94      1.0  0.84139  0.11119  0.66634  1.0000
  Hf  Hf95      1.0  0.83955  0.61567  0.16993  1.0000
  Hf  Hf96      1.0  0.84333  0.60775  0.66023  1.0000
  F   F1        1.0  0.07888  0.13716  0.29447  1.0000
  F   F2        1.0  0.07746  0.12614  0.80246  1.0000
  F   F3        1.0  0.08207  0.63770  0.29198  1.0000
  F   F4        1.0  0.07357  0.61119  0.82198  1.0000
  F   F5        1.0  0.32471  0.13546  0.30462  1.0000
  F   F6        1.0  0.33192  0.12030  0.81270  1.0000
  F   F7        1.0  0.32979  0.63699  0.28647  1.0000
  F   F8        1.0  0.33621  0.63937  0.78620  1.0000
  F   F9        1.0  0.57828  0.10699  0.31698  1.0000
  F   F10       1.0  0.57644  0.13271  0.80327  1.0000
  F   F11       1.0  0.57629  0.59044  0.32977  1.0000
  F   F12       1.0  0.57578  0.61458  0.81705  1.0000
  F   F13       1.0  0.82901  0.12176  0.31042  1.0000
  F   F14       1.0  0.83268  0.14452  0.79122  1.0000
  F   F15       1.0  0.82861  0.63980  0.29697  1.0000
  F   F16       1.0  0.83471  0.62761  0.80432  1.0000
  F   F17       1.0  0.17700  0.32755  0.45369  1.0000
  F   F18       1.0  0.18247  0.34971  0.94041  1.0000
  F   F19       1.0  0.19070  0.84641  0.43472  1.0000
  F   F20       1.0  0.18467  0.83764  0.93992  1.0000
  F   F21       1.0  0.43168  0.32689  0.45420  1.0000
  F   F22       1.0  0.42563  0.33702  0.95726  1.0000
  F   F23       1.0  0.43785  0.83327  0.43168  1.0000
  F   F24       1.0  0.43330  0.82912  0.94391  1.0000
  F   F25       1.0  0.68568  0.32091  0.45800  1.0000
  F   F26       1.0  0.67507  0.32090  0.96476  1.0000
  F   F27       1.0  0.69452  0.85481  0.44181  1.0000
  F   F28       1.0  0.68640  0.85027  0.95394  1.0000
  F   F29       1.0  0.94063  0.33670  0.44264  1.0000
  F   F30       1.0  0.93802  0.34187  0.94139  1.0000
  F   F31       1.0  0.93484  0.85555  0.44664  1.0000
  F   F32       1.0  0.93579  0.84438  0.94172  1.0000
  F   F33       1.0  0.16799  0.35417  0.19452  1.0000
  F   F34       1.0  0.17657  0.38438  0.68767  1.0000
  F   F35       1.0  0.17140  0.87215  0.18548  1.0000
  F   F36       1.0  0.18137  0.89673  0.67384  1.0000
  F   F37       1.0  0.42065  0.39093  0.19140  1.0000
  F   F38       1.0  0.42331  0.36901  0.69731  1.0000
  F   F39       1.0  0.42277  0.87670  0.18193  1.0000
  F   F40       1.0  0.41706  0.87869  0.68467  1.0000
  F   F41       1.0  0.67090  0.34693  0.20209  1.0000
  F   F42       1.0  0.66827  0.35641  0.71092  1.0000
  F   F43       1.0  0.66449  0.86653  0.21057  1.0000
  F   F44       1.0  0.66908  0.86798  0.70800  1.0000
  F   F45       1.0  0.91852  0.35716  0.20404  1.0000
  F   F46       1.0  0.91991  0.37412  0.69795  1.0000
  F   F47       1.0  0.91819  0.88304  0.19854  1.0000
  F   F48       1.0  0.91852  0.87938  0.69048  1.0000
  F   F49       1.0  0.07619  0.17511  0.03517  1.0000
  F   F50       1.0  0.06350  0.16109  0.55204  1.0000
  F   F51       1.0  0.06511  0.67914  0.04319  1.0000
  F   F52       1.0  0.06475  0.66589  0.54957  1.0000
  F   F53       1.0  0.31221  0.16752  0.05315  1.0000
  F   F54       1.0  0.30895  0.15161  0.55632  1.0000
  F   F55       1.0  0.30072  0.64752  0.05950  1.0000
  F   F56       1.0  0.32261  0.68163  0.53955  1.0000
  F   F57       1.0  0.55495  0.15218  0.07400  1.0000
  F   F58       1.0  0.55635  0.14322  0.57044  1.0000
  F   F59       1.0  0.55514  0.65946  0.06728  1.0000
  F   F60       1.0  0.56741  0.66075  0.55553  1.0000
  F   F61       1.0  0.81875  0.16664  0.05061  1.0000
  F   F62       1.0  0.81075  0.14749  0.56499  1.0000
  F   F63       1.0  0.80694  0.65450  0.06554  1.0000
  F   F64       1.0  0.81858  0.66959  0.54059  1.0000
  F   F65       1.0  0.21153  0.19772  0.19431  1.0000
  F   F66       1.0  0.20481  0.19738  0.71531  1.0000
  F   F67       1.0  0.20496  0.68990  0.21420  1.0000
  F   F68       1.0  0.19821  0.70040  0.70603  1.0000
  F   F69       1.0  0.44606  0.20492  0.23167  1.0000
  F   F70       1.0  0.46276  0.20590  0.70842  1.0000
  F   F71       1.0  0.46494  0.69796  0.21648  1.0000
  F   F72       1.0  0.43577  0.69281  0.70666  1.0000
  F   F73       1.0  0.70977  0.19396  0.21313  1.0000
  F   F74       1.0  0.70692  0.19120  0.71012  1.0000
  F   F75       1.0  0.71603  0.71014  0.21523  1.0000
  F   F76       1.0  0.70710  0.70857  0.71703  1.0000
  F   F77       1.0  0.95984  0.20685  0.19265  1.0000
  F   F78       1.0  0.94631  0.20305  0.71520  1.0000
  F   F79       1.0  0.94990  0.70353  0.21644  1.0000
  F   F80       1.0  0.94277  0.70443  0.72359  1.0000
  F   F81       1.0  0.15207  0.09532  0.03366  1.0000
  F   F82       1.0  0.15029  0.10124  0.54035  1.0000
  F   F83       1.0  0.15154  0.61689  0.02847  1.0000
  F   F84       1.0  0.14407  0.57965  0.54949  1.0000
  F   F85       1.0  0.39887  0.10684  0.03125  1.0000
  F   F86       1.0  0.39570  0.09115  0.53720  1.0000
  F   F87       1.0  0.39577  0.58348  0.04770  1.0000
  F   F88       1.0  0.39449  0.57869  0.53493  1.0000
  F   F89       1.0  0.64639  0.09103  0.04270  1.0000
  F   F90       1.0  0.64637  0.08911  0.54573  1.0000
  F   F91       1.0  0.64332  0.59783  0.04279  1.0000
  F   F92       1.0  0.65526  0.59656  0.52585  1.0000
  F   F93       1.0  0.89908  0.07883  0.04070  1.0000
  F   F94       1.0  0.90125  0.09412  0.53239  1.0000
  F   F95       1.0  0.89354  0.60203  0.03353  1.0000
  F   F96       1.0  0.89660  0.58378  0.54434  1.0000
  F   F97       1.0  0.15513  0.20197  0.10710  1.0000
  F   F98       1.0  0.15386  0.20812  0.63612  1.0000
  F   F99       1.0  0.15516  0.69868  0.12071  1.0000
  F   F100      1.0  0.15023  0.70271  0.60642  1.0000
  F   F101      1.0  0.40506  0.19355  0.13540  1.0000
  F   F102      1.0  0.40332  0.19027  0.63530  1.0000
  F   F103      1.0  0.41596  0.69628  0.12031  1.0000
  F   F104      1.0  0.40317  0.70200  0.60462  1.0000
  F   F105      1.0  0.65527  0.18795  0.13909  1.0000
  F   F106      1.0  0.65008  0.19313  0.62765  1.0000
  F   F107      1.0  0.65400  0.70263  0.13689  1.0000
  F   F108      1.0  0.65375  0.68694  0.62476  1.0000
  F   F109      1.0  0.89934  0.19595  0.12491  1.0000
  F   F110      1.0  0.90270  0.20722  0.61572  1.0000
  F   F111      1.0  0.90810  0.69743  0.10966  1.0000
  F   F112      1.0  0.90833  0.69560  0.60493  1.0000
  F   F113      1.0  0.09715  0.30379  0.39190  1.0000
  F   F114      1.0  0.09841  0.31177  0.86384  1.0000
  F   F115      1.0  0.09468  0.82412  0.36972  1.0000
  F   F116      1.0  0.10758  0.79633  0.85574  1.0000
  F   F117      1.0  0.35971  0.29141  0.37224  1.0000
  F   F118      1.0  0.35388  0.30035  0.87043  1.0000
  F   F119      1.0  0.34921  0.80465  0.36245  1.0000
  F   F120      1.0  0.35046  0.79726  0.88619  1.0000
  F   F121      1.0  0.60183  0.28515  0.41389  1.0000
  F   F122      1.0  0.59428  0.29146  0.88663  1.0000
  F   F123      1.0  0.59997  0.79923  0.38561  1.0000
  F   F124      1.0  0.59510  0.79464  0.89631  1.0000
  F   F125      1.0  0.84817  0.30024  0.39471  1.0000
  F   F126      1.0  0.84807  0.30300  0.86372  1.0000
  F   F127      1.0  0.84696  0.80709  0.37484  1.0000
  F   F128      1.0  0.85457  0.80090  0.87520  1.0000
  F   F129      1.0  0.06783  0.25162  0.14498  1.0000
  F   F130      1.0  0.07289  0.24779  0.63811  1.0000
  F   F131      1.0  0.06499  0.76560  0.13272  1.0000
  F   F132      1.0  0.06407  0.74305  0.64760  1.0000
  F   F133      1.0  0.31798  0.24741  0.13767  1.0000
  F   F134      1.0  0.32020  0.24672  0.64020  1.0000
  F   F135      1.0  0.31400  0.74573  0.14016  1.0000
  F   F136      1.0  0.30633  0.76337  0.64748  1.0000
  F   F137      1.0  0.56567  0.24265  0.16179  1.0000
  F   F138      1.0  0.56547  0.24906  0.63342  1.0000
  F   F139      1.0  0.56893  0.74228  0.14565  1.0000
  F   F140      1.0  0.56435  0.75575  0.63443  1.0000
  F   F141      1.0  0.81044  0.23938  0.16423  1.0000
  F   F142      1.0  0.81919  0.25684  0.62497  1.0000
  F   F143      1.0  0.81933  0.76483  0.12400  1.0000
  F   F144      1.0  0.81380  0.75004  0.64861  1.0000
  F   F145      1.0  0.12935  0.38563  0.09251  1.0000
  F   F146      1.0  0.12029  0.38690  0.61017  1.0000
  F   F147      1.0  0.12704  0.89446  0.08658  1.0000
  F   F148      1.0  0.12364  0.86995  0.62496  1.0000
  F   F149      1.0  0.37873  0.37796  0.09356  1.0000
  F   F150      1.0  0.37158  0.36697  0.61931  1.0000
  F   F151      1.0  0.37439  0.85253  0.11374  1.0000
  F   F152      1.0  0.37824  0.87332  0.58887  1.0000
  F   F153      1.0  0.62409  0.37608  0.11135  1.0000
  F   F154      1.0  0.61975  0.37642  0.62951  1.0000
  F   F155      1.0  0.62880  0.88655  0.10116  1.0000
  F   F156      1.0  0.62683  0.85495  0.61844  1.0000
  F   F157      1.0  0.87340  0.37794  0.11140  1.0000
  F   F158      1.0  0.87263  0.38504  0.60626  1.0000
  F   F159      1.0  0.87511  0.86509  0.11695  1.0000
  F   F160      1.0  0.87172  0.84800  0.62325  1.0000
  F   F161      1.0  0.18730  0.25110  0.33578  1.0000
  F   F162      1.0  0.17511  0.25015  0.86766  1.0000
  F   F163      1.0  0.17857  0.75185  0.35382  1.0000
  F   F164      1.0  0.19073  0.75295  0.83393  1.0000
  F   F165      1.0  0.44698  0.24143  0.36208  1.0000
  F   F166      1.0  0.43768  0.25178  0.85719  1.0000
  F   F167      1.0  0.42877  0.74006  0.37137  1.0000
  F   F168      1.0  0.44290  0.75266  0.83075  1.0000
  F   F169      1.0  0.69161  0.24451  0.34948  1.0000
  F   F170      1.0  0.68453  0.23905  0.86923  1.0000
  F   F171      1.0  0.68719  0.75219  0.37240  1.0000
  F   F172      1.0  0.68655  0.75499  0.86560  1.0000
  F   F173      1.0  0.93708  0.24356  0.35729  1.0000
  F   F174      1.0  0.93463  0.24958  0.85497  1.0000
  F   F175      1.0  0.93045  0.75894  0.36499  1.0000
  F   F176      1.0  0.93863  0.74752  0.85411  1.0000
  F   F177      1.0  0.12523  0.12650  0.39467  1.0000
  F   F178      1.0  0.12690  0.12694  0.88858  1.0000
  F   F179      1.0  0.12518  0.63938  0.38935  1.0000
  F   F180      1.0  0.12477  0.62219  0.90036  1.0000
  F   F181      1.0  0.37593  0.12744  0.38823  1.0000
  F   F182      1.0  0.37642  0.13500  0.89966  1.0000
  F   F183      1.0  0.37536  0.63417  0.37922  1.0000
  F   F184      1.0  0.37463  0.62358  0.91087  1.0000
  F   F185      1.0  0.62658  0.13246  0.39556  1.0000
  F   F186      1.0  0.62274  0.12028  0.90843  1.0000
  F   F187      1.0  0.62967  0.65102  0.36442  1.0000
  F   F188      1.0  0.62590  0.63950  0.89464  1.0000
  F   F189      1.0  0.87527  0.13091  0.39439  1.0000
  F   F190      1.0  0.87434  0.12265  0.89234  1.0000
  F   F191      1.0  0.87612  0.63619  0.38655  1.0000
  F   F192      1.0  0.87274  0.61961  0.90653  1.0000
  F   F193      1.0  0.00898  0.35694  0.07876  1.0000
  F   F194      1.0  0.00035  0.35282  0.58954  1.0000
  F   F195      1.0  0.00367  0.87287  0.07860  1.0000
  F   F196      1.0  0.00827  0.85233  0.58935  1.0000
  F   F197      1.0  0.25696  0.35820  0.07856  1.0000
  F   F198      1.0  0.26173  0.36947  0.57124  1.0000
  F   F199      1.0  0.26046  0.86264  0.07280  1.0000
  F   F200      1.0  0.26063  0.86870  0.55214  1.0000
  F   F201      1.0  0.50678  0.35849  0.07747  1.0000
  F   F202      1.0  0.50798  0.36324  0.57354  1.0000
  F   F203      1.0  0.51189  0.85370  0.07364  1.0000
  F   F204      1.0  0.50404  0.84721  0.58102  1.0000
  F   F205      1.0  0.76080  0.35725  0.06997  1.0000
  F   F206      1.0  0.75416  0.36263  0.59062  1.0000
  F   F207      1.0  0.75738  0.86860  0.07362  1.0000
  F   F208      1.0  0.76022  0.84948  0.57240  1.0000
  F   F209      1.0  0.06825  0.49534  0.17797  1.0000
  F   F210      1.0  0.05485  0.49538  0.68231  1.0000
  F   F211      1.0  0.07017  0.99054  0.17801  1.0000
  F   F212      1.0  0.06679  0.98576  0.67728  1.0000
  F   F213      1.0  0.31807  0.48658  0.15987  1.0000
  F   F214      1.0  0.31386  0.48502  0.68160  1.0000
  F   F215      1.0  0.32228  0.99234  0.15693  1.0000
  F   F216      1.0  0.31990  0.98958  0.66475  1.0000
  F   F217      1.0  0.56854  0.48368  0.18062  1.0000
  F   F218      1.0  0.56557  0.48922  0.71016  1.0000
  F   F219      1.0  0.56259  0.98014  0.19773  1.0000
  F   F220      1.0  0.56604  0.97500  0.68533  1.0000
  F   F221      1.0  0.82054  0.48220  0.17623  1.0000
  F   F222      1.0  0.81722  0.48783  0.68770  1.0000
  F   F223      1.0  0.81884  0.98268  0.16976  1.0000
  F   F224      1.0  0.82149  0.98021  0.67425  1.0000
  F   F225      1.0  0.23709  0.13241  0.42818  1.0000
  F   F226      1.0  0.24108  0.12761  0.93213  1.0000
  F   F227      1.0  0.24425  0.64623  0.40206  1.0000
  F   F228      1.0  0.24502  0.64722  0.91917  1.0000
  F   F229      1.0  0.49461  0.11899  0.44745  1.0000
  F   F230      1.0  0.49328  0.13103  0.93270  1.0000
  F   F231      1.0  0.49579  0.62794  0.41840  1.0000
  F   F232      1.0  0.48559  0.63808  0.94851  1.0000
  F   F233      1.0  0.74337  0.14492  0.42987  1.0000
  F   F234      1.0  0.74452  0.13161  0.92462  1.0000
  F   F235      1.0  0.74217  0.63553  0.42247  1.0000
  F   F236      1.0  0.73715  0.63148  0.94170  1.0000
  F   F237      1.0  0.99424  0.13061  0.42741  1.0000
  F   F238      1.0  0.99076  0.14849  0.91805  1.0000
  F   F239      1.0  0.99494  0.64407  0.42185  1.0000
  F   F240      1.0  0.98662  0.62654  0.94606  1.0000
  F   F241      1.0  0.18451  0.01678  0.30391  1.0000
  F   F242      1.0  0.17884  0.01156  0.82936  1.0000
  F   F243      1.0  0.17860  0.50862  0.32796  1.0000
  F   F244      1.0  0.18385  0.52201  0.81429  1.0000
  F   F245      1.0  0.42976  0.00688  0.32541  1.0000
  F   F246      1.0  0.42781  0.00356  0.84150  1.0000
  F   F247      1.0  0.43515  0.51078  0.32435  1.0000
  F   F248      1.0  0.43950  0.50906  0.81978  1.0000
  F   F249      1.0  0.67927  0.02476  0.32562  1.0000
  F   F250      1.0  0.67239  0.02475  0.81890  1.0000
  F   F251      1.0  0.69068  0.51424  0.31332  1.0000
  F   F252      1.0  0.67441  0.51894  0.83667  1.0000
  F   F253      1.0  0.93048  0.02816  0.31358  1.0000
  F   F254      1.0  0.93176  0.01681  0.82029  1.0000
  F   F255      1.0  0.93256  0.52248  0.32263  1.0000
  F   F256      1.0  0.93603  0.51234  0.83049  1.0000
  F   F257      1.0  0.00366  0.24891  0.99891  1.0000
  F   F258      1.0  0.99932  0.25073  0.49923  1.0000
  F   F259      1.0  0.00173  0.75690  0.00659  1.0000
  F   F260      1.0  0.00269  0.75743  0.50378  1.0000
  F   F261      1.0  0.25388  0.26140  0.98519  1.0000
  F   F262      1.0  0.24633  0.26196  0.48956  1.0000
  F   F263      1.0  0.25407  0.76750  0.98315  1.0000
  F   F264      1.0  0.24986  0.74007  0.50655  1.0000
  F   F265      1.0  0.49832  0.26599  0.98228  1.0000
  F   F266      1.0  0.49863  0.25374  0.49181  1.0000
  F   F267      1.0  0.50140  0.76688  0.98130  1.0000
  F   F268      1.0  0.50322  0.74495  0.48732  1.0000
  F   F269      1.0  0.74590  0.23779  0.00997  1.0000
  F   F270      1.0  0.75154  0.26386  0.49796  1.0000
  F   F271      1.0  0.74891  0.75413  0.00845  1.0000
  F   F272      1.0  0.74707  0.71469  0.52378  1.0000
  F   F273      1.0  0.12550  0.00381  0.23971  1.0000
  F   F274      1.0  0.12345  0.00870  0.75241  1.0000
  F   F275      1.0  0.13076  0.50151  0.22705  1.0000
  F   F276      1.0  0.12344  0.50337  0.74484  1.0000
  F   F277      1.0  0.37339  0.00643  0.24137  1.0000
  F   F278      1.0  0.36826  0.98919  0.75512  1.0000
  F   F279      1.0  0.36603  0.48845  0.26411  1.0000
  F   F280      1.0  0.37914  0.50629  0.74392  1.0000
  F   F281      1.0  0.62764  0.99418  0.25618  1.0000
  F   F282      1.0  0.61480  0.98887  0.77256  1.0000
  F   F283      1.0  0.63612  0.49970  0.23584  1.0000
  F   F284      1.0  0.64041  0.50465  0.73326  1.0000
  F   F285      1.0  0.86838  0.99171  0.25801  1.0000
  F   F286      1.0  0.87930  0.01315  0.73642  1.0000
  F   F287      1.0  0.88149  0.49857  0.23869  1.0000
  F   F288      1.0  0.87365  0.49391  0.76010  1.0000
  F   F289      1.0  0.03736  0.04472  0.01725  1.0000
  F   F290      1.0  0.03953  0.03563  0.53069  1.0000
  F   F291      1.0  0.04071  0.54177  0.03872  1.0000
  F   F292      1.0  0.04463  0.53389  0.51529  1.0000
  F   F293      1.0  0.29184  0.03526  0.01944  1.0000
  F   F294      1.0  0.29321  0.02850  0.51367  1.0000
  F   F295      1.0  0.29506  0.52720  0.00677  1.0000
  F   F296      1.0  0.29690  0.55475  0.50375  1.0000
  F   F297      1.0  0.54455  0.02545  0.03328  1.0000
  F   F298      1.0  0.54641  0.01490  0.53031  1.0000
  F   F299      1.0  0.54533  0.51375  0.03706  1.0000
  F   F300      1.0  0.54554  0.52474  0.53488  1.0000
  F   F301      1.0  0.79169  0.03965  0.02656  1.0000
  F   F302      1.0  0.79521  0.03001  0.52037  1.0000
  F   F303      1.0  0.79344  0.52453  0.01821  1.0000
  F   F304      1.0  0.79454  0.53218  0.52929  1.0000
  F   F305      1.0  0.23348  0.40976  0.22659  1.0000
  F   F306      1.0  0.23275  0.41508  0.72997  1.0000
  F   F307      1.0  0.23391  0.89262  0.22879  1.0000
  F   F308      1.0  0.24043  0.92206  0.71807  1.0000
  F   F309      1.0  0.48728  0.39924  0.23707  1.0000
  F   F310      1.0  0.48485  0.41218  0.72636  1.0000
  F   F311      1.0  0.48732  0.87980  0.24258  1.0000
  F   F312      1.0  0.48291  0.92650  0.71024  1.0000
  F   F313      1.0  0.73552  0.40376  0.22847  1.0000
  F   F314      1.0  0.73084  0.42397  0.72852  1.0000
  F   F315      1.0  0.72495  0.92838  0.23494  1.0000
  F   F316      1.0  0.73485  0.91296  0.73043  1.0000
  F   F317      1.0  0.98554  0.41960  0.22303  1.0000
  F   F318      1.0  0.98098  0.41696  0.73110  1.0000
  F   F319      1.0  0.98845  0.91642  0.22569  1.0000
  F   F320      1.0  0.98453  0.92175  0.72090  1.0000
  F   F321      1.0  0.20657  0.47208  0.46668  1.0000
  F   F322      1.0  0.20966  0.47259  0.97396  1.0000
  F   F323      1.0  0.20378  0.96967  0.47344  1.0000
  F   F324      1.0  0.21229  0.97039  0.96472  1.0000
  F   F325      1.0  0.45203  0.45913  0.49022  1.0000
  F   F326      1.0  0.46197  0.46882  0.97637  1.0000
  F   F327      1.0  0.45938  0.97571  0.47040  1.0000
  F   F328      1.0  0.46452  0.96853  0.96508  1.0000
  F   F329      1.0  0.70493  0.44919  0.48240  1.0000
  F   F330      1.0  0.70289  0.45909  0.98356  1.0000
  F   F331      1.0  0.70673  0.97839  0.48767  1.0000
  F   F332      1.0  0.70778  0.96803  0.97902  1.0000
  F   F333      1.0  0.95733  0.46716  0.47915  1.0000
  F   F334      1.0  0.95730  0.47424  0.98337  1.0000
  F   F335      1.0  0.95726  0.97304  0.47932  1.0000
  F   F336      1.0  0.95606  0.97224  0.98210  1.0000
  F   F337      1.0  0.01474  0.08098  0.27280  1.0000
  F   F338      1.0  0.01527  0.09054  0.76815  1.0000
  F   F339      1.0  0.01311  0.60625  0.25819  1.0000
  F   F340      1.0  0.01008  0.60182  0.77559  1.0000
  F   F341      1.0  0.26701  0.07169  0.27138  1.0000
  F   F342      1.0  0.26840  0.08379  0.76920  1.0000
  F   F343      1.0  0.26366  0.56223  0.27095  1.0000
  F   F344      1.0  0.26310  0.59267  0.76762  1.0000
  F   F345      1.0  0.51205  0.08798  0.27293  1.0000
  F   F346      1.0  0.51557  0.08226  0.77538  1.0000
  F   F347      1.0  0.51461  0.57280  0.28697  1.0000
  F   F348      1.0  0.51032  0.60815  0.77003  1.0000
  F   F349      1.0  0.77124  0.07565  0.27557  1.0000
  F   F350      1.0  0.76806  0.07941  0.77258  1.0000
  F   F351      1.0  0.76691  0.58294  0.27450  1.0000
  F   F352      1.0  0.76535  0.58841  0.77847  1.0000
  F   F353      1.0  0.09796  0.40880  0.46260  1.0000
  F   F354      1.0  0.10002  0.42345  0.94968  1.0000
  F   F355      1.0  0.10400  0.89587  0.46893  1.0000
  F   F356      1.0  0.09225  0.90974  0.95437  1.0000
  F   F357      1.0  0.35334  0.41301  0.45773  1.0000
  F   F358      1.0  0.34640  0.40648  0.95273  1.0000
  F   F359      1.0  0.34937  0.91277  0.45096  1.0000
  F   F360      1.0  0.34807  0.90649  0.97270  1.0000
  F   F361      1.0  0.60940  0.41247  0.46585  1.0000
  F   F362      1.0  0.59986  0.39952  0.96122  1.0000
  F   F363      1.0  0.60640  0.91455  0.46264  1.0000
  F   F364      1.0  0.60504  0.90735  0.97153  1.0000
  F   F365      1.0  0.85006  0.41712  0.45913  1.0000
  F   F366      1.0  0.85164  0.39528  0.96822  1.0000
  F   F367      1.0  0.85603  0.91241  0.45725  1.0000
  F   F368      1.0  0.85254  0.92220  0.94771  1.0000
  F   F369      1.0  0.05088  0.30792  0.28604  1.0000
  F   F370      1.0  0.04100  0.30237  0.78434  1.0000
  F   F371      1.0  0.05213  0.79873  0.28869  1.0000
  F   F372      1.0  0.04187  0.79714  0.79436  1.0000
  F   F373      1.0  0.30113  0.29858  0.28324  1.0000
  F   F374      1.0  0.29396  0.29953  0.78171  1.0000
  F   F375      1.0  0.29717  0.80487  0.27881  1.0000
  F   F376      1.0  0.30593  0.79892  0.78678  1.0000
  F   F377      1.0  0.56369  0.29723  0.29363  1.0000
  F   F378      1.0  0.54188  0.30115  0.79006  1.0000
  F   F379      1.0  0.55998  0.79389  0.28090  1.0000
  F   F380      1.0  0.54829  0.79511  0.79413  1.0000
  F   F381      1.0  0.80220  0.30024  0.29242  1.0000
  F   F382      1.0  0.78757  0.30377  0.78654  1.0000
  F   F383      1.0  0.79108  0.80716  0.29332  1.0000
  F   F384      1.0  0.79865  0.79422  0.79662  1.0000
