data_image0
_chemical_formula_structural       Hf96F384
_chemical_formula_sum              "Hf96 F384"
_cell_length_a       31.019
_cell_length_b       15.5116
_cell_length_c       15.5053
_cell_angle_alpha    63.342
_cell_angle_beta     63.342
_cell_angle_gamma    80.1625

_space_group_name_H-M_alt    "P 1"
_space_group_IT_number       1

loop_
  _space_group_symop_operation_xyz
  'x, y, z'

loop_
  _atom_site_type_symbol
  _atom_site_label
  _atom_site_symmetry_multiplicity
  _atom_site_fract_x
  _atom_site_fract_y
  _atom_site_fract_z
  _atom_site_occupancy
  Hf  Hf1       1.0  0.19654  0.10984  0.37186  1.0000
  Hf  Hf2       1.0  0.19458  0.11370  0.87580  1.0000
  Hf  Hf3       1.0  0.19395  0.61723  0.36921  1.0000
  Hf  Hf4       1.0  0.19305  0.60911  0.87838  1.0000
  Hf  Hf5       1.0  0.44914  0.10962  0.36799  1.0000
  Hf  Hf6       1.0  0.44559  0.10850  0.87565  1.0000
  Hf  Hf7       1.0  0.44696  0.60841  0.37274  1.0000
  Hf  Hf8       1.0  0.44688  0.61557  0.87172  1.0000
  Hf  Hf9       1.0  0.69665  0.09673  0.38246  1.0000
  Hf  Hf10      1.0  0.69727  0.10693  0.87344  1.0000
  Hf  Hf11      1.0  0.69786  0.59916  0.37702  1.0000
  Hf  Hf12      1.0  0.69716  0.59912  0.87892  1.0000
  Hf  Hf13      1.0  0.94418  0.10996  0.38103  1.0000
  Hf  Hf14      1.0  0.94714  0.10459  0.87181  1.0000
  Hf  Hf15      1.0  0.94560  0.61531  0.36926  1.0000
  Hf  Hf16      1.0  0.94930  0.60573  0.87583  1.0000
  Hf  Hf17      1.0  0.05390  0.39242  0.12295  1.0000
  Hf  Hf18      1.0  0.05602  0.39542  0.62993  1.0000
  Hf  Hf19      1.0  0.05165  0.89570  0.13224  1.0000
  Hf  Hf20      1.0  0.05432  0.89046  0.62578  1.0000
  Hf  Hf21      1.0  0.30525  0.39471  0.11561  1.0000
  Hf  Hf22      1.0  0.30646  0.39945  0.62236  1.0000
  Hf  Hf23      1.0  0.30753  0.89812  0.12034  1.0000
  Hf  Hf24      1.0  0.30452  0.89192  0.61987  1.0000
  Hf  Hf25      1.0  0.55321  0.38834  0.12522  1.0000
  Hf  Hf26      1.0  0.55294  0.38953  0.62676  1.0000
  Hf  Hf27      1.0  0.55529  0.88696  0.11932  1.0000
  Hf  Hf28      1.0  0.55270  0.89028  0.62462  1.0000
  Hf  Hf29      1.0  0.80233  0.38857  0.13683  1.0000
  Hf  Hf30      1.0  0.80248  0.39276  0.61598  1.0000
  Hf  Hf31      1.0  0.80100  0.88214  0.13334  1.0000
  Hf  Hf32      1.0  0.80198  0.88749  0.63165  1.0000
  Hf  Hf33      1.0  0.05570  0.18917  0.41502  1.0000
  Hf  Hf34      1.0  0.05485  0.18464  0.91819  1.0000
  Hf  Hf35      1.0  0.05323  0.68032  0.42453  1.0000
  Hf  Hf36      1.0  0.05680  0.68908  0.91739  1.0000
  Hf  Hf37      1.0  0.30611  0.17939  0.41461  1.0000
  Hf  Hf38      1.0  0.30375  0.17635  0.92492  1.0000
  Hf  Hf39      1.0  0.30188  0.67452  0.42303  1.0000
  Hf  Hf40      1.0  0.30629  0.67795  0.91880  1.0000
  Hf  Hf41      1.0  0.55529  0.17616  0.42171  1.0000
  Hf  Hf42      1.0  0.55622  0.18199  0.91902  1.0000
  Hf  Hf43      1.0  0.55591  0.68464  0.41643  1.0000
  Hf  Hf44      1.0  0.55533  0.67737  0.91821  1.0000
  Hf  Hf45      1.0  0.80705  0.17677  0.41529  1.0000
  Hf  Hf46      1.0  0.80554  0.18874  0.90829  1.0000
  Hf  Hf47      1.0  0.80766  0.67601  0.41694  1.0000
  Hf  Hf48      1.0  0.80683  0.66841  0.91964  1.0000
  Hf  Hf49      1.0  0.15855  0.39199  0.33523  1.0000
  Hf  Hf50      1.0  0.16186  0.39266  0.82516  1.0000
  Hf  Hf51      1.0  0.15483  0.89362  0.33324  1.0000
  Hf  Hf52      1.0  0.16248  0.89748  0.82605  1.0000
  Hf  Hf53      1.0  0.40729  0.38955  0.33478  1.0000
  Hf  Hf54      1.0  0.40482  0.38833  0.83232  1.0000
  Hf  Hf55      1.0  0.41048  0.88513  0.33455  1.0000
  Hf  Hf56      1.0  0.40565  0.88842  0.84271  1.0000
  Hf  Hf57      1.0  0.65721  0.38077  0.34093  1.0000
  Hf  Hf58      1.0  0.65881  0.38345  0.83456  1.0000
  Hf  Hf59      1.0  0.65836  0.88194  0.33928  1.0000
  Hf  Hf60      1.0  0.66240  0.88324  0.82978  1.0000
  Hf  Hf61      1.0  0.91092  0.39446  0.32904  1.0000
  Hf  Hf62      1.0  0.90490  0.38602  0.84162  1.0000
  Hf  Hf63      1.0  0.90558  0.88990  0.33715  1.0000
  Hf  Hf64      1.0  0.90507  0.88823  0.82810  1.0000
  Hf  Hf65      1.0  0.19530  0.32454  0.07892  1.0000
  Hf  Hf66      1.0  0.19981  0.32381  0.57472  1.0000
  Hf  Hf67      1.0  0.19591  0.81626  0.07892  1.0000
  Hf  Hf68      1.0  0.19051  0.82545  0.58010  1.0000
  Hf  Hf69      1.0  0.44461  0.33011  0.07327  1.0000
  Hf  Hf70      1.0  0.44872  0.32225  0.57560  1.0000
  Hf  Hf71      1.0  0.44356  0.81402  0.08680  1.0000
  Hf  Hf72      1.0  0.44259  0.81652  0.59064  1.0000
  Hf  Hf73      1.0  0.69202  0.31216  0.09550  1.0000
  Hf  Hf74      1.0  0.69150  0.31749  0.58645  1.0000
  Hf  Hf75      1.0  0.69701  0.81149  0.08639  1.0000
  Hf  Hf76      1.0  0.69563  0.80631  0.58360  1.0000
  Hf  Hf77      1.0  0.94320  0.31396  0.08867  1.0000
  Hf  Hf78      1.0  0.94247  0.32119  0.58606  1.0000
  Hf  Hf79      1.0  0.94428  0.82168  0.07299  1.0000
  Hf  Hf80      1.0  0.94405  0.81283  0.58601  1.0000
  Hf  Hf81      1.0  0.08759  0.11795  0.16973  1.0000
  Hf  Hf82      1.0  0.09389  0.12675  0.65655  1.0000
  Hf  Hf83      1.0  0.08855  0.61665  0.16862  1.0000
  Hf  Hf84      1.0  0.08832  0.61333  0.67044  1.0000
  Hf  Hf85      1.0  0.34266  0.11510  0.16542  1.0000
  Hf  Hf86      1.0  0.34107  0.11325  0.66937  1.0000
  Hf  Hf87      1.0  0.33914  0.61104  0.16860  1.0000
  Hf  Hf88      1.0  0.34251  0.61308  0.66348  1.0000
  Hf  Hf89      1.0  0.59204  0.10690  0.16902  1.0000
  Hf  Hf90      1.0  0.59020  0.10317  0.67746  1.0000
  Hf  Hf91      1.0  0.59094  0.60133  0.17534  1.0000
  Hf  Hf92      1.0  0.59129  0.61134  0.66812  1.0000
  Hf  Hf93      1.0  0.83848  0.11240  0.16059  1.0000
  Hf  Hf94      1.0  0.84265  0.11292  0.66411  1.0000
  Hf  Hf95      1.0  0.84279  0.61465  0.16053  1.0000
  Hf  Hf96      1.0  0.84716  0.61180  0.66033  1.0000
  F   F1        1.0  0.07959  0.14361  0.29380  1.0000
  F   F2        1.0  0.08064  0.13084  0.79890  1.0000
  F   F3        1.0  0.07735  0.63178  0.30382  1.0000
  F   F4        1.0  0.08103  0.63390  0.79892  1.0000
  F   F5        1.0  0.32958  0.11871  0.30992  1.0000
  F   F6        1.0  0.32915  0.11845  0.81053  1.0000
  F   F7        1.0  0.32585  0.61222  0.31364  1.0000
  F   F8        1.0  0.32754  0.61889  0.80597  1.0000
  F   F9        1.0  0.58101  0.11932  0.30539  1.0000
  F   F10       1.0  0.57332  0.12589  0.81525  1.0000
  F   F11       1.0  0.58092  0.62801  0.30150  1.0000
  F   F12       1.0  0.57815  0.64944  0.79621  1.0000
  F   F13       1.0  0.83846  0.13119  0.29949  1.0000
  F   F14       1.0  0.83159  0.12158  0.80249  1.0000
  F   F15       1.0  0.83311  0.63485  0.29470  1.0000
  F   F16       1.0  0.83317  0.62776  0.80077  1.0000
  F   F17       1.0  0.19005  0.34603  0.44455  1.0000
  F   F18       1.0  0.18940  0.34662  0.94160  1.0000
  F   F19       1.0  0.17998  0.84622  0.45361  1.0000
  F   F20       1.0  0.19273  0.84025  0.94111  1.0000
  F   F21       1.0  0.43623  0.33088  0.45018  1.0000
  F   F22       1.0  0.43568  0.33519  0.93998  1.0000
  F   F23       1.0  0.43008  0.83150  0.46105  1.0000
  F   F24       1.0  0.44002  0.84562  0.94653  1.0000
  F   F25       1.0  0.69036  0.34981  0.44302  1.0000
  F   F26       1.0  0.68267  0.32948  0.95149  1.0000
  F   F27       1.0  0.69135  0.83186  0.43657  1.0000
  F   F28       1.0  0.69320  0.84808  0.94068  1.0000
  F   F29       1.0  0.93722  0.34566  0.44377  1.0000
  F   F30       1.0  0.93408  0.33242  0.95266  1.0000
  F   F31       1.0  0.92990  0.84058  0.45669  1.0000
  F   F32       1.0  0.93883  0.86207  0.92459  1.0000
  F   F33       1.0  0.17829  0.38875  0.17775  1.0000
  F   F34       1.0  0.17695  0.39382  0.68411  1.0000
  F   F35       1.0  0.16268  0.86869  0.20146  1.0000
  F   F36       1.0  0.17873  0.88132  0.68952  1.0000
  F   F37       1.0  0.41734  0.38457  0.18285  1.0000
  F   F38       1.0  0.42300  0.36946  0.68916  1.0000
  F   F39       1.0  0.42094  0.87952  0.19928  1.0000
  F   F40       1.0  0.41522  0.86602  0.70734  1.0000
  F   F41       1.0  0.67402  0.37708  0.19126  1.0000
  F   F42       1.0  0.67343  0.38954  0.68905  1.0000
  F   F43       1.0  0.66552  0.84669  0.20671  1.0000
  F   F44       1.0  0.67248  0.85226  0.70805  1.0000
  F   F45       1.0  0.92159  0.37147  0.20295  1.0000
  F   F46       1.0  0.91985  0.37594  0.69331  1.0000
  F   F47       1.0  0.92830  0.88312  0.17637  1.0000
  F   F48       1.0  0.91710  0.86319  0.69722  1.0000
  F   F49       1.0  0.05900  0.16055  0.05498  1.0000
  F   F50       1.0  0.07080  0.17836  0.53951  1.0000
  F   F51       1.0  0.06132  0.66931  0.05208  1.0000
  F   F52       1.0  0.05825  0.65281  0.56571  1.0000
  F   F53       1.0  0.31330  0.15855  0.05632  1.0000
  F   F54       1.0  0.32072  0.15950  0.54426  1.0000
  F   F55       1.0  0.31294  0.65093  0.05842  1.0000
  F   F56       1.0  0.31248  0.66138  0.55953  1.0000
  F   F57       1.0  0.56274  0.14585  0.05984  1.0000
  F   F58       1.0  0.56645  0.15736  0.55750  1.0000
  F   F59       1.0  0.56940  0.64321  0.05900  1.0000
  F   F60       1.0  0.56021  0.66247  0.55330  1.0000
  F   F61       1.0  0.80148  0.15699  0.06642  1.0000
  F   F62       1.0  0.81190  0.15653  0.55570  1.0000
  F   F63       1.0  0.81480  0.65042  0.05031  1.0000
  F   F64       1.0  0.81631  0.65684  0.54488  1.0000
  F   F65       1.0  0.19882  0.21429  0.21208  1.0000
  F   F66       1.0  0.19975  0.20995  0.70885  1.0000
  F   F67       1.0  0.20600  0.71457  0.21005  1.0000
  F   F68       1.0  0.19541  0.71392  0.71833  1.0000
  F   F69       1.0  0.46020  0.20604  0.20516  1.0000
  F   F70       1.0  0.46334  0.19892  0.70689  1.0000
  F   F71       1.0  0.45226  0.70243  0.21355  1.0000
  F   F72       1.0  0.45650  0.70487  0.70580  1.0000
  F   F73       1.0  0.70609  0.19719  0.22219  1.0000
  F   F74       1.0  0.68884  0.19745  0.71968  1.0000
  F   F75       1.0  0.71175  0.68820  0.21120  1.0000
  F   F76       1.0  0.70020  0.69738  0.71478  1.0000
  F   F77       1.0  0.95393  0.20503  0.21342  1.0000
  F   F78       1.0  0.95252  0.20436  0.70265  1.0000
  F   F79       1.0  0.94732  0.70296  0.21156  1.0000
  F   F80       1.0  0.96792  0.70015  0.71761  1.0000
  F   F81       1.0  0.14166  0.10454  0.03696  1.0000
  F   F82       1.0  0.15193  0.09354  0.52885  1.0000
  F   F83       1.0  0.14498  0.59561  0.04838  1.0000
  F   F84       1.0  0.14955  0.58191  0.53618  1.0000
  F   F85       1.0  0.40079  0.12575  0.03017  1.0000
  F   F86       1.0  0.40559  0.10338  0.54404  1.0000
  F   F87       1.0  0.40363  0.60441  0.03223  1.0000
  F   F88       1.0  0.40076  0.58934  0.52179  1.0000
  F   F89       1.0  0.65432  0.11753  0.02696  1.0000
  F   F90       1.0  0.65106  0.08017  0.54125  1.0000
  F   F91       1.0  0.65102  0.59135  0.02820  1.0000
  F   F92       1.0  0.64846  0.59094  0.53518  1.0000
  F   F93       1.0  0.89360  0.10406  0.03463  1.0000
  F   F94       1.0  0.89597  0.10302  0.53804  1.0000
  F   F95       1.0  0.89928  0.58844  0.04065  1.0000
  F   F96       1.0  0.90280  0.60030  0.53014  1.0000
  F   F97       1.0  0.14716  0.19096  0.13619  1.0000
  F   F98       1.0  0.15858  0.21067  0.60303  1.0000
  F   F99       1.0  0.14916  0.69406  0.13550  1.0000
  F   F100      1.0  0.14735  0.68730  0.60697  1.0000
  F   F101      1.0  0.39852  0.21346  0.12740  1.0000
  F   F102      1.0  0.40073  0.21177  0.64329  1.0000
  F   F103      1.0  0.39830  0.69967  0.12404  1.0000
  F   F104      1.0  0.39787  0.70190  0.64014  1.0000
  F   F105      1.0  0.65322  0.19484  0.14306  1.0000
  F   F106      1.0  0.64417  0.19433  0.61179  1.0000
  F   F107      1.0  0.65078  0.69291  0.13177  1.0000
  F   F108      1.0  0.65638  0.68040  0.61777  1.0000
  F   F109      1.0  0.90446  0.20318  0.12642  1.0000
  F   F110      1.0  0.90702  0.19999  0.62075  1.0000
  F   F111      1.0  0.89931  0.70240  0.11580  1.0000
  F   F112      1.0  0.90410  0.69707  0.64309  1.0000
  F   F113      1.0  0.09840  0.31870  0.34590  1.0000
  F   F114      1.0  0.09979  0.30297  0.86507  1.0000
  F   F115      1.0  0.09407  0.80873  0.40567  1.0000
  F   F116      1.0  0.09738  0.81347  0.86483  1.0000
  F   F117      1.0  0.35348  0.30094  0.37454  1.0000
  F   F118      1.0  0.34369  0.30791  0.86572  1.0000
  F   F119      1.0  0.35026  0.81954  0.38059  1.0000
  F   F120      1.0  0.34785  0.80453  0.89941  1.0000
  F   F121      1.0  0.59996  0.30049  0.36653  1.0000
  F   F122      1.0  0.59624  0.29934  0.87787  1.0000
  F   F123      1.0  0.59465  0.81120  0.38867  1.0000
  F   F124      1.0  0.60194  0.79599  0.86879  1.0000
  F   F125      1.0  0.85185  0.29214  0.36690  1.0000
  F   F126      1.0  0.84606  0.30668  0.87179  1.0000
  F   F127      1.0  0.85041  0.79781  0.36724  1.0000
  F   F128      1.0  0.84284  0.79753  0.86634  1.0000
  F   F129      1.0  0.05998  0.24807  0.14212  1.0000
  F   F130      1.0  0.06427  0.25352  0.65120  1.0000
  F   F131      1.0  0.06272  0.75596  0.14345  1.0000
  F   F132      1.0  0.05887  0.75201  0.64600  1.0000
  F   F133      1.0  0.30640  0.24929  0.15408  1.0000
  F   F134      1.0  0.31734  0.26677  0.62535  1.0000
  F   F135      1.0  0.31548  0.76171  0.13015  1.0000
  F   F136      1.0  0.32382  0.75934  0.62954  1.0000
  F   F137      1.0  0.57273  0.25276  0.11723  1.0000
  F   F138      1.0  0.56012  0.24805  0.64772  1.0000
  F   F139      1.0  0.55898  0.74436  0.14723  1.0000
  F   F140      1.0  0.56786  0.74947  0.63195  1.0000
  F   F141      1.0  0.81563  0.24279  0.14805  1.0000
  F   F142      1.0  0.81835  0.25499  0.62746  1.0000
  F   F143      1.0  0.80986  0.74795  0.14294  1.0000
  F   F144      1.0  0.82768  0.75037  0.62550  1.0000
  F   F145      1.0  0.12605  0.37489  0.10351  1.0000
  F   F146      1.0  0.12925  0.37066  0.61430  1.0000
  F   F147      1.0  0.12613  0.86129  0.10440  1.0000
  F   F148      1.0  0.12016  0.83739  0.64122  1.0000
  F   F149      1.0  0.37294  0.38712  0.08544  1.0000
  F   F150      1.0  0.37711  0.39738  0.59388  1.0000
  F   F151      1.0  0.37341  0.86989  0.11222  1.0000
  F   F152      1.0  0.37322  0.87399  0.61414  1.0000
  F   F153      1.0  0.62295  0.36641  0.11734  1.0000
  F   F154      1.0  0.62237  0.36287  0.62213  1.0000
  F   F155      1.0  0.62755  0.87129  0.09949  1.0000
  F   F156      1.0  0.62607  0.86244  0.61386  1.0000
  F   F157      1.0  0.87237  0.36268  0.12137  1.0000
  F   F158      1.0  0.87168  0.36530  0.61185  1.0000
  F   F159      1.0  0.87353  0.87226  0.10622  1.0000
  F   F160      1.0  0.87170  0.88069  0.60314  1.0000
  F   F161      1.0  0.17834  0.25534  0.36369  1.0000
  F   F162      1.0  0.18545  0.25025  0.86473  1.0000
  F   F163      1.0  0.18276  0.75144  0.36543  1.0000
  F   F164      1.0  0.17662  0.75447  0.86331  1.0000
  F   F165      1.0  0.43408  0.25128  0.35333  1.0000
  F   F166      1.0  0.42936  0.25703  0.84318  1.0000
  F   F167      1.0  0.44140  0.75348  0.34758  1.0000
  F   F168      1.0  0.43877  0.75708  0.85262  1.0000
  F   F169      1.0  0.69048  0.24728  0.36105  1.0000
  F   F170      1.0  0.69151  0.24533  0.84310  1.0000
  F   F171      1.0  0.67929  0.74155  0.36104  1.0000
  F   F172      1.0  0.68988  0.73570  0.86561  1.0000
  F   F173      1.0  0.93002  0.24598  0.36804  1.0000
  F   F174      1.0  0.93840  0.25920  0.84463  1.0000
  F   F175      1.0  0.93558  0.75118  0.34797  1.0000
  F   F176      1.0  0.93185  0.74538  0.86934  1.0000
  F   F177      1.0  0.12584  0.13001  0.38174  1.0000
  F   F178      1.0  0.12972  0.13002  0.87558  1.0000
  F   F179      1.0  0.12795  0.64926  0.37107  1.0000
  F   F180      1.0  0.12399  0.62142  0.90518  1.0000
  F   F181      1.0  0.37421  0.12250  0.40605  1.0000
  F   F182      1.0  0.37648  0.12734  0.90487  1.0000
  F   F183      1.0  0.37283  0.65453  0.38133  1.0000
  F   F184      1.0  0.37454  0.64486  0.88608  1.0000
  F   F185      1.0  0.62467  0.12207  0.39318  1.0000
  F   F186      1.0  0.62888  0.11607  0.90581  1.0000
  F   F187      1.0  0.62363  0.63023  0.38969  1.0000
  F   F188      1.0  0.62038  0.61093  0.90157  1.0000
  F   F189      1.0  0.87485  0.11903  0.40482  1.0000
  F   F190      1.0  0.87305  0.13280  0.88688  1.0000
  F   F191      1.0  0.87484  0.61964  0.39195  1.0000
  F   F192      1.0  0.87807  0.62277  0.88882  1.0000
  F   F193      1.0  0.00361  0.35905  0.08049  1.0000
  F   F194      1.0  0.00848  0.36952  0.57012  1.0000
  F   F195      1.0  0.00815  0.84572  0.07052  1.0000
  F   F196      1.0  0.00420  0.87589  0.56303  1.0000
  F   F197      1.0  0.26161  0.36404  0.06696  1.0000
  F   F198      1.0  0.25874  0.36121  0.57524  1.0000
  F   F199      1.0  0.25432  0.86922  0.06839  1.0000
  F   F200      1.0  0.26002  0.87396  0.55903  1.0000
  F   F201      1.0  0.51063  0.36099  0.06968  1.0000
  F   F202      1.0  0.51579  0.36399  0.56197  1.0000
  F   F203      1.0  0.50531  0.86589  0.05999  1.0000
  F   F204      1.0  0.51103  0.87027  0.56831  1.0000
  F   F205      1.0  0.76006  0.35641  0.07999  1.0000
  F   F206      1.0  0.75432  0.34846  0.57822  1.0000
  F   F207      1.0  0.75624  0.85346  0.07755  1.0000
  F   F208      1.0  0.76350  0.84568  0.57325  1.0000
  F   F209      1.0  0.06494  0.49319  0.16493  1.0000
  F   F210      1.0  0.06960  0.48377  0.68213  1.0000
  F   F211      1.0  0.07240  0.98413  0.17296  1.0000
  F   F212      1.0  0.07379  0.98551  0.67156  1.0000
  F   F213      1.0  0.31820  0.48421  0.18315  1.0000
  F   F214      1.0  0.32301  0.48181  0.69214  1.0000
  F   F215      1.0  0.32487  0.98574  0.17493  1.0000
  F   F216      1.0  0.31574  0.99674  0.67930  1.0000
  F   F217      1.0  0.57013  0.47804  0.17938  1.0000
  F   F218      1.0  0.56676  0.49003  0.67263  1.0000
  F   F219      1.0  0.57485  0.98037  0.17054  1.0000
  F   F220      1.0  0.57438  0.98284  0.66296  1.0000
  F   F221      1.0  0.81449  0.47822  0.19347  1.0000
  F   F222      1.0  0.81995  0.48731  0.68680  1.0000
  F   F223      1.0  0.81720  0.97440  0.18274  1.0000
  F   F224      1.0  0.81521  0.98521  0.68933  1.0000
  F   F225      1.0  0.24290  0.14922  0.40672  1.0000
  F   F226      1.0  0.24164  0.14391  0.92591  1.0000
  F   F227      1.0  0.24230  0.62833  0.42898  1.0000
  F   F228      1.0  0.24043  0.63288  0.92373  1.0000
  F   F229      1.0  0.49223  0.13468  0.42464  1.0000
  F   F230      1.0  0.48715  0.14208  0.93019  1.0000
  F   F231      1.0  0.49712  0.64111  0.42217  1.0000
  F   F232      1.0  0.49206  0.64573  0.91603  1.0000
  F   F233      1.0  0.74473  0.13041  0.42309  1.0000
  F   F234      1.0  0.74362  0.14185  0.93299  1.0000
  F   F235      1.0  0.74340  0.64061  0.41999  1.0000
  F   F236      1.0  0.74995  0.61800  0.92815  1.0000
  F   F237      1.0  0.99256  0.13645  0.43380  1.0000
  F   F238      1.0  0.99473  0.13830  0.91812  1.0000
  F   F239      1.0  0.99196  0.62598  0.44236  1.0000
  F   F240      1.0  0.99407  0.63279  0.91950  1.0000
  F   F241      1.0  0.18846  0.01416  0.31193  1.0000
  F   F242      1.0  0.18900  0.01588  0.81474  1.0000
  F   F243      1.0  0.17739  0.52109  0.32773  1.0000
  F   F244      1.0  0.18537  0.52084  0.81119  1.0000
  F   F245      1.0  0.43289  0.00645  0.33706  1.0000
  F   F246      1.0  0.43650  0.01591  0.82396  1.0000
  F   F247      1.0  0.42890  0.50995  0.33989  1.0000
  F   F248      1.0  0.42891  0.51268  0.83514  1.0000
  F   F249      1.0  0.68589  0.01373  0.32522  1.0000
  F   F250      1.0  0.68201  0.01183  0.82062  1.0000
  F   F251      1.0  0.67465  0.51747  0.33230  1.0000
  F   F252      1.0  0.68073  0.51223  0.81297  1.0000
  F   F253      1.0  0.92972  0.01587  0.32195  1.0000
  F   F254      1.0  0.92798  0.01457  0.83145  1.0000
  F   F255      1.0  0.93519  0.52686  0.30917  1.0000
  F   F256      1.0  0.92703  0.50172  0.83928  1.0000
  F   F257      1.0  0.99973  0.25135  0.00053  1.0000
  F   F258      1.0  0.00343  0.24949  0.50303  1.0000
  F   F259      1.0  0.98810  0.72834  0.01084  1.0000
  F   F260      1.0  0.99329  0.73494  0.51811  1.0000
  F   F261      1.0  0.25091  0.24745  0.00798  1.0000
  F   F262      1.0  0.25387  0.24609  0.49791  1.0000
  F   F263      1.0  0.25500  0.74999  0.99911  1.0000
  F   F264      1.0  0.24862  0.75068  0.50084  1.0000
  F   F265      1.0  0.50258  0.26200  0.99831  1.0000
  F   F266      1.0  0.50438  0.25190  0.49638  1.0000
  F   F267      1.0  0.50253  0.74784  0.99502  1.0000
  F   F268      1.0  0.49765  0.75348  0.49588  1.0000
  F   F269      1.0  0.74724  0.26720  0.99355  1.0000
  F   F270      1.0  0.74193  0.22626  0.52028  1.0000
  F   F271      1.0  0.75325  0.74011  0.00110  1.0000
  F   F272      1.0  0.74948  0.74737  0.50136  1.0000
  F   F273      1.0  0.11853  0.99317  0.26297  1.0000
  F   F274      1.0  0.13271  0.01787  0.72203  1.0000
  F   F275      1.0  0.12138  0.49920  0.25344  1.0000
  F   F276      1.0  0.12131  0.50248  0.76028  1.0000
  F   F277      1.0  0.38288  0.01622  0.23869  1.0000
  F   F278      1.0  0.38037  0.00446  0.74177  1.0000
  F   F279      1.0  0.37772  0.50799  0.24325  1.0000
  F   F280      1.0  0.38917  0.51372  0.72581  1.0000
  F   F281      1.0  0.63757  0.99942  0.22881  1.0000
  F   F282      1.0  0.62370  0.99144  0.75844  1.0000
  F   F283      1.0  0.62352  0.48955  0.25597  1.0000
  F   F284      1.0  0.61645  0.49732  0.75846  1.0000
  F   F285      1.0  0.88009  0.99895  0.23166  1.0000
  F   F286      1.0  0.87769  0.00166  0.74526  1.0000
  F   F287      1.0  0.87824  0.50733  0.24326  1.0000
  F   F288      1.0  0.88360  0.50363  0.74069  1.0000
  F   F289      1.0  0.04704  0.01674  0.01203  1.0000
  F   F290      1.0  0.04577  0.03504  0.51977  1.0000
  F   F291      1.0  0.03810  0.53432  0.02291  1.0000
  F   F292      1.0  0.04747  0.52156  0.51968  1.0000
  F   F293      1.0  0.29546  0.03414  0.02755  1.0000
  F   F294      1.0  0.28174  0.04582  0.53080  1.0000
  F   F295      1.0  0.29409  0.53000  0.02323  1.0000
  F   F296      1.0  0.28693  0.53137  0.53584  1.0000
  F   F297      1.0  0.54467  0.02214  0.02532  1.0000
  F   F298      1.0  0.54228  0.02545  0.52300  1.0000
  F   F299      1.0  0.53812  0.52355  0.03797  1.0000
  F   F300      1.0  0.54339  0.52378  0.53548  1.0000
  F   F301      1.0  0.79685  0.01753  0.02319  1.0000
  F   F302      1.0  0.79432  0.03073  0.52022  1.0000
  F   F303      1.0  0.79442  0.52296  0.03466  1.0000
  F   F304      1.0  0.79629  0.52961  0.51463  1.0000
  F   F305      1.0  0.23968  0.42312  0.21573  1.0000
  F   F306      1.0  0.23782  0.41389  0.73220  1.0000
  F   F307      1.0  0.24088  0.91314  0.22763  1.0000
  F   F308      1.0  0.24058  0.89776  0.74073  1.0000
  F   F309      1.0  0.48222  0.41379  0.22389  1.0000
  F   F310      1.0  0.48357  0.40601  0.72720  1.0000
  F   F311      1.0  0.48749  0.90473  0.23058  1.0000
  F   F312      1.0  0.48011  0.92143  0.72073  1.0000
  F   F313      1.0  0.73464  0.41779  0.23263  1.0000
  F   F314      1.0  0.73951  0.41945  0.71272  1.0000
  F   F315      1.0  0.73225  0.90391  0.23023  1.0000
  F   F316      1.0  0.73259  0.93847  0.70261  1.0000
  F   F317      1.0  0.98614  0.41847  0.22220  1.0000
  F   F318      1.0  0.98749  0.42293  0.71364  1.0000
  F   F319      1.0  0.98669  0.89723  0.23795  1.0000
  F   F320      1.0  0.98324  0.92272  0.71390  1.0000
  F   F321      1.0  0.21048  0.47133  0.46307  1.0000
  F   F322      1.0  0.21449  0.47353  0.96728  1.0000
  F   F323      1.0  0.20089  0.96624  0.47925  1.0000
  F   F324      1.0  0.20397  0.98272  0.97432  1.0000
  F   F325      1.0  0.46770  0.46633  0.46219  1.0000
  F   F326      1.0  0.45935  0.47878  0.96592  1.0000
  F   F327      1.0  0.45555  0.96571  0.48805  1.0000
  F   F328      1.0  0.44621  0.97477  0.99369  1.0000
  F   F329      1.0  0.70223  0.46675  0.49232  1.0000
  F   F330      1.0  0.70614  0.46888  0.96839  1.0000
  F   F331      1.0  0.71017  0.95154  0.48523  1.0000
  F   F332      1.0  0.70487  0.97417  0.98537  1.0000
  F   F333      1.0  0.94927  0.46886  0.47849  1.0000
  F   F334      1.0  0.95401  0.46458  0.99465  1.0000
  F   F335      1.0  0.94670  0.96805  0.48337  1.0000
  F   F336      1.0  0.95447  0.97410  0.98919  1.0000
  F   F337      1.0  0.01566  0.08950  0.28842  1.0000
  F   F338      1.0  0.01460  0.08984  0.76112  1.0000
  F   F339      1.0  0.01442  0.58983  0.27232  1.0000
  F   F340      1.0  0.01589  0.57377  0.77811  1.0000
  F   F341      1.0  0.26016  0.08902  0.26897  1.0000
  F   F342      1.0  0.26388  0.12200  0.75603  1.0000
  F   F343      1.0  0.26359  0.59988  0.26135  1.0000
  F   F344      1.0  0.25974  0.60703  0.76829  1.0000
  F   F345      1.0  0.51772  0.07248  0.27545  1.0000
  F   F346      1.0  0.51989  0.05989  0.78987  1.0000
  F   F347      1.0  0.51479  0.57805  0.27466  1.0000
  F   F348      1.0  0.51420  0.59474  0.76717  1.0000
  F   F349      1.0  0.76849  0.07072  0.28194  1.0000
  F   F350      1.0  0.76522  0.10092  0.76710  1.0000
  F   F351      1.0  0.76426  0.57220  0.28349  1.0000
  F   F352      1.0  0.76705  0.61074  0.75277  1.0000
  F   F353      1.0  0.10156  0.37699  0.47780  1.0000
  F   F354      1.0  0.10022  0.39747  0.95688  1.0000
  F   F355      1.0  0.10037  0.92331  0.47499  1.0000
  F   F356      1.0  0.10709  0.91641  0.94230  1.0000
  F   F357      1.0  0.35051  0.41122  0.45888  1.0000
  F   F358      1.0  0.35186  0.41721  0.94991  1.0000
  F   F359      1.0  0.35277  0.93338  0.45532  1.0000
  F   F360      1.0  0.35031  0.92320  0.96535  1.0000
  F   F361      1.0  0.60403  0.40959  0.46164  1.0000
  F   F362      1.0  0.59875  0.42068  0.95242  1.0000
  F   F363      1.0  0.60761  0.91510  0.45889  1.0000
  F   F364      1.0  0.60158  0.89977  0.96380  1.0000
  F   F365      1.0  0.85052  0.40528  0.44964  1.0000
  F   F366      1.0  0.84955  0.39864  0.97224  1.0000
  F   F367      1.0  0.84953  0.92315  0.44769  1.0000
  F   F368      1.0  0.84942  0.89479  0.95869  1.0000
  F   F369      1.0  0.04308  0.29251  0.28469  1.0000
  F   F370      1.0  0.04129  0.30255  0.79590  1.0000
  F   F371      1.0  0.04445  0.79520  0.30550  1.0000
  F   F372      1.0  0.04003  0.80688  0.78969  1.0000
  F   F373      1.0  0.29682  0.29844  0.28565  1.0000
  F   F374      1.0  0.30006  0.29631  0.78413  1.0000
  F   F375      1.0  0.29952  0.78617  0.29088  1.0000
  F   F376      1.0  0.30549  0.79296  0.78890  1.0000
  F   F377      1.0  0.54505  0.29413  0.28187  1.0000
  F   F378      1.0  0.54897  0.28893  0.79373  1.0000
  F   F379      1.0  0.55470  0.79575  0.28343  1.0000
  F   F380      1.0  0.53898  0.80502  0.78522  1.0000
  F   F381      1.0  0.79219  0.28766  0.29098  1.0000
  F   F382      1.0  0.78821  0.29220  0.78897  1.0000
  F   F383      1.0  0.79392  0.79174  0.29441  1.0000
  F   F384      1.0  0.78730  0.79479  0.77717  1.0000
