data_image0
_chemical_formula_structural       Hf96F384
_chemical_formula_sum              "Hf96 F384"
_cell_length_a       31.0308
_cell_length_b       15.5117
_cell_length_c       15.5065
_cell_angle_alpha    63.342
_cell_angle_beta     63.342
_cell_angle_gamma    80.1625

_space_group_name_H-M_alt    "P 1"
_space_group_IT_number       1

loop_
  _space_group_symop_operation_xyz
  'x, y, z'

loop_
  _atom_site_type_symbol
  _atom_site_label
  _atom_site_symmetry_multiplicity
  _atom_site_fract_x
  _atom_site_fract_y
  _atom_site_fract_z
  _atom_site_occupancy
  Hf  Hf1       1.0  0.19603  0.10699  0.36720  1.0000
  Hf  Hf2       1.0  0.19645  0.10480  0.88077  1.0000
  Hf  Hf3       1.0  0.19343  0.60443  0.37639  1.0000
  Hf  Hf4       1.0  0.19343  0.60449  0.87640  1.0000
  Hf  Hf5       1.0  0.44379  0.10278  0.37769  1.0000
  Hf  Hf6       1.0  0.44761  0.11137  0.87870  1.0000
  Hf  Hf7       1.0  0.44487  0.61143  0.37420  1.0000
  Hf  Hf8       1.0  0.44522  0.60448  0.87855  1.0000
  Hf  Hf9       1.0  0.69424  0.10469  0.37814  1.0000
  Hf  Hf10      1.0  0.69722  0.10329  0.87898  1.0000
  Hf  Hf11      1.0  0.69510  0.60444  0.37830  1.0000
  Hf  Hf12      1.0  0.69414  0.60654  0.87639  1.0000
  Hf  Hf13      1.0  0.94684  0.10812  0.37389  1.0000
  Hf  Hf14      1.0  0.94916  0.11103  0.86460  1.0000
  Hf  Hf15      1.0  0.94533  0.60876  0.37230  1.0000
  Hf  Hf16      1.0  0.94368  0.60459  0.88042  1.0000
  Hf  Hf17      1.0  0.05481  0.39445  0.12259  1.0000
  Hf  Hf18      1.0  0.05310  0.40242  0.61243  1.0000
  Hf  Hf19      1.0  0.05679  0.89133  0.12294  1.0000
  Hf  Hf20      1.0  0.05016  0.89372  0.63422  1.0000
  Hf  Hf21      1.0  0.30913  0.39591  0.11820  1.0000
  Hf  Hf22      1.0  0.30449  0.39551  0.62373  1.0000
  Hf  Hf23      1.0  0.30548  0.89702  0.12419  1.0000
  Hf  Hf24      1.0  0.30183  0.88824  0.62685  1.0000
  Hf  Hf25      1.0  0.55269  0.39540  0.12471  1.0000
  Hf  Hf26      1.0  0.55408  0.39664  0.61577  1.0000
  Hf  Hf27      1.0  0.55236  0.89337  0.12383  1.0000
  Hf  Hf28      1.0  0.55358  0.89458  0.62037  1.0000
  Hf  Hf29      1.0  0.80732  0.39328  0.12057  1.0000
  Hf  Hf30      1.0  0.80084  0.39503  0.62872  1.0000
  Hf  Hf31      1.0  0.79882  0.88851  0.13075  1.0000
  Hf  Hf32      1.0  0.80163  0.90206  0.62286  1.0000
  Hf  Hf33      1.0  0.05587  0.17922  0.42293  1.0000
  Hf  Hf34      1.0  0.05739  0.18584  0.91058  1.0000
  Hf  Hf35      1.0  0.05056  0.68266  0.42490  1.0000
  Hf  Hf36      1.0  0.05465  0.67745  0.92100  1.0000
  Hf  Hf37      1.0  0.30593  0.18372  0.41570  1.0000
  Hf  Hf38      1.0  0.31026  0.18138  0.91165  1.0000
  Hf  Hf39      1.0  0.30770  0.67993  0.41387  1.0000
  Hf  Hf40      1.0  0.30784  0.68883  0.91286  1.0000
  Hf  Hf41      1.0  0.55347  0.17558  0.41948  1.0000
  Hf  Hf42      1.0  0.55880  0.18452  0.91276  1.0000
  Hf  Hf43      1.0  0.55396  0.68326  0.41643  1.0000
  Hf  Hf44      1.0  0.55521  0.68366  0.91798  1.0000
  Hf  Hf45      1.0  0.81178  0.18561  0.40679  1.0000
  Hf  Hf46      1.0  0.80657  0.18456  0.91708  1.0000
  Hf  Hf47      1.0  0.80704  0.68042  0.41791  1.0000
  Hf  Hf48      1.0  0.80401  0.69024  0.91318  1.0000
  Hf  Hf49      1.0  0.16311  0.39290  0.32184  1.0000
  Hf  Hf50      1.0  0.15757  0.38438  0.83972  1.0000
  Hf  Hf51      1.0  0.16026  0.88537  0.33549  1.0000
  Hf  Hf52      1.0  0.16106  0.88781  0.83226  1.0000
  Hf  Hf53      1.0  0.40922  0.38633  0.32868  1.0000
  Hf  Hf54      1.0  0.41039  0.38859  0.82477  1.0000
  Hf  Hf55      1.0  0.41076  0.88588  0.33464  1.0000
  Hf  Hf56      1.0  0.41143  0.89035  0.83376  1.0000
  Hf  Hf57      1.0  0.65921  0.38777  0.33105  1.0000
  Hf  Hf58      1.0  0.66096  0.38996  0.83464  1.0000
  Hf  Hf59      1.0  0.65809  0.88360  0.33483  1.0000
  Hf  Hf60      1.0  0.65850  0.89110  0.82879  1.0000
  Hf  Hf61      1.0  0.91106  0.39036  0.33223  1.0000
  Hf  Hf62      1.0  0.90858  0.39160  0.83247  1.0000
  Hf  Hf63      1.0  0.91107  0.89230  0.32656  1.0000
  Hf  Hf64      1.0  0.90616  0.88919  0.83978  1.0000
  Hf  Hf65      1.0  0.19912  0.31664  0.08174  1.0000
  Hf  Hf66      1.0  0.19568  0.31905  0.58286  1.0000
  Hf  Hf67      1.0  0.19620  0.81100  0.08741  1.0000
  Hf  Hf68      1.0  0.19428  0.81557  0.58402  1.0000
  Hf  Hf69      1.0  0.44548  0.31672  0.08131  1.0000
  Hf  Hf70      1.0  0.44531  0.32276  0.57048  1.0000
  Hf  Hf71      1.0  0.44333  0.81518  0.08899  1.0000
  Hf  Hf72      1.0  0.44093  0.81100  0.59516  1.0000
  Hf  Hf73      1.0  0.69337  0.30839  0.09270  1.0000
  Hf  Hf74      1.0  0.69386  0.31461  0.58284  1.0000
  Hf  Hf75      1.0  0.68870  0.81431  0.08789  1.0000
  Hf  Hf76      1.0  0.69449  0.81875  0.57841  1.0000
  Hf  Hf77      1.0  0.94524  0.32064  0.07997  1.0000
  Hf  Hf78      1.0  0.94110  0.31171  0.58239  1.0000
  Hf  Hf79      1.0  0.94410  0.82148  0.08368  1.0000
  Hf  Hf80      1.0  0.94124  0.81837  0.58923  1.0000
  Hf  Hf81      1.0  0.09344  0.11585  0.16718  1.0000
  Hf  Hf82      1.0  0.09489  0.12188  0.65295  1.0000
  Hf  Hf83      1.0  0.09200  0.61817  0.16571  1.0000
  Hf  Hf84      1.0  0.09326  0.60631  0.67107  1.0000
  Hf  Hf85      1.0  0.34394  0.11099  0.17065  1.0000
  Hf  Hf86      1.0  0.34207  0.11078  0.66312  1.0000
  Hf  Hf87      1.0  0.33965  0.60850  0.17266  1.0000
  Hf  Hf88      1.0  0.34032  0.60969  0.67179  1.0000
  Hf  Hf89      1.0  0.58976  0.10929  0.16887  1.0000
  Hf  Hf90      1.0  0.59046  0.11354  0.66829  1.0000
  Hf  Hf91      1.0  0.58950  0.60797  0.17402  1.0000
  Hf  Hf92      1.0  0.58842  0.60429  0.68011  1.0000
  Hf  Hf93      1.0  0.84160  0.10897  0.16536  1.0000
  Hf  Hf94      1.0  0.83908  0.11216  0.66936  1.0000
  Hf  Hf95      1.0  0.83707  0.60991  0.17058  1.0000
  Hf  Hf96      1.0  0.83759  0.61946  0.66845  1.0000
  F   F1        1.0  0.08542  0.13772  0.29556  1.0000
  F   F2        1.0  0.07604  0.12817  0.79995  1.0000
  F   F3        1.0  0.07981  0.62829  0.30552  1.0000
  F   F4        1.0  0.08401  0.63385  0.79658  1.0000
  F   F5        1.0  0.32717  0.11391  0.31390  1.0000
  F   F6        1.0  0.33908  0.13567  0.78606  1.0000
  F   F7        1.0  0.32671  0.61404  0.31493  1.0000
  F   F8        1.0  0.32981  0.61766  0.81225  1.0000
  F   F9        1.0  0.57129  0.12076  0.31008  1.0000
  F   F10       1.0  0.57901  0.12240  0.81481  1.0000
  F   F11       1.0  0.58245  0.63478  0.29895  1.0000
  F   F12       1.0  0.57980  0.60685  0.82358  1.0000
  F   F13       1.0  0.82995  0.12867  0.29836  1.0000
  F   F14       1.0  0.82903  0.13593  0.80027  1.0000
  F   F15       1.0  0.82435  0.62393  0.30453  1.0000
  F   F16       1.0  0.82538  0.63892  0.80198  1.0000
  F   F17       1.0  0.18601  0.33214  0.44301  1.0000
  F   F18       1.0  0.19085  0.35054  0.93489  1.0000
  F   F19       1.0  0.19175  0.83928  0.43857  1.0000
  F   F20       1.0  0.18469  0.83757  0.95494  1.0000
  F   F21       1.0  0.44394  0.35044  0.43073  1.0000
  F   F22       1.0  0.43860  0.34380  0.94737  1.0000
  F   F23       1.0  0.43294  0.83272  0.45292  1.0000
  F   F24       1.0  0.44261  0.84013  0.94422  1.0000
  F   F25       1.0  0.68364  0.34129  0.45337  1.0000
  F   F26       1.0  0.68594  0.36066  0.94156  1.0000
  F   F27       1.0  0.69128  0.83856  0.44046  1.0000
  F   F28       1.0  0.67644  0.84290  0.94786  1.0000
  F   F29       1.0  0.94557  0.35541  0.43444  1.0000
  F   F30       1.0  0.93704  0.33282  0.93673  1.0000
  F   F31       1.0  0.93941  0.83443  0.44451  1.0000
  F   F32       1.0  0.92668  0.84201  0.96564  1.0000
  F   F33       1.0  0.17043  0.37578  0.19473  1.0000
  F   F34       1.0  0.17158  0.37160  0.69742  1.0000
  F   F35       1.0  0.17612  0.87634  0.19829  1.0000
  F   F36       1.0  0.17423  0.85150  0.70489  1.0000
  F   F37       1.0  0.42171  0.36794  0.18957  1.0000
  F   F38       1.0  0.42143  0.37608  0.68630  1.0000
  F   F39       1.0  0.42175  0.87445  0.19313  1.0000
  F   F40       1.0  0.42848  0.87557  0.69244  1.0000
  F   F41       1.0  0.67235  0.36989  0.19942  1.0000
  F   F42       1.0  0.67576  0.37263  0.69321  1.0000
  F   F43       1.0  0.66695  0.86950  0.19589  1.0000
  F   F44       1.0  0.67285  0.86742  0.70120  1.0000
  F   F45       1.0  0.92076  0.37092  0.19690  1.0000
  F   F46       1.0  0.91770  0.36549  0.69805  1.0000
  F   F47       1.0  0.91675  0.87591  0.19581  1.0000
  F   F48       1.0  0.92368  0.88065  0.69674  1.0000
  F   F49       1.0  0.07133  0.17006  0.04573  1.0000
  F   F50       1.0  0.06111  0.15171  0.55719  1.0000
  F   F51       1.0  0.06298  0.65392  0.05444  1.0000
  F   F52       1.0  0.06489  0.66153  0.55593  1.0000
  F   F53       1.0  0.32112  0.15220  0.05124  1.0000
  F   F54       1.0  0.31969  0.17406  0.54306  1.0000
  F   F55       1.0  0.32249  0.66775  0.04769  1.0000
  F   F56       1.0  0.32471  0.66095  0.54410  1.0000
  F   F57       1.0  0.56742  0.15800  0.04470  1.0000
  F   F58       1.0  0.56776  0.15022  0.55448  1.0000
  F   F59       1.0  0.56227  0.64725  0.06225  1.0000
  F   F60       1.0  0.55637  0.65606  0.55891  1.0000
  F   F61       1.0  0.81263  0.16190  0.05150  1.0000
  F   F62       1.0  0.82106  0.16477  0.54878  1.0000
  F   F63       1.0  0.81614  0.65774  0.05346  1.0000
  F   F64       1.0  0.80440  0.65077  0.56287  1.0000
  F   F65       1.0  0.19967  0.20814  0.21236  1.0000
  F   F66       1.0  0.20867  0.21352  0.71087  1.0000
  F   F67       1.0  0.21244  0.70871  0.20414  1.0000
  F   F68       1.0  0.19955  0.69967  0.72279  1.0000
  F   F69       1.0  0.45404  0.19478  0.22334  1.0000
  F   F70       1.0  0.44673  0.20923  0.69963  1.0000
  F   F71       1.0  0.45316  0.69254  0.21467  1.0000
  F   F72       1.0  0.44722  0.69702  0.72006  1.0000
  F   F73       1.0  0.69477  0.19468  0.22394  1.0000
  F   F74       1.0  0.70991  0.19366  0.71767  1.0000
  F   F75       1.0  0.69541  0.70797  0.21111  1.0000
  F   F76       1.0  0.70227  0.69446  0.70707  1.0000
  F   F77       1.0  0.96055  0.20527  0.20907  1.0000
  F   F78       1.0  0.94832  0.19775  0.70922  1.0000
  F   F79       1.0  0.95251  0.70003  0.21189  1.0000
  F   F80       1.0  0.96217  0.71578  0.71292  1.0000
  F   F81       1.0  0.15189  0.07756  0.03884  1.0000
  F   F82       1.0  0.15108  0.10848  0.52548  1.0000
  F   F83       1.0  0.14965  0.60489  0.03633  1.0000
  F   F84       1.0  0.15050  0.59090  0.54439  1.0000
  F   F85       1.0  0.40336  0.11101  0.03078  1.0000
  F   F86       1.0  0.40416  0.08112  0.53941  1.0000
  F   F87       1.0  0.40003  0.57405  0.05330  1.0000
  F   F88       1.0  0.39700  0.58507  0.53423  1.0000
  F   F89       1.0  0.64706  0.10323  0.03879  1.0000
  F   F90       1.0  0.64624  0.08630  0.54247  1.0000
  F   F91       1.0  0.64753  0.59252  0.03182  1.0000
  F   F92       1.0  0.64708  0.59456  0.54282  1.0000
  F   F93       1.0  0.89664  0.08975  0.04707  1.0000
  F   F94       1.0  0.90051  0.08373  0.54229  1.0000
  F   F95       1.0  0.89728  0.56786  0.04386  1.0000
  F   F96       1.0  0.89716  0.61136  0.54174  1.0000
  F   F97       1.0  0.15602  0.19749  0.10563  1.0000
  F   F98       1.0  0.15261  0.20046  0.63345  1.0000
  F   F99       1.0  0.15284  0.69665  0.13147  1.0000
  F   F100      1.0  0.15030  0.70282  0.61906  1.0000
  F   F101      1.0  0.39979  0.20165  0.13466  1.0000
  F   F102      1.0  0.40233  0.20594  0.59380  1.0000
  F   F103      1.0  0.39425  0.69979  0.13335  1.0000
  F   F104      1.0  0.39771  0.69857  0.62125  1.0000
  F   F105      1.0  0.64869  0.20796  0.10717  1.0000
  F   F106      1.0  0.65646  0.18321  0.63576  1.0000
  F   F107      1.0  0.65617  0.69171  0.11357  1.0000
  F   F108      1.0  0.64763  0.70765  0.61880  1.0000
  F   F109      1.0  0.90349  0.19700  0.13395  1.0000
  F   F110      1.0  0.89707  0.20218  0.61214  1.0000
  F   F111      1.0  0.89520  0.68764  0.12241  1.0000
  F   F112      1.0  0.90075  0.69173  0.64820  1.0000
  F   F113      1.0  0.10099  0.29702  0.37456  1.0000
  F   F114      1.0  0.09885  0.30193  0.87523  1.0000
  F   F115      1.0  0.09836  0.79520  0.37080  1.0000
  F   F116      1.0  0.09861  0.79852  0.90064  1.0000
  F   F117      1.0  0.34945  0.30509  0.36121  1.0000
  F   F118      1.0  0.34818  0.31411  0.87794  1.0000
  F   F119      1.0  0.35174  0.80921  0.37455  1.0000
  F   F120      1.0  0.35539  0.79860  0.85554  1.0000
  F   F121      1.0  0.59991  0.29358  0.36732  1.0000
  F   F122      1.0  0.59873  0.30607  0.86035  1.0000
  F   F123      1.0  0.60379  0.78242  0.39030  1.0000
  F   F124      1.0  0.60041  0.78977  0.89510  1.0000
  F   F125      1.0  0.84629  0.30906  0.36686  1.0000
  F   F126      1.0  0.85296  0.29946  0.87745  1.0000
  F   F127      1.0  0.84574  0.79575  0.38238  1.0000
  F   F128      1.0  0.84412  0.81367  0.86034  1.0000
  F   F129      1.0  0.05455  0.25400  0.15588  1.0000
  F   F130      1.0  0.06870  0.25501  0.62337  1.0000
  F   F131      1.0  0.06656  0.75505  0.12423  1.0000
  F   F132      1.0  0.06628  0.75457  0.64214  1.0000
  F   F133      1.0  0.32183  0.25401  0.13639  1.0000
  F   F134      1.0  0.30359  0.25549  0.65239  1.0000
  F   F135      1.0  0.30606  0.75681  0.15427  1.0000
  F   F136      1.0  0.31405  0.74877  0.63658  1.0000
  F   F137      1.0  0.56707  0.24856  0.14187  1.0000
  F   F138      1.0  0.56317  0.24451  0.64451  1.0000
  F   F139      1.0  0.55835  0.75099  0.14054  1.0000
  F   F140      1.0  0.56452  0.75231  0.64946  1.0000
  F   F141      1.0  0.82316  0.26449  0.10949  1.0000
  F   F142      1.0  0.80451  0.25465  0.65625  1.0000
  F   F143      1.0  0.80566  0.73976  0.16034  1.0000
  F   F144      1.0  0.82039  0.75720  0.63110  1.0000
  F   F145      1.0  0.12583  0.35122  0.11606  1.0000
  F   F146      1.0  0.12470  0.38905  0.58984  1.0000
  F   F147      1.0  0.12625  0.86216  0.11173  1.0000
  F   F148      1.0  0.12439  0.87880  0.60802  1.0000
  F   F149      1.0  0.37656  0.37032  0.10986  1.0000
  F   F150      1.0  0.37264  0.37635  0.60353  1.0000
  F   F151      1.0  0.37238  0.86599  0.10862  1.0000
  F   F152      1.0  0.37097  0.86117  0.61690  1.0000
  F   F153      1.0  0.62378  0.37251  0.11425  1.0000
  F   F154      1.0  0.62415  0.34847  0.62442  1.0000
  F   F155      1.0  0.62338  0.87801  0.10305  1.0000
  F   F156      1.0  0.62599  0.86742  0.61248  1.0000
  F   F157      1.0  0.87971  0.37662  0.08639  1.0000
  F   F158      1.0  0.87005  0.35683  0.62169  1.0000
  F   F159      1.0  0.86923  0.86800  0.11571  1.0000
  F   F160      1.0  0.87113  0.86245  0.62487  1.0000
  F   F161      1.0  0.18798  0.25539  0.34026  1.0000
  F   F162      1.0  0.18126  0.23911  0.87009  1.0000
  F   F163      1.0  0.18053  0.74337  0.36347  1.0000
  F   F164      1.0  0.18791  0.75097  0.85687  1.0000
  F   F165      1.0  0.42564  0.24369  0.37389  1.0000
  F   F166      1.0  0.43735  0.25667  0.85024  1.0000
  F   F167      1.0  0.44007  0.75072  0.35342  1.0000
  F   F168      1.0  0.43767  0.75203  0.85550  1.0000
  F   F169      1.0  0.67649  0.24681  0.36999  1.0000
  F   F170      1.0  0.69214  0.25406  0.84844  1.0000
  F   F171      1.0  0.68621  0.74614  0.35888  1.0000
  F   F172      1.0  0.69010  0.74814  0.84659  1.0000
  F   F173      1.0  0.93029  0.24667  0.36680  1.0000
  F   F174      1.0  0.93930  0.24327  0.84712  1.0000
  F   F175      1.0  0.93147  0.74725  0.36156  1.0000
  F   F176      1.0  0.93059  0.74711  0.87541  1.0000
  F   F177      1.0  0.12594  0.11456  0.40065  1.0000
  F   F178      1.0  0.12377  0.12725  0.88257  1.0000
  F   F179      1.0  0.12474  0.61031  0.40279  1.0000
  F   F180      1.0  0.12320  0.63023  0.89793  1.0000
  F   F181      1.0  0.37334  0.12037  0.39572  1.0000
  F   F182      1.0  0.37899  0.12966  0.88673  1.0000
  F   F183      1.0  0.37624  0.63338  0.38463  1.0000
  F   F184      1.0  0.37745  0.61292  0.89825  1.0000
  F   F185      1.0  0.62186  0.12656  0.38957  1.0000
  F   F186      1.0  0.62930  0.13382  0.88898  1.0000
  F   F187      1.0  0.62208  0.61873  0.40665  1.0000
  F   F188      1.0  0.62348  0.63194  0.88794  1.0000
  F   F189      1.0  0.87827  0.12871  0.38243  1.0000
  F   F190      1.0  0.87385  0.10932  0.89970  1.0000
  F   F191      1.0  0.87677  0.62521  0.38807  1.0000
  F   F192      1.0  0.87604  0.64600  0.87831  1.0000
  F   F193      1.0  0.01044  0.37872  0.06231  1.0000
  F   F194      1.0  0.00425  0.36817  0.57067  1.0000
  F   F195      1.0  0.00341  0.87284  0.06522  1.0000
  F   F196      1.0  0.00850  0.86914  0.57622  1.0000
  F   F197      1.0  0.26343  0.36783  0.06005  1.0000
  F   F198      1.0  0.25631  0.38068  0.55623  1.0000
  F   F199      1.0  0.26217  0.86802  0.06870  1.0000
  F   F200      1.0  0.25537  0.86619  0.57193  1.0000
  F   F201      1.0  0.51077  0.35910  0.07786  1.0000
  F   F202      1.0  0.50619  0.36031  0.56539  1.0000
  F   F203      1.0  0.50417  0.86035  0.07194  1.0000
  F   F204      1.0  0.51238  0.86187  0.56587  1.0000
  F   F205      1.0  0.75582  0.36104  0.08609  1.0000
  F   F206      1.0  0.75633  0.36633  0.56621  1.0000
  F   F207      1.0  0.75449  0.85168  0.08283  1.0000
  F   F208      1.0  0.75866  0.86032  0.58424  1.0000
  F   F209      1.0  0.07605  0.48443  0.15530  1.0000
  F   F210      1.0  0.06382  0.48372  0.68259  1.0000
  F   F211      1.0  0.06482  0.99025  0.17664  1.0000
  F   F212      1.0  0.06964  0.99322  0.66647  1.0000
  F   F213      1.0  0.31756  0.48107  0.18876  1.0000
  F   F214      1.0  0.30904  0.49446  0.67732  1.0000
  F   F215      1.0  0.32109  0.99005  0.16814  1.0000
  F   F216      1.0  0.32153  0.98794  0.67091  1.0000
  F   F217      1.0  0.55994  0.47705  0.20079  1.0000
  F   F218      1.0  0.57520  0.47416  0.67264  1.0000
  F   F219      1.0  0.56784  0.97615  0.18006  1.0000
  F   F220      1.0  0.56270  0.98477  0.69210  1.0000
  F   F221      1.0  0.82235  0.47865  0.17094  1.0000
  F   F222      1.0  0.82025  0.48523  0.67711  1.0000
  F   F223      1.0  0.81213  0.97888  0.18881  1.0000
  F   F224      1.0  0.81930  0.98610  0.67024  1.0000
  F   F225      1.0  0.24254  0.13305  0.42214  1.0000
  F   F226      1.0  0.24744  0.14116  0.92432  1.0000
  F   F227      1.0  0.23831  0.63484  0.42880  1.0000
  F   F228      1.0  0.24372  0.64948  0.93284  1.0000
  F   F229      1.0  0.49046  0.13404  0.42501  1.0000
  F   F230      1.0  0.48939  0.13612  0.93607  1.0000
  F   F231      1.0  0.48892  0.63900  0.43338  1.0000
  F   F232      1.0  0.49541  0.63694  0.90961  1.0000
  F   F233      1.0  0.73892  0.12965  0.42973  1.0000
  F   F234      1.0  0.74287  0.12089  0.94115  1.0000
  F   F235      1.0  0.73893  0.63156  0.43442  1.0000
  F   F236      1.0  0.74133  0.63659  0.93712  1.0000
  F   F237      1.0  0.98713  0.13159  0.43089  1.0000
  F   F238      1.0  0.99291  0.15539  0.91285  1.0000
  F   F239      1.0  0.99088  0.65431  0.41402  1.0000
  F   F240      1.0  0.99208  0.64751  0.92213  1.0000
  F   F241      1.0  0.18703  0.00821  0.31771  1.0000
  F   F242      1.0  0.17761  0.01509  0.83161  1.0000
  F   F243      1.0  0.18516  0.51125  0.30821  1.0000
  F   F244      1.0  0.18402  0.51940  0.81503  1.0000
  F   F245      1.0  0.42833  0.00972  0.33086  1.0000
  F   F246      1.0  0.43950  0.00662  0.82668  1.0000
  F   F247      1.0  0.42784  0.50544  0.33595  1.0000
  F   F248      1.0  0.43809  0.50873  0.81769  1.0000
  F   F249      1.0  0.67664  0.01308  0.33326  1.0000
  F   F250      1.0  0.68100  0.01904  0.82262  1.0000
  F   F251      1.0  0.67135  0.51168  0.33344  1.0000
  F   F252      1.0  0.68027  0.51872  0.81977  1.0000
  F   F253      1.0  0.94348  0.00728  0.31274  1.0000
  F   F254      1.0  0.93247  0.02330  0.80821  1.0000
  F   F255      1.0  0.93818  0.51590  0.31553  1.0000
  F   F256      1.0  0.92875  0.51114  0.83353  1.0000
  F   F257      1.0  0.00847  0.27464  0.97753  1.0000
  F   F258      1.0  0.99888  0.23897  0.50289  1.0000
  F   F259      1.0  0.99541  0.75021  0.00695  1.0000
  F   F260      1.0  0.99869  0.73842  0.51377  1.0000
  F   F261      1.0  0.25390  0.23770  0.00848  1.0000
  F   F262      1.0  0.24459  0.23314  0.51512  1.0000
  F   F263      1.0  0.25245  0.75138  0.00394  1.0000
  F   F264      1.0  0.25118  0.73044  0.51676  1.0000
  F   F265      1.0  0.49853  0.23560  0.01216  1.0000
  F   F266      1.0  0.49801  0.21967  0.51644  1.0000
  F   F267      1.0  0.50067  0.74695  0.00903  1.0000
  F   F268      1.0  0.49364  0.74884  0.49882  1.0000
  F   F269      1.0  0.74637  0.23601  0.01498  1.0000
  F   F270      1.0  0.75313  0.24852  0.49190  1.0000
  F   F271      1.0  0.74767  0.76063  0.99607  1.0000
  F   F272      1.0  0.75691  0.76619  0.49051  1.0000
  F   F273      1.0  0.12103  0.99851  0.25172  1.0000
  F   F274      1.0  0.12621  0.98460  0.75294  1.0000
  F   F275      1.0  0.12192  0.49416  0.24477  1.0000
  F   F276      1.0  0.12800  0.49626  0.75009  1.0000
  F   F277      1.0  0.37954  0.00367  0.24368  1.0000
  F   F278      1.0  0.37437  0.00025  0.75115  1.0000
  F   F279      1.0  0.37825  0.50454  0.24173  1.0000
  F   F280      1.0  0.38056  0.50053  0.74029  1.0000
  F   F281      1.0  0.63143  0.01345  0.23962  1.0000
  F   F282      1.0  0.61787  0.99563  0.76159  1.0000
  F   F283      1.0  0.61428  0.49196  0.26263  1.0000
  F   F284      1.0  0.62805  0.50049  0.74808  1.0000
  F   F285      1.0  0.87730  0.00409  0.25887  1.0000
  F   F286      1.0  0.87625  0.99674  0.75122  1.0000
  F   F287      1.0  0.87984  0.50685  0.25077  1.0000
  F   F288      1.0  0.87557  0.50652  0.74942  1.0000
  F   F289      1.0  0.03794  0.04462  0.02778  1.0000
  F   F290      1.0  0.04038  0.03016  0.51927  1.0000
  F   F291      1.0  0.04384  0.52963  0.01381  1.0000
  F   F292      1.0  0.04048  0.54065  0.51799  1.0000
  F   F293      1.0  0.29413  0.03629  0.02082  1.0000
  F   F294      1.0  0.28909  0.03700  0.52547  1.0000
  F   F295      1.0  0.29249  0.53808  0.02564  1.0000
  F   F296      1.0  0.29412  0.53535  0.52617  1.0000
  F   F297      1.0  0.54052  0.02758  0.03353  1.0000
  F   F298      1.0  0.54455  0.03067  0.51491  1.0000
  F   F299      1.0  0.53879  0.53525  0.02724  1.0000
  F   F300      1.0  0.53706  0.53085  0.51970  1.0000
  F   F301      1.0  0.79219  0.02338  0.03182  1.0000
  F   F302      1.0  0.79210  0.04095  0.52809  1.0000
  F   F303      1.0  0.79722  0.53028  0.01827  1.0000
  F   F304      1.0  0.80063  0.52627  0.50956  1.0000
  F   F305      1.0  0.23657  0.41250  0.21710  1.0000
  F   F306      1.0  0.23490  0.41154  0.72643  1.0000
  F   F307      1.0  0.23946  0.91711  0.22739  1.0000
  F   F308      1.0  0.23851  0.91086  0.72831  1.0000
  F   F309      1.0  0.48142  0.40609  0.22948  1.0000
  F   F310      1.0  0.48731  0.40557  0.71941  1.0000
  F   F311      1.0  0.48385  0.91719  0.22768  1.0000
  F   F312      1.0  0.48957  0.91793  0.72099  1.0000
  F   F313      1.0  0.73438  0.39935  0.23537  1.0000
  F   F314      1.0  0.73531  0.42594  0.72156  1.0000
  F   F315      1.0  0.73105  0.92280  0.22484  1.0000
  F   F316      1.0  0.73327  0.93277  0.71677  1.0000
  F   F317      1.0  0.98612  0.40509  0.22456  1.0000
  F   F318      1.0  0.98452  0.42261  0.72024  1.0000
  F   F319      1.0  0.98471  0.90323  0.22425  1.0000
  F   F320      1.0  0.98383  0.91826  0.73796  1.0000
  F   F321      1.0  0.20227  0.46648  0.47292  1.0000
  F   F322      1.0  0.20316  0.47898  0.97606  1.0000
  F   F323      1.0  0.20171  0.96759  0.48022  1.0000
  F   F324      1.0  0.20808  0.96649  0.98206  1.0000
  F   F325      1.0  0.46281  0.47595  0.45887  1.0000
  F   F326      1.0  0.46193  0.46917  0.97259  1.0000
  F   F327      1.0  0.45930  0.95961  0.47584  1.0000
  F   F328      1.0  0.45196  0.97716  0.98241  1.0000
  F   F329      1.0  0.70447  0.46919  0.47342  1.0000
  F   F330      1.0  0.71088  0.47041  0.98188  1.0000
  F   F331      1.0  0.71543  0.95974  0.47321  1.0000
  F   F332      1.0  0.69682  0.96577  0.99407  1.0000
  F   F333      1.0  0.94749  0.47996  0.48653  1.0000
  F   F334      1.0  0.96009  0.47017  0.96597  1.0000
  F   F335      1.0  0.95758  0.96701  0.47837  1.0000
  F   F336      1.0  0.95420  0.98179  0.96938  1.0000
  F   F337      1.0  0.02116  0.09356  0.27339  1.0000
  F   F338      1.0  0.01667  0.08789  0.77069  1.0000
  F   F339      1.0  0.01682  0.59162  0.27589  1.0000
  F   F340      1.0  0.01508  0.58213  0.78556  1.0000
  F   F341      1.0  0.26400  0.09508  0.26391  1.0000
  F   F342      1.0  0.26511  0.07625  0.77927  1.0000
  F   F343      1.0  0.26455  0.58305  0.27655  1.0000
  F   F344      1.0  0.26580  0.60028  0.76991  1.0000
  F   F345      1.0  0.51333  0.07741  0.26663  1.0000
  F   F346      1.0  0.51161  0.08939  0.77842  1.0000
  F   F347      1.0  0.51340  0.59935  0.28013  1.0000
  F   F348      1.0  0.51733  0.60012  0.76346  1.0000
  F   F349      1.0  0.76248  0.10846  0.26043  1.0000
  F   F350      1.0  0.76666  0.06931  0.79467  1.0000
  F   F351      1.0  0.75908  0.57019  0.26760  1.0000
  F   F352      1.0  0.76397  0.58098  0.78275  1.0000
  F   F353      1.0  0.10214  0.41504  0.44961  1.0000
  F   F354      1.0  0.10405  0.41104  0.96603  1.0000
  F   F355      1.0  0.10476  0.90386  0.46302  1.0000
  F   F356      1.0  0.10430  0.91918  0.97123  1.0000
  F   F357      1.0  0.34982  0.40543  0.46556  1.0000
  F   F358      1.0  0.35371  0.41392  0.95782  1.0000
  F   F359      1.0  0.35076  0.89783  0.46575  1.0000
  F   F360      1.0  0.35148  0.90149  0.96300  1.0000
  F   F361      1.0  0.59446  0.40111  0.46036  1.0000
  F   F362      1.0  0.60137  0.41003  0.95645  1.0000
  F   F363      1.0  0.60283  0.89419  0.46955  1.0000
  F   F364      1.0  0.59371  0.91884  0.95931  1.0000
  F   F365      1.0  0.85636  0.39419  0.46541  1.0000
  F   F366      1.0  0.85019  0.42475  0.94145  1.0000
  F   F367      1.0  0.85718  0.92038  0.46472  1.0000
  F   F368      1.0  0.84954  0.91070  0.96151  1.0000
  F   F369      1.0  0.04520  0.29344  0.30001  1.0000
  F   F370      1.0  0.05646  0.30375  0.76729  1.0000
  F   F371      1.0  0.04305  0.79669  0.28068  1.0000
  F   F372      1.0  0.05278  0.80268  0.79498  1.0000
  F   F373      1.0  0.30009  0.29490  0.27919  1.0000
  F   F374      1.0  0.30112  0.30734  0.78843  1.0000
  F   F375      1.0  0.29198  0.78526  0.30159  1.0000
  F   F376      1.0  0.30382  0.79411  0.77430  1.0000
  F   F377      1.0  0.54294  0.29531  0.29040  1.0000
  F   F378      1.0  0.54744  0.29738  0.78467  1.0000
  F   F379      1.0  0.54550  0.80781  0.29122  1.0000
  F   F380      1.0  0.54771  0.80772  0.80272  1.0000
  F   F381      1.0  0.80282  0.30383  0.26774  1.0000
  F   F382      1.0  0.79106  0.30753  0.79349  1.0000
  F   F383      1.0  0.79986  0.79304  0.29511  1.0000
  F   F384      1.0  0.78826  0.80815  0.78220  1.0000
