data_image0
_chemical_formula_structural       Hf96F384
_chemical_formula_sum              "Hf96 F384"
_cell_length_a       31.0345
_cell_length_b       15.5178
_cell_length_c       15.5108
_cell_angle_alpha    63.342
_cell_angle_beta     63.342
_cell_angle_gamma    80.1625

_space_group_name_H-M_alt    "P 1"
_space_group_IT_number       1

loop_
  _space_group_symop_operation_xyz
  'x, y, z'

loop_
  _atom_site_type_symbol
  _atom_site_label
  _atom_site_symmetry_multiplicity
  _atom_site_fract_x
  _atom_site_fract_y
  _atom_site_fract_z
  _atom_site_occupancy
  Hf  Hf1       1.0  0.19363  0.09947  0.38008  1.0000
  Hf  Hf2       1.0  0.19851  0.09697  0.87255  1.0000
  Hf  Hf3       1.0  0.19666  0.60583  0.37552  1.0000
  Hf  Hf4       1.0  0.19268  0.59564  0.88023  1.0000
  Hf  Hf5       1.0  0.44727  0.11487  0.36954  1.0000
  Hf  Hf6       1.0  0.44520  0.10647  0.87944  1.0000
  Hf  Hf7       1.0  0.44745  0.61115  0.36711  1.0000
  Hf  Hf8       1.0  0.44954  0.60212  0.87133  1.0000
  Hf  Hf9       1.0  0.69656  0.11163  0.37364  1.0000
  Hf  Hf10      1.0  0.69431  0.11173  0.87462  1.0000
  Hf  Hf11      1.0  0.69599  0.60923  0.37589  1.0000
  Hf  Hf12      1.0  0.69741  0.61017  0.88550  1.0000
  Hf  Hf13      1.0  0.94778  0.11015  0.37183  1.0000
  Hf  Hf14      1.0  0.94452  0.10637  0.88258  1.0000
  Hf  Hf15      1.0  0.94408  0.61101  0.37877  1.0000
  Hf  Hf16      1.0  0.95184  0.60502  0.87222  1.0000
  Hf  Hf17      1.0  0.05077  0.38868  0.13829  1.0000
  Hf  Hf18      1.0  0.05287  0.39112  0.63200  1.0000
  Hf  Hf19      1.0  0.05011  0.88483  0.13198  1.0000
  Hf  Hf20      1.0  0.05374  0.88146  0.63234  1.0000
  Hf  Hf21      1.0  0.30301  0.39370  0.11900  1.0000
  Hf  Hf22      1.0  0.30480  0.38571  0.62632  1.0000
  Hf  Hf23      1.0  0.30496  0.88693  0.12089  1.0000
  Hf  Hf24      1.0  0.30115  0.89376  0.62278  1.0000
  Hf  Hf25      1.0  0.55629  0.39865  0.11526  1.0000
  Hf  Hf26      1.0  0.55283  0.39317  0.62425  1.0000
  Hf  Hf27      1.0  0.55552  0.88991  0.12613  1.0000
  Hf  Hf28      1.0  0.55494  0.89775  0.62204  1.0000
  Hf  Hf29      1.0  0.79800  0.39844  0.14214  1.0000
  Hf  Hf30      1.0  0.79986  0.39734  0.62365  1.0000
  Hf  Hf31      1.0  0.80586  0.89700  0.11092  1.0000
  Hf  Hf32      1.0  0.80747  0.89966  0.61814  1.0000
  Hf  Hf33      1.0  0.05493  0.18746  0.42268  1.0000
  Hf  Hf34      1.0  0.05931  0.17774  0.91968  1.0000
  Hf  Hf35      1.0  0.05712  0.68184  0.41829  1.0000
  Hf  Hf36      1.0  0.05674  0.66850  0.92525  1.0000
  Hf  Hf37      1.0  0.29985  0.17676  0.42160  1.0000
  Hf  Hf38      1.0  0.30452  0.17394  0.91691  1.0000
  Hf  Hf39      1.0  0.30862  0.67524  0.42101  1.0000
  Hf  Hf40      1.0  0.30391  0.67886  0.91585  1.0000
  Hf  Hf41      1.0  0.55870  0.18780  0.41081  1.0000
  Hf  Hf42      1.0  0.55767  0.18233  0.91294  1.0000
  Hf  Hf43      1.0  0.55560  0.67831  0.41777  1.0000
  Hf  Hf44      1.0  0.55893  0.69378  0.91100  1.0000
  Hf  Hf45      1.0  0.80750  0.18869  0.41286  1.0000
  Hf  Hf46      1.0  0.80304  0.19613  0.91366  1.0000
  Hf  Hf47      1.0  0.80245  0.68289  0.42247  1.0000
  Hf  Hf48      1.0  0.81069  0.68187  0.91140  1.0000
  Hf  Hf49      1.0  0.16074  0.38350  0.33083  1.0000
  Hf  Hf50      1.0  0.15546  0.38115  0.84659  1.0000
  Hf  Hf51      1.0  0.15756  0.87959  0.34108  1.0000
  Hf  Hf52      1.0  0.15807  0.88319  0.83537  1.0000
  Hf  Hf53      1.0  0.41114  0.39795  0.32623  1.0000
  Hf  Hf54      1.0  0.40886  0.38464  0.83386  1.0000
  Hf  Hf55      1.0  0.40715  0.88985  0.33122  1.0000
  Hf  Hf56      1.0  0.40499  0.88125  0.83756  1.0000
  Hf  Hf57      1.0  0.65620  0.39317  0.33468  1.0000
  Hf  Hf58      1.0  0.65802  0.39630  0.83299  1.0000
  Hf  Hf59      1.0  0.65946  0.88889  0.32539  1.0000
  Hf  Hf60      1.0  0.66145  0.89355  0.83046  1.0000
  Hf  Hf61      1.0  0.90820  0.39250  0.33108  1.0000
  Hf  Hf62      1.0  0.91450  0.39377  0.82281  1.0000
  Hf  Hf63      1.0  0.90657  0.88989  0.33407  1.0000
  Hf  Hf64      1.0  0.91536  0.89125  0.82346  1.0000
  Hf  Hf65      1.0  0.19470  0.30705  0.09133  1.0000
  Hf  Hf66      1.0  0.19257  0.31010  0.58822  1.0000
  Hf  Hf67      1.0  0.19260  0.80899  0.08763  1.0000
  Hf  Hf68      1.0  0.19412  0.80662  0.58979  1.0000
  Hf  Hf69      1.0  0.44079  0.32051  0.09154  1.0000
  Hf  Hf70      1.0  0.44396  0.31873  0.57985  1.0000
  Hf  Hf71      1.0  0.44571  0.82047  0.07725  1.0000
  Hf  Hf72      1.0  0.44493  0.82193  0.57605  1.0000
  Hf  Hf73      1.0  0.69376  0.31743  0.08638  1.0000
  Hf  Hf74      1.0  0.69192  0.31682  0.58683  1.0000
  Hf  Hf75      1.0  0.69594  0.81841  0.08258  1.0000
  Hf  Hf76      1.0  0.69595  0.82747  0.57109  1.0000
  Hf  Hf77      1.0  0.94548  0.31252  0.07838  1.0000
  Hf  Hf78      1.0  0.94217  0.32283  0.58118  1.0000
  Hf  Hf79      1.0  0.94809  0.82216  0.07253  1.0000
  Hf  Hf80      1.0  0.94351  0.81976  0.58715  1.0000
  Hf  Hf81      1.0  0.09417  0.11090  0.16944  1.0000
  Hf  Hf82      1.0  0.08669  0.10629  0.67416  1.0000
  Hf  Hf83      1.0  0.08783  0.60606  0.16878  1.0000
  Hf  Hf84      1.0  0.09326  0.61013  0.66620  1.0000
  Hf  Hf85      1.0  0.34252  0.10626  0.16871  1.0000
  Hf  Hf86      1.0  0.34174  0.10945  0.66328  1.0000
  Hf  Hf87      1.0  0.34269  0.61440  0.15866  1.0000
  Hf  Hf88      1.0  0.33582  0.60002  0.67992  1.0000
  Hf  Hf89      1.0  0.59081  0.11266  0.16785  1.0000
  Hf  Hf90      1.0  0.58874  0.11072  0.67227  1.0000
  Hf  Hf91      1.0  0.59443  0.61928  0.15890  1.0000
  Hf  Hf92      1.0  0.59354  0.61333  0.65808  1.0000
  Hf  Hf93      1.0  0.83798  0.11470  0.17016  1.0000
  Hf  Hf94      1.0  0.84275  0.12112  0.65880  1.0000
  Hf  Hf95      1.0  0.84329  0.61647  0.16292  1.0000
  Hf  Hf96      1.0  0.84108  0.61769  0.66567  1.0000
  F   F1        1.0  0.07770  0.12755  0.30967  1.0000
  F   F2        1.0  0.07294  0.12094  0.81670  1.0000
  F   F3        1.0  0.07822  0.61663  0.31665  1.0000
  F   F4        1.0  0.07934  0.60195  0.82276  1.0000
  F   F5        1.0  0.32604  0.11382  0.31485  1.0000
  F   F6        1.0  0.33068  0.12778  0.79435  1.0000
  F   F7        1.0  0.33973  0.63902  0.29568  1.0000
  F   F8        1.0  0.32028  0.61556  0.81912  1.0000
  F   F9        1.0  0.58267  0.13353  0.29567  1.0000
  F   F10       1.0  0.57208  0.10689  0.81579  1.0000
  F   F11       1.0  0.58505  0.61263  0.30579  1.0000
  F   F12       1.0  0.58178  0.65424  0.78556  1.0000
  F   F13       1.0  0.82669  0.14084  0.29754  1.0000
  F   F14       1.0  0.83021  0.16054  0.77753  1.0000
  F   F15       1.0  0.82823  0.61484  0.30686  1.0000
  F   F16       1.0  0.82352  0.61852  0.81611  1.0000
  F   F17       1.0  0.17799  0.33348  0.46008  1.0000
  F   F18       1.0  0.18612  0.33509  0.95029  1.0000
  F   F19       1.0  0.17474  0.82636  0.46358  1.0000
  F   F20       1.0  0.19582  0.84660  0.93902  1.0000
  F   F21       1.0  0.44157  0.35963  0.43192  1.0000
  F   F22       1.0  0.42409  0.32994  0.96606  1.0000
  F   F23       1.0  0.43460  0.83672  0.44762  1.0000
  F   F24       1.0  0.44321  0.85092  0.93586  1.0000
  F   F25       1.0  0.69074  0.34615  0.43825  1.0000
  F   F26       1.0  0.68868  0.35617  0.93956  1.0000
  F   F27       1.0  0.68804  0.85329  0.44206  1.0000
  F   F28       1.0  0.69020  0.84857  0.93574  1.0000
  F   F29       1.0  0.93913  0.34702  0.43620  1.0000
  F   F30       1.0  0.93770  0.33523  0.93854  1.0000
  F   F31       1.0  0.92210  0.83164  0.46077  1.0000
  F   F32       1.0  0.94319  0.83854  0.93156  1.0000
  F   F33       1.0  0.17276  0.37279  0.19143  1.0000
  F   F34       1.0  0.16851  0.35144  0.70556  1.0000
  F   F35       1.0  0.16328  0.86177  0.20582  1.0000
  F   F36       1.0  0.16727  0.86662  0.70289  1.0000
  F   F37       1.0  0.42130  0.37823  0.19404  1.0000
  F   F38       1.0  0.41678  0.36691  0.70432  1.0000
  F   F39       1.0  0.41489  0.87946  0.20267  1.0000
  F   F40       1.0  0.41307  0.85377  0.70343  1.0000
  F   F41       1.0  0.66991  0.36793  0.19832  1.0000
  F   F42       1.0  0.66352  0.38501  0.69752  1.0000
  F   F43       1.0  0.67471  0.89755  0.17780  1.0000
  F   F44       1.0  0.67984  0.90111  0.68318  1.0000
  F   F45       1.0  0.92224  0.37038  0.19033  1.0000
  F   F46       1.0  0.91758  0.36998  0.69412  1.0000
  F   F47       1.0  0.92017  0.88547  0.18711  1.0000
  F   F48       1.0  0.92411  0.89925  0.68154  1.0000
  F   F49       1.0  0.06492  0.14976  0.05893  1.0000
  F   F50       1.0  0.07283  0.17072  0.54320  1.0000
  F   F51       1.0  0.05832  0.64944  0.06567  1.0000
  F   F52       1.0  0.06107  0.67102  0.54922  1.0000
  F   F53       1.0  0.31188  0.14957  0.05812  1.0000
  F   F54       1.0  0.30963  0.15772  0.55480  1.0000
  F   F55       1.0  0.31951  0.65663  0.04224  1.0000
  F   F56       1.0  0.30309  0.64769  0.56573  1.0000
  F   F57       1.0  0.56475  0.14924  0.05157  1.0000
  F   F58       1.0  0.56611  0.15671  0.55770  1.0000
  F   F59       1.0  0.56308  0.66432  0.04985  1.0000
  F   F60       1.0  0.56530  0.67180  0.54804  1.0000
  F   F61       1.0  0.80824  0.15167  0.05681  1.0000
  F   F62       1.0  0.81855  0.16024  0.54659  1.0000
  F   F63       1.0  0.82581  0.65255  0.04326  1.0000
  F   F64       1.0  0.81251  0.65585  0.55883  1.0000
  F   F65       1.0  0.21299  0.21291  0.21204  1.0000
  F   F66       1.0  0.20347  0.18905  0.70863  1.0000
  F   F67       1.0  0.20829  0.69012  0.20933  1.0000
  F   F68       1.0  0.20641  0.70289  0.71740  1.0000
  F   F69       1.0  0.46370  0.20616  0.21044  1.0000
  F   F70       1.0  0.44521  0.20098  0.72228  1.0000
  F   F71       1.0  0.45646  0.69920  0.20165  1.0000
  F   F72       1.0  0.46529  0.68974  0.72180  1.0000
  F   F73       1.0  0.70071  0.20414  0.21098  1.0000
  F   F74       1.0  0.70540  0.20525  0.71640  1.0000
  F   F75       1.0  0.70214  0.72212  0.21224  1.0000
  F   F76       1.0  0.69325  0.71851  0.70332  1.0000
  F   F77       1.0  0.94970  0.19915  0.21716  1.0000
  F   F78       1.0  0.94035  0.19896  0.70855  1.0000
  F   F79       1.0  0.95204  0.70444  0.21082  1.0000
  F   F80       1.0  0.95279  0.70628  0.70639  1.0000
  F   F81       1.0  0.14695  0.09914  0.04313  1.0000
  F   F82       1.0  0.14631  0.07909  0.54718  1.0000
  F   F83       1.0  0.14008  0.57291  0.05074  1.0000
  F   F84       1.0  0.14863  0.60134  0.54047  1.0000
  F   F85       1.0  0.40644  0.12370  0.03269  1.0000
  F   F86       1.0  0.39196  0.09941  0.53535  1.0000
  F   F87       1.0  0.40508  0.58469  0.02589  1.0000
  F   F88       1.0  0.39218  0.62319  0.54324  1.0000
  F   F89       1.0  0.64733  0.09960  0.03791  1.0000
  F   F90       1.0  0.65199  0.10919  0.52613  1.0000
  F   F91       1.0  0.64739  0.60259  0.04171  1.0000
  F   F92       1.0  0.65266  0.58947  0.52913  1.0000
  F   F93       1.0  0.89306  0.08796  0.05116  1.0000
  F   F94       1.0  0.89697  0.09004  0.53368  1.0000
  F   F95       1.0  0.90175  0.59027  0.02109  1.0000
  F   F96       1.0  0.89713  0.59109  0.53318  1.0000
  F   F97       1.0  0.15644  0.18292  0.13698  1.0000
  F   F98       1.0  0.14554  0.18821  0.64578  1.0000
  F   F99       1.0  0.14631  0.70055  0.12345  1.0000
  F   F100      1.0  0.15124  0.68133  0.64965  1.0000
  F   F101      1.0  0.39984  0.20708  0.15123  1.0000
  F   F102      1.0  0.40445  0.19875  0.61364  1.0000
  F   F103      1.0  0.40399  0.70905  0.09475  1.0000
  F   F104      1.0  0.39749  0.70174  0.64691  1.0000
  F   F105      1.0  0.65230  0.19953  0.12504  1.0000
  F   F106      1.0  0.64888  0.20467  0.64407  1.0000
  F   F107      1.0  0.64670  0.70342  0.12391  1.0000
  F   F108      1.0  0.65117  0.70425  0.59654  1.0000
  F   F109      1.0  0.90332  0.20503  0.11752  1.0000
  F   F110      1.0  0.89575  0.22095  0.59153  1.0000
  F   F111      1.0  0.90403  0.70558  0.10645  1.0000
  F   F112      1.0  0.89382  0.69610  0.62816  1.0000
  F   F113      1.0  0.10024  0.30207  0.37353  1.0000
  F   F114      1.0  0.09920  0.30081  0.88060  1.0000
  F   F115      1.0  0.09602  0.80059  0.37991  1.0000
  F   F116      1.0  0.09951  0.79441  0.86967  1.0000
  F   F117      1.0  0.34143  0.29813  0.36990  1.0000
  F   F118      1.0  0.35169  0.29874  0.87175  1.0000
  F   F119      1.0  0.35207  0.79793  0.38887  1.0000
  F   F120      1.0  0.33899  0.80631  0.87794  1.0000
  F   F121      1.0  0.59496  0.30879  0.37104  1.0000
  F   F122      1.0  0.59421  0.30742  0.88044  1.0000
  F   F123      1.0  0.59751  0.80043  0.37825  1.0000
  F   F124      1.0  0.60483  0.80284  0.87916  1.0000
  F   F125      1.0  0.85276  0.31132  0.35771  1.0000
  F   F126      1.0  0.85038  0.29405  0.87239  1.0000
  F   F127      1.0  0.84709  0.80204  0.38865  1.0000
  F   F128      1.0  0.85652  0.80133  0.87796  1.0000
  F   F129      1.0  0.06613  0.25003  0.14837  1.0000
  F   F130      1.0  0.05688  0.24511  0.66928  1.0000
  F   F131      1.0  0.06129  0.74644  0.14418  1.0000
  F   F132      1.0  0.06753  0.74625  0.64178  1.0000
  F   F133      1.0  0.32128  0.24566  0.13042  1.0000
  F   F134      1.0  0.31967  0.24696  0.63717  1.0000
  F   F135      1.0  0.31340  0.74958  0.12143  1.0000
  F   F136      1.0  0.31463  0.74343  0.64382  1.0000
  F   F137      1.0  0.56149  0.24168  0.14943  1.0000
  F   F138      1.0  0.56094  0.24765  0.65098  1.0000
  F   F139      1.0  0.56710  0.75682  0.12565  1.0000
  F   F140      1.0  0.55449  0.75822  0.65567  1.0000
  F   F141      1.0  0.82009  0.25618  0.12630  1.0000
  F   F142      1.0  0.80767  0.25924  0.63910  1.0000
  F   F143      1.0  0.81783  0.75913  0.12325  1.0000
  F   F144      1.0  0.81146  0.75095  0.65331  1.0000
  F   F145      1.0  0.12344  0.35870  0.13029  1.0000
  F   F146      1.0  0.12234  0.37098  0.60882  1.0000
  F   F147      1.0  0.12156  0.87322  0.10474  1.0000
  F   F148      1.0  0.12302  0.85062  0.62581  1.0000
  F   F149      1.0  0.36871  0.38269  0.10733  1.0000
  F   F150      1.0  0.37475  0.37568  0.60731  1.0000
  F   F151      1.0  0.37888  0.86315  0.09793  1.0000
  F   F152      1.0  0.36974  0.88190  0.59630  1.0000
  F   F153      1.0  0.61878  0.35319  0.13075  1.0000
  F   F154      1.0  0.62289  0.38195  0.59866  1.0000
  F   F155      1.0  0.62979  0.86349  0.10047  1.0000
  F   F156      1.0  0.62640  0.87879  0.61360  1.0000
  F   F157      1.0  0.87432  0.39427  0.09557  1.0000
  F   F158      1.0  0.86918  0.36735  0.61964  1.0000
  F   F159      1.0  0.87997  0.86403  0.09189  1.0000
  F   F160      1.0  0.87184  0.86187  0.62286  1.0000
  F   F161      1.0  0.17814  0.24559  0.35917  1.0000
  F   F162      1.0  0.18595  0.24157  0.86368  1.0000
  F   F163      1.0  0.18221  0.74195  0.36816  1.0000
  F   F164      1.0  0.17782  0.73907  0.87488  1.0000
  F   F165      1.0  0.43495  0.25600  0.35593  1.0000
  F   F166      1.0  0.44571  0.25113  0.84876  1.0000
  F   F167      1.0  0.43394  0.74605  0.35907  1.0000
  F   F168      1.0  0.43627  0.74941  0.86823  1.0000
  F   F169      1.0  0.68574  0.25720  0.35050  1.0000
  F   F170      1.0  0.67750  0.25074  0.86240  1.0000
  F   F171      1.0  0.68472  0.75203  0.37570  1.0000
  F   F172      1.0  0.68866  0.75483  0.85500  1.0000
  F   F173      1.0  0.93242  0.24994  0.36163  1.0000
  F   F174      1.0  0.93919  0.25232  0.84207  1.0000
  F   F175      1.0  0.93607  0.75138  0.34946  1.0000
  F   F176      1.0  0.95038  0.74542  0.84031  1.0000
  F   F177      1.0  0.12781  0.12604  0.38936  1.0000
  F   F178      1.0  0.12622  0.13229  0.89189  1.0000
  F   F179      1.0  0.12817  0.62281  0.38897  1.0000
  F   F180      1.0  0.12774  0.62707  0.88565  1.0000
  F   F181      1.0  0.37711  0.12612  0.38634  1.0000
  F   F182      1.0  0.37081  0.12010  0.90954  1.0000
  F   F183      1.0  0.37720  0.61254  0.40825  1.0000
  F   F184      1.0  0.37616  0.63475  0.88125  1.0000
  F   F185      1.0  0.62459  0.13125  0.39807  1.0000
  F   F186      1.0  0.62505  0.13137  0.88466  1.0000
  F   F187      1.0  0.62592  0.63938  0.39001  1.0000
  F   F188      1.0  0.62592  0.61911  0.89917  1.0000
  F   F189      1.0  0.87357  0.11818  0.38865  1.0000
  F   F190      1.0  0.87575  0.11391  0.89927  1.0000
  F   F191      1.0  0.87521  0.64685  0.38194  1.0000
  F   F192      1.0  0.88120  0.62996  0.86552  1.0000
  F   F193      1.0  0.00715  0.34944  0.08934  1.0000
  F   F194      1.0  0.00517  0.34348  0.59057  1.0000
  F   F195      1.0  0.00803  0.85245  0.07871  1.0000
  F   F196      1.0  0.00782  0.85568  0.58456  1.0000
  F   F197      1.0  0.26223  0.36115  0.06791  1.0000
  F   F198      1.0  0.26099  0.34723  0.58283  1.0000
  F   F199      1.0  0.25794  0.86654  0.04937  1.0000
  F   F200      1.0  0.25080  0.86221  0.58434  1.0000
  F   F201      1.0  0.50902  0.36356  0.07037  1.0000
  F   F202      1.0  0.50299  0.35865  0.58043  1.0000
  F   F203      1.0  0.50550  0.85349  0.08014  1.0000
  F   F204      1.0  0.50106  0.87155  0.57195  1.0000
  F   F205      1.0  0.75841  0.37034  0.07935  1.0000
  F   F206      1.0  0.75119  0.37869  0.57676  1.0000
  F   F207      1.0  0.75424  0.86001  0.07566  1.0000
  F   F208      1.0  0.75890  0.86041  0.56848  1.0000
  F   F209      1.0  0.06692  0.47217  0.19483  1.0000
  F   F210      1.0  0.07348  0.49024  0.67563  1.0000
  F   F211      1.0  0.06680  0.97886  0.19117  1.0000
  F   F212      1.0  0.06508  0.98533  0.68307  1.0000
  F   F213      1.0  0.31787  0.49376  0.17061  1.0000
  F   F214      1.0  0.31660  0.47353  0.69040  1.0000
  F   F215      1.0  0.32703  0.97782  0.16361  1.0000
  F   F216      1.0  0.31330  0.98711  0.68319  1.0000
  F   F217      1.0  0.57255  0.50372  0.15111  1.0000
  F   F218      1.0  0.57087  0.48920  0.66815  1.0000
  F   F219      1.0  0.57210  0.97267  0.18555  1.0000
  F   F220      1.0  0.56363  0.98781  0.69085  1.0000
  F   F221      1.0  0.81538  0.49232  0.19319  1.0000
  F   F222      1.0  0.81628  0.48615  0.68963  1.0000
  F   F223      1.0  0.82041  0.97688  0.16811  1.0000
  F   F224      1.0  0.82017  0.98923  0.66187  1.0000
  F   F225      1.0  0.23901  0.15477  0.41037  1.0000
  F   F226      1.0  0.24128  0.12290  0.94301  1.0000
  F   F227      1.0  0.24544  0.63610  0.42526  1.0000
  F   F228      1.0  0.23361  0.62979  0.93013  1.0000
  F   F229      1.0  0.49677  0.14530  0.42018  1.0000
  F   F230      1.0  0.48914  0.12191  0.93983  1.0000
  F   F231      1.0  0.49479  0.62976  0.42941  1.0000
  F   F232      1.0  0.49385  0.63202  0.92025  1.0000
  F   F233      1.0  0.74351  0.14397  0.41340  1.0000
  F   F234      1.0  0.73518  0.16167  0.93053  1.0000
  F   F235      1.0  0.73588  0.63176  0.43536  1.0000
  F   F236      1.0  0.74330  0.64320  0.93306  1.0000
  F   F237      1.0  0.98594  0.13647  0.43716  1.0000
  F   F238      1.0  0.99545  0.13861  0.92527  1.0000
  F   F239      1.0  0.99352  0.64698  0.42671  1.0000
  F   F240      1.0  0.99511  0.62279  0.93618  1.0000
  F   F241      1.0  0.18675  0.00268  0.32785  1.0000
  F   F242      1.0  0.18473  0.01511  0.81574  1.0000
  F   F243      1.0  0.18305  0.49829  0.34308  1.0000
  F   F244      1.0  0.18215  0.50975  0.82398  1.0000
  F   F245      1.0  0.43808  0.00742  0.32206  1.0000
  F   F246      1.0  0.43298  0.02137  0.80906  1.0000
  F   F247      1.0  0.43035  0.51634  0.33049  1.0000
  F   F248      1.0  0.42792  0.50288  0.82777  1.0000
  F   F249      1.0  0.68100  0.01265  0.31718  1.0000
  F   F250      1.0  0.68236  0.01999  0.80908  1.0000
  F   F251      1.0  0.67349  0.51185  0.34356  1.0000
  F   F252      1.0  0.68705  0.52829  0.82030  1.0000
  F   F253      1.0  0.93323  0.01047  0.32736  1.0000
  F   F254      1.0  0.93629  0.01761  0.82563  1.0000
  F   F255      1.0  0.92533  0.52323  0.33502  1.0000
  F   F256      1.0  0.93748  0.51206  0.82671  1.0000
  F   F257      1.0  0.00204  0.25249  0.99788  1.0000
  F   F258      1.0  0.00492  0.25161  0.50144  1.0000
  F   F259      1.0  0.00946  0.76113  0.98195  1.0000
  F   F260      1.0  0.99665  0.75975  0.50183  1.0000
  F   F261      1.0  0.25045  0.24863  0.99445  1.0000
  F   F262      1.0  0.25052  0.26121  0.48720  1.0000
  F   F263      1.0  0.24265  0.72296  0.01498  1.0000
  F   F264      1.0  0.25545  0.77068  0.48665  1.0000
  F   F265      1.0  0.50114  0.24605  0.98998  1.0000
  F   F266      1.0  0.50360  0.25962  0.49291  1.0000
  F   F267      1.0  0.50259  0.75591  0.99300  1.0000
  F   F268      1.0  0.49548  0.75156  0.49949  1.0000
  F   F269      1.0  0.75601  0.27263  0.99013  1.0000
  F   F270      1.0  0.75119  0.25295  0.50567  1.0000
  F   F271      1.0  0.75106  0.73441  0.02033  1.0000
  F   F272      1.0  0.75032  0.76096  0.48907  1.0000
  F   F273      1.0  0.13073  0.99542  0.25251  1.0000
  F   F274      1.0  0.12214  0.00207  0.75548  1.0000
  F   F275      1.0  0.13393  0.50838  0.24750  1.0000
  F   F276      1.0  0.13259  0.48957  0.74277  1.0000
  F   F277      1.0  0.37597  0.00145  0.25117  1.0000
  F   F278      1.0  0.37818  0.99749  0.73588  1.0000
  F   F279      1.0  0.37984  0.51010  0.24232  1.0000
  F   F280      1.0  0.37866  0.49731  0.73779  1.0000
  F   F281      1.0  0.62097  0.99823  0.26174  1.0000
  F   F282      1.0  0.63063  0.00951  0.73612  1.0000
  F   F283      1.0  0.63207  0.49873  0.22637  1.0000
  F   F284      1.0  0.62692  0.51452  0.74489  1.0000
  F   F285      1.0  0.86033  0.00057  0.26485  1.0000
  F   F286      1.0  0.87066  0.00966  0.75220  1.0000
  F   F287      1.0  0.89289  0.50870  0.22425  1.0000
  F   F288      1.0  0.87826  0.50179  0.75136  1.0000
  F   F289      1.0  0.04372  0.02500  0.03598  1.0000
  F   F290      1.0  0.04672  0.03765  0.53379  1.0000
  F   F291      1.0  0.04810  0.52683  0.03249  1.0000
  F   F292      1.0  0.05173  0.53146  0.51889  1.0000
  F   F293      1.0  0.29185  0.01901  0.02281  1.0000
  F   F294      1.0  0.27227  0.03805  0.54825  1.0000
  F   F295      1.0  0.28887  0.53453  0.02947  1.0000
  F   F296      1.0  0.30060  0.51616  0.52127  1.0000
  F   F297      1.0  0.54978  0.02691  0.01956  1.0000
  F   F298      1.0  0.55123  0.03367  0.50828  1.0000
  F   F299      1.0  0.54024  0.53315  0.01633  1.0000
  F   F300      1.0  0.54219  0.53651  0.52063  1.0000
  F   F301      1.0  0.78789  0.02639  0.00973  1.0000
  F   F302      1.0  0.78764  0.04292  0.51895  1.0000
  F   F303      1.0  0.80942  0.52263  0.01779  1.0000
  F   F304      1.0  0.79138  0.53776  0.52380  1.0000
  F   F305      1.0  0.23325  0.42935  0.21805  1.0000
  F   F306      1.0  0.23335  0.39904  0.73456  1.0000
  F   F307      1.0  0.23588  0.89893  0.21658  1.0000
  F   F308      1.0  0.23427  0.89277  0.73817  1.0000
  F   F309      1.0  0.48522  0.42856  0.21689  1.0000
  F   F310      1.0  0.48517  0.42118  0.72081  1.0000
  F   F311      1.0  0.48605  0.91078  0.21807  1.0000
  F   F312      1.0  0.48136  0.90280  0.72296  1.0000
  F   F313      1.0  0.72990  0.43871  0.23005  1.0000
  F   F314      1.0  0.73259  0.42875  0.72319  1.0000
  F   F315      1.0  0.73641  0.91582  0.22549  1.0000
  F   F316      1.0  0.74188  0.91508  0.71829  1.0000
  F   F317      1.0  0.98164  0.43592  0.22098  1.0000
  F   F318      1.0  0.99084  0.42143  0.72283  1.0000
  F   F319      1.0  0.98457  0.90292  0.23703  1.0000
  F   F320      1.0  0.98788  0.92598  0.71861  1.0000
  F   F321      1.0  0.21220  0.47648  0.47650  1.0000
  F   F322      1.0  0.20071  0.46573  0.98563  1.0000
  F   F323      1.0  0.20319  0.96765  0.48879  1.0000
  F   F324      1.0  0.19712  0.97072  0.99495  1.0000
  F   F325      1.0  0.45314  0.47967  0.47812  1.0000
  F   F326      1.0  0.45604  0.45896  0.97893  1.0000
  F   F327      1.0  0.45452  0.97670  0.47880  1.0000
  F   F328      1.0  0.45759  0.96654  0.98823  1.0000
  F   F329      1.0  0.71018  0.46924  0.46810  1.0000
  F   F330      1.0  0.70163  0.47310  0.99791  1.0000
  F   F331      1.0  0.69904  0.98008  0.48509  1.0000
  F   F332      1.0  0.70823  0.98062  0.96711  1.0000
  F   F333      1.0  0.95918  0.46574  0.47860  1.0000
  F   F334      1.0  0.96467  0.46434  0.97370  1.0000
  F   F335      1.0  0.96056  0.96482  0.47691  1.0000
  F   F336      1.0  0.96113  0.97272  0.97508  1.0000
  F   F337      1.0  0.01127  0.08227  0.28201  1.0000
  F   F338      1.0  0.01119  0.09716  0.76740  1.0000
  F   F339      1.0  0.01246  0.58739  0.28419  1.0000
  F   F340      1.0  0.01778  0.58983  0.77290  1.0000
  F   F341      1.0  0.26368  0.07132  0.27062  1.0000
  F   F342      1.0  0.26511  0.09020  0.77343  1.0000
  F   F343      1.0  0.27352  0.59733  0.26997  1.0000
  F   F344      1.0  0.26297  0.57894  0.77513  1.0000
  F   F345      1.0  0.51997  0.07884  0.27918  1.0000
  F   F346      1.0  0.51384  0.08844  0.77826  1.0000
  F   F347      1.0  0.51591  0.61421  0.26326  1.0000
  F   F348      1.0  0.52161  0.56618  0.77846  1.0000
  F   F349      1.0  0.76426  0.08688  0.26219  1.0000
  F   F350      1.0  0.76489  0.08719  0.76720  1.0000
  F   F351      1.0  0.76691  0.60524  0.25831  1.0000
  F   F352      1.0  0.76451  0.59289  0.78054  1.0000
  F   F353      1.0  0.09408  0.40079  0.47381  1.0000
  F   F354      1.0  0.09862  0.39958  0.97645  1.0000
  F   F355      1.0  0.09976  0.91252  0.46168  1.0000
  F   F356      1.0  0.10014  0.89266  0.95923  1.0000
  F   F357      1.0  0.35645  0.40197  0.45037  1.0000
  F   F358      1.0  0.34607  0.40790  0.96335  1.0000
  F   F359      1.0  0.34429  0.92572  0.45486  1.0000
  F   F360      1.0  0.35641  0.90709  0.95815  1.0000
  F   F361      1.0  0.59462  0.40626  0.46585  1.0000
  F   F362      1.0  0.59946  0.41633  0.96336  1.0000
  F   F363      1.0  0.60393  0.90029  0.46493  1.0000
  F   F364      1.0  0.59809  0.91296  0.96022  1.0000
  F   F365      1.0  0.85147  0.41141  0.44774  1.0000
  F   F366      1.0  0.85994  0.40173  0.94066  1.0000
  F   F367      1.0  0.84565  0.91877  0.45913  1.0000
  F   F368      1.0  0.85675  0.92387  0.94182  1.0000
  F   F369      1.0  0.04407  0.29017  0.29026  1.0000
  F   F370      1.0  0.04897  0.30454  0.79767  1.0000
  F   F371      1.0  0.04970  0.80583  0.28949  1.0000
  F   F372      1.0  0.04541  0.78586  0.79345  1.0000
  F   F373      1.0  0.28806  0.29182  0.28318  1.0000
  F   F374      1.0  0.29918  0.29165  0.78811  1.0000
  F   F375      1.0  0.30358  0.79521  0.27978  1.0000
  F   F376      1.0  0.29757  0.79212  0.78348  1.0000
  F   F377      1.0  0.54613  0.30079  0.28711  1.0000
  F   F378      1.0  0.54411  0.29758  0.79094  1.0000
  F   F379      1.0  0.55060  0.78260  0.28272  1.0000
  F   F380      1.0  0.54909  0.81204  0.79198  1.0000
  F   F381      1.0  0.79081  0.29951  0.30384  1.0000
  F   F382      1.0  0.79146  0.31132  0.78632  1.0000
  F   F383      1.0  0.79963  0.78387  0.28768  1.0000
  F   F384      1.0  0.80084  0.80099  0.80595  1.0000
