data_image0
_chemical_formula_structural       Hf96F384
_chemical_formula_sum              "Hf96 F384"
_cell_length_a       31.0211
_cell_length_b       15.5087
_cell_length_c       15.5001
_cell_angle_alpha    63.342
_cell_angle_beta     63.342
_cell_angle_gamma    80.1625

_space_group_name_H-M_alt    "P 1"
_space_group_IT_number       1

loop_
  _space_group_symop_operation_xyz
  'x, y, z'

loop_
  _atom_site_type_symbol
  _atom_site_label
  _atom_site_symmetry_multiplicity
  _atom_site_fract_x
  _atom_site_fract_y
  _atom_site_fract_z
  _atom_site_occupancy
  Hf  Hf1       1.0  0.19637  0.11314  0.37927  1.0000
  Hf  Hf2       1.0  0.19635  0.11449  0.87448  1.0000
  Hf  Hf3       1.0  0.19812  0.61789  0.37163  1.0000
  Hf  Hf4       1.0  0.19449  0.61961  0.88178  1.0000
  Hf  Hf5       1.0  0.43926  0.10389  0.39142  1.0000
  Hf  Hf6       1.0  0.44341  0.10571  0.87705  1.0000
  Hf  Hf7       1.0  0.44442  0.60790  0.37225  1.0000
  Hf  Hf8       1.0  0.44666  0.60617  0.87449  1.0000
  Hf  Hf9       1.0  0.69408  0.09360  0.39135  1.0000
  Hf  Hf10      1.0  0.69567  0.09878  0.88265  1.0000
  Hf  Hf11      1.0  0.69879  0.59596  0.37507  1.0000
  Hf  Hf12      1.0  0.69970  0.60357  0.87150  1.0000
  Hf  Hf13      1.0  0.94314  0.10203  0.38442  1.0000
  Hf  Hf14      1.0  0.95142  0.11087  0.86954  1.0000
  Hf  Hf15      1.0  0.94525  0.61552  0.36456  1.0000
  Hf  Hf16      1.0  0.95115  0.60558  0.86993  1.0000
  Hf  Hf17      1.0  0.05513  0.39227  0.13009  1.0000
  Hf  Hf18      1.0  0.05494  0.40253  0.61556  1.0000
  Hf  Hf19      1.0  0.05272  0.89355  0.11926  1.0000
  Hf  Hf20      1.0  0.05581  0.90350  0.61799  1.0000
  Hf  Hf21      1.0  0.30485  0.39931  0.11732  1.0000
  Hf  Hf22      1.0  0.30081  0.39298  0.62180  1.0000
  Hf  Hf23      1.0  0.30494  0.89161  0.11747  1.0000
  Hf  Hf24      1.0  0.30241  0.89139  0.62310  1.0000
  Hf  Hf25      1.0  0.55358  0.38727  0.13006  1.0000
  Hf  Hf26      1.0  0.55494  0.39218  0.62097  1.0000
  Hf  Hf27      1.0  0.55383  0.89681  0.13231  1.0000
  Hf  Hf28      1.0  0.55393  0.88515  0.62441  1.0000
  Hf  Hf29      1.0  0.80626  0.39398  0.12523  1.0000
  Hf  Hf30      1.0  0.80180  0.39071  0.63355  1.0000
  Hf  Hf31      1.0  0.80437  0.89713  0.12650  1.0000
  Hf  Hf32      1.0  0.80091  0.88256  0.63738  1.0000
  Hf  Hf33      1.0  0.05653  0.18466  0.41838  1.0000
  Hf  Hf34      1.0  0.05718  0.19899  0.90309  1.0000
  Hf  Hf35      1.0  0.05837  0.69016  0.40702  1.0000
  Hf  Hf36      1.0  0.05737  0.68744  0.90854  1.0000
  Hf  Hf37      1.0  0.30806  0.18845  0.41230  1.0000
  Hf  Hf38      1.0  0.30586  0.18125  0.91629  1.0000
  Hf  Hf39      1.0  0.30449  0.68363  0.41937  1.0000
  Hf  Hf40      1.0  0.30473  0.68737  0.91039  1.0000
  Hf  Hf41      1.0  0.55223  0.17819  0.42833  1.0000
  Hf  Hf42      1.0  0.55387  0.17827  0.91856  1.0000
  Hf  Hf43      1.0  0.55997  0.67303  0.41830  1.0000
  Hf  Hf44      1.0  0.55637  0.67663  0.91746  1.0000
  Hf  Hf45      1.0  0.80537  0.18203  0.41254  1.0000
  Hf  Hf46      1.0  0.80680  0.18191  0.91257  1.0000
  Hf  Hf47      1.0  0.80255  0.67345  0.42441  1.0000
  Hf  Hf48      1.0  0.81120  0.68183  0.91697  1.0000
  Hf  Hf49      1.0  0.15986  0.40298  0.32468  1.0000
  Hf  Hf50      1.0  0.16012  0.40072  0.83131  1.0000
  Hf  Hf51      1.0  0.16154  0.89748  0.31726  1.0000
  Hf  Hf52      1.0  0.15913  0.89702  0.83250  1.0000
  Hf  Hf53      1.0  0.41019  0.38959  0.33259  1.0000
  Hf  Hf54      1.0  0.40962  0.39253  0.83030  1.0000
  Hf  Hf55      1.0  0.40924  0.88294  0.33128  1.0000
  Hf  Hf56      1.0  0.41495  0.89224  0.81814  1.0000
  Hf  Hf57      1.0  0.66033  0.37554  0.34171  1.0000
  Hf  Hf58      1.0  0.65791  0.38080  0.83940  1.0000
  Hf  Hf59      1.0  0.66202  0.89308  0.32380  1.0000
  Hf  Hf60      1.0  0.65279  0.88287  0.83755  1.0000
  Hf  Hf61      1.0  0.90748  0.38344  0.33725  1.0000
  Hf  Hf62      1.0  0.90767  0.38675  0.83829  1.0000
  Hf  Hf63      1.0  0.90603  0.88566  0.34012  1.0000
  Hf  Hf64      1.0  0.91257  0.89741  0.82666  1.0000
  Hf  Hf65      1.0  0.19621  0.31862  0.08170  1.0000
  Hf  Hf66      1.0  0.19711  0.32095  0.57819  1.0000
  Hf  Hf67      1.0  0.19509  0.82262  0.07745  1.0000
  Hf  Hf68      1.0  0.19135  0.82029  0.58426  1.0000
  Hf  Hf69      1.0  0.44223  0.31541  0.08387  1.0000
  Hf  Hf70      1.0  0.44201  0.31780  0.58444  1.0000
  Hf  Hf71      1.0  0.44430  0.81782  0.07758  1.0000
  Hf  Hf72      1.0  0.44601  0.81127  0.57619  1.0000
  Hf  Hf73      1.0  0.69427  0.31090  0.08979  1.0000
  Hf  Hf74      1.0  0.69153  0.30719  0.59308  1.0000
  Hf  Hf75      1.0  0.69386  0.80952  0.08814  1.0000
  Hf  Hf76      1.0  0.69370  0.81171  0.58394  1.0000
  Hf  Hf77      1.0  0.94226  0.31550  0.08816  1.0000
  Hf  Hf78      1.0  0.94263  0.32207  0.58849  1.0000
  Hf  Hf79      1.0  0.94496  0.82069  0.07499  1.0000
  Hf  Hf80      1.0  0.94434  0.81553  0.58607  1.0000
  Hf  Hf81      1.0  0.08844  0.11300  0.16032  1.0000
  Hf  Hf82      1.0  0.09326  0.12194  0.66071  1.0000
  Hf  Hf83      1.0  0.08766  0.61241  0.16589  1.0000
  Hf  Hf84      1.0  0.09439  0.61936  0.65975  1.0000
  Hf  Hf85      1.0  0.33900  0.10715  0.17428  1.0000
  Hf  Hf86      1.0  0.34077  0.10707  0.66914  1.0000
  Hf  Hf87      1.0  0.34377  0.61673  0.15965  1.0000
  Hf  Hf88      1.0  0.33475  0.60389  0.67738  1.0000
  Hf  Hf89      1.0  0.59143  0.11547  0.16954  1.0000
  Hf  Hf90      1.0  0.58794  0.10322  0.67593  1.0000
  Hf  Hf91      1.0  0.59231  0.61497  0.16527  1.0000
  Hf  Hf92      1.0  0.59387  0.60211  0.66832  1.0000
  Hf  Hf93      1.0  0.84012  0.10553  0.16970  1.0000
  Hf  Hf94      1.0  0.84072  0.11084  0.66826  1.0000
  Hf  Hf95      1.0  0.84388  0.61318  0.16560  1.0000
  Hf  Hf96      1.0  0.84151  0.60736  0.66765  1.0000
  F   F1        1.0  0.08454  0.12900  0.29751  1.0000
  F   F2        1.0  0.07688  0.13799  0.80306  1.0000
  F   F3        1.0  0.08134  0.63439  0.29871  1.0000
  F   F4        1.0  0.08082  0.62770  0.80168  1.0000
  F   F5        1.0  0.32488  0.12648  0.31372  1.0000
  F   F6        1.0  0.33009  0.14006  0.79149  1.0000
  F   F7        1.0  0.33317  0.63410  0.29146  1.0000
  F   F8        1.0  0.32216  0.61991  0.81748  1.0000
  F   F9        1.0  0.57879  0.13029  0.30785  1.0000
  F   F10       1.0  0.57991  0.10837  0.81724  1.0000
  F   F11       1.0  0.58426  0.62299  0.29947  1.0000
  F   F12       1.0  0.58192  0.62305  0.80393  1.0000
  F   F13       1.0  0.83355  0.12731  0.30110  1.0000
  F   F14       1.0  0.82447  0.11873  0.81338  1.0000
  F   F15       1.0  0.83269  0.62969  0.30252  1.0000
  F   F16       1.0  0.84309  0.64183  0.78817  1.0000
  F   F17       1.0  0.18735  0.36466  0.43601  1.0000
  F   F18       1.0  0.19030  0.36109  0.93521  1.0000
  F   F19       1.0  0.18768  0.85242  0.44388  1.0000
  F   F20       1.0  0.18421  0.85035  0.94559  1.0000
  F   F21       1.0  0.44114  0.34905  0.44320  1.0000
  F   F22       1.0  0.43351  0.34420  0.94556  1.0000
  F   F23       1.0  0.43164  0.82392  0.44823  1.0000
  F   F24       1.0  0.43405  0.84293  0.93939  1.0000
  F   F25       1.0  0.68307  0.32577  0.45385  1.0000
  F   F26       1.0  0.69384  0.35582  0.93475  1.0000
  F   F27       1.0  0.68641  0.83956  0.44028  1.0000
  F   F28       1.0  0.67166  0.82770  0.97025  1.0000
  F   F29       1.0  0.93405  0.33693  0.45059  1.0000
  F   F30       1.0  0.92727  0.33507  0.96227  1.0000
  F   F31       1.0  0.94008  0.83785  0.44456  1.0000
  F   F32       1.0  0.93384  0.82730  0.94814  1.0000
  F   F33       1.0  0.17421  0.37065  0.19204  1.0000
  F   F34       1.0  0.17496  0.37515  0.68853  1.0000
  F   F35       1.0  0.17976  0.89699  0.17342  1.0000
  F   F36       1.0  0.16816  0.88312  0.69995  1.0000
  F   F37       1.0  0.42976  0.37917  0.18639  1.0000
  F   F38       1.0  0.42036  0.36944  0.70118  1.0000
  F   F39       1.0  0.42315  0.87537  0.19355  1.0000
  F   F40       1.0  0.41521  0.85166  0.70573  1.0000
  F   F41       1.0  0.66518  0.36120  0.20493  1.0000
  F   F42       1.0  0.66876  0.37674  0.69908  1.0000
  F   F43       1.0  0.67260  0.86723  0.19837  1.0000
  F   F44       1.0  0.66641  0.85918  0.70390  1.0000
  F   F45       1.0  0.91977  0.36803  0.20145  1.0000
  F   F46       1.0  0.92258  0.37189  0.70146  1.0000
  F   F47       1.0  0.91642  0.86772  0.19397  1.0000
  F   F48       1.0  0.92195  0.85922  0.70604  1.0000
  F   F49       1.0  0.06103  0.16780  0.04764  1.0000
  F   F50       1.0  0.06709  0.16266  0.54615  1.0000
  F   F51       1.0  0.06471  0.65910  0.05038  1.0000
  F   F52       1.0  0.07278  0.68016  0.53906  1.0000
  F   F53       1.0  0.31184  0.16074  0.06587  1.0000
  F   F54       1.0  0.32209  0.17072  0.54974  1.0000
  F   F55       1.0  0.31054  0.65222  0.05745  1.0000
  F   F56       1.0  0.31012  0.66103  0.55567  1.0000
  F   F57       1.0  0.55903  0.15633  0.06346  1.0000
  F   F58       1.0  0.55855  0.15847  0.56583  1.0000
  F   F59       1.0  0.55865  0.63916  0.06692  1.0000
  F   F60       1.0  0.56909  0.65036  0.54839  1.0000
  F   F61       1.0  0.80812  0.14427  0.06642  1.0000
  F   F62       1.0  0.81950  0.17398  0.54137  1.0000
  F   F63       1.0  0.81704  0.65342  0.05587  1.0000
  F   F64       1.0  0.81092  0.66180  0.55968  1.0000
  F   F65       1.0  0.20646  0.21026  0.21162  1.0000
  F   F66       1.0  0.21083  0.20648  0.69478  1.0000
  F   F67       1.0  0.20052  0.71779  0.21298  1.0000
  F   F68       1.0  0.20330  0.70728  0.71608  1.0000
  F   F69       1.0  0.44833  0.19451  0.21309  1.0000
  F   F70       1.0  0.44736  0.18818  0.71853  1.0000
  F   F71       1.0  0.44748  0.70760  0.21344  1.0000
  F   F72       1.0  0.45516  0.69667  0.70273  1.0000
  F   F73       1.0  0.70949  0.19865  0.20443  1.0000
  F   F74       1.0  0.69378  0.19912  0.73535  1.0000
  F   F75       1.0  0.70747  0.69245  0.21130  1.0000
  F   F76       1.0  0.70846  0.70468  0.69945  1.0000
  F   F77       1.0  0.95075  0.19238  0.22270  1.0000
  F   F78       1.0  0.95741  0.19899  0.71433  1.0000
  F   F79       1.0  0.95637  0.69336  0.20974  1.0000
  F   F80       1.0  0.94898  0.69707  0.71305  1.0000
  F   F81       1.0  0.14493  0.08289  0.03534  1.0000
  F   F82       1.0  0.15036  0.11163  0.53958  1.0000
  F   F83       1.0  0.14266  0.59124  0.04476  1.0000
  F   F84       1.0  0.15422  0.59763  0.53550  1.0000
  F   F85       1.0  0.39737  0.09870  0.03018  1.0000
  F   F86       1.0  0.40127  0.07350  0.54341  1.0000
  F   F87       1.0  0.40028  0.58297  0.04354  1.0000
  F   F88       1.0  0.39186  0.59173  0.55430  1.0000
  F   F89       1.0  0.65043  0.08869  0.04231  1.0000
  F   F90       1.0  0.64829  0.09943  0.54443  1.0000
  F   F91       1.0  0.65215  0.62125  0.02898  1.0000
  F   F92       1.0  0.65174  0.56253  0.55168  1.0000
  F   F93       1.0  0.89676  0.08947  0.03687  1.0000
  F   F94       1.0  0.89583  0.10098  0.53330  1.0000
  F   F95       1.0  0.90135  0.60570  0.04519  1.0000
  F   F96       1.0  0.90133  0.60409  0.53385  1.0000
  F   F97       1.0  0.15726  0.19689  0.11633  1.0000
  F   F98       1.0  0.15094  0.20965  0.62437  1.0000
  F   F99       1.0  0.15108  0.69701  0.11671  1.0000
  F   F100      1.0  0.15369  0.70593  0.61253  1.0000
  F   F101      1.0  0.39930  0.20064  0.12286  1.0000
  F   F102      1.0  0.40090  0.19988  0.60594  1.0000
  F   F103      1.0  0.40802  0.69366  0.10783  1.0000
  F   F104      1.0  0.39376  0.69454  0.63563  1.0000
  F   F105      1.0  0.65356  0.19397  0.13131  1.0000
  F   F106      1.0  0.64233  0.20062  0.63165  1.0000
  F   F107      1.0  0.64979  0.69452  0.13900  1.0000
  F   F108      1.0  0.65644  0.69240  0.61351  1.0000
  F   F109      1.0  0.90258  0.17543  0.13159  1.0000
  F   F110      1.0  0.89952  0.19056  0.63885  1.0000
  F   F111      1.0  0.90132  0.70233  0.14078  1.0000
  F   F112      1.0  0.90154  0.69974  0.61455  1.0000
  F   F113      1.0  0.09304  0.31252  0.35547  1.0000
  F   F114      1.0  0.09635  0.31704  0.86896  1.0000
  F   F115      1.0  0.10816  0.80188  0.35479  1.0000
  F   F116      1.0  0.09452  0.81291  0.86666  1.0000
  F   F117      1.0  0.35471  0.30385  0.35770  1.0000
  F   F118      1.0  0.34759  0.29934  0.88620  1.0000
  F   F119      1.0  0.34445  0.81185  0.37075  1.0000
  F   F120      1.0  0.34844  0.80793  0.89000  1.0000
  F   F121      1.0  0.59901  0.29928  0.38370  1.0000
  F   F122      1.0  0.60025  0.29148  0.86839  1.0000
  F   F123      1.0  0.60192  0.79366  0.38327  1.0000
  F   F124      1.0  0.59539  0.79540  0.88541  1.0000
  F   F125      1.0  0.84317  0.30711  0.38132  1.0000
  F   F126      1.0  0.85362  0.29591  0.87522  1.0000
  F   F127      1.0  0.84779  0.79290  0.37735  1.0000
  F   F128      1.0  0.85245  0.79028  0.88663  1.0000
  F   F129      1.0  0.06752  0.25325  0.12831  1.0000
  F   F130      1.0  0.06538  0.26412  0.62685  1.0000
  F   F131      1.0  0.06651  0.75661  0.13115  1.0000
  F   F132      1.0  0.05938  0.75558  0.65929  1.0000
  F   F133      1.0  0.31789  0.25598  0.14134  1.0000
  F   F134      1.0  0.31361  0.25459  0.64109  1.0000
  F   F135      1.0  0.32049  0.74996  0.13810  1.0000
  F   F136      1.0  0.30256  0.73988  0.66684  1.0000
  F   F137      1.0  0.56795  0.25586  0.13503  1.0000
  F   F138      1.0  0.55764  0.25267  0.64871  1.0000
  F   F139      1.0  0.56144  0.74922  0.14854  1.0000
  F   F140      1.0  0.56540  0.73655  0.64272  1.0000
  F   F141      1.0  0.81477  0.24247  0.13673  1.0000
  F   F142      1.0  0.81285  0.24612  0.65423  1.0000
  F   F143      1.0  0.81774  0.75769  0.13596  1.0000
  F   F144      1.0  0.80774  0.74028  0.65900  1.0000
  F   F145      1.0  0.12571  0.37629  0.10470  1.0000
  F   F146      1.0  0.12498  0.37702  0.60657  1.0000
  F   F147      1.0  0.12615  0.87570  0.10405  1.0000
  F   F148      1.0  0.12462  0.87332  0.60891  1.0000
  F   F149      1.0  0.37753  0.38511  0.10542  1.0000
  F   F150      1.0  0.37101  0.38078  0.60354  1.0000
  F   F151      1.0  0.37658  0.85741  0.11861  1.0000
  F   F152      1.0  0.37184  0.88102  0.60143  1.0000
  F   F153      1.0  0.62516  0.36772  0.10189  1.0000
  F   F154      1.0  0.62561  0.36839  0.60585  1.0000
  F   F155      1.0  0.62324  0.86289  0.12363  1.0000
  F   F156      1.0  0.62661  0.86232  0.59847  1.0000
  F   F157      1.0  0.87084  0.35480  0.12361  1.0000
  F   F158      1.0  0.87483  0.35418  0.62289  1.0000
  F   F159      1.0  0.87683  0.87915  0.08974  1.0000
  F   F160      1.0  0.87395  0.86217  0.61992  1.0000
  F   F161      1.0  0.17684  0.26079  0.36513  1.0000
  F   F162      1.0  0.17601  0.25601  0.86278  1.0000
  F   F163      1.0  0.19108  0.75693  0.35638  1.0000
  F   F164      1.0  0.17232  0.75137  0.87355  1.0000
  F   F165      1.0  0.42886  0.23610  0.37929  1.0000
  F   F166      1.0  0.43801  0.24534  0.84768  1.0000
  F   F167      1.0  0.42832  0.73949  0.36604  1.0000
  F   F168      1.0  0.44337  0.75628  0.84005  1.0000
  F   F169      1.0  0.69432  0.24291  0.34308  1.0000
  F   F170      1.0  0.68240  0.24762  0.87651  1.0000
  F   F171      1.0  0.68552  0.74297  0.36203  1.0000
  F   F172      1.0  0.68646  0.75647  0.84979  1.0000
  F   F173      1.0  0.93453  0.24938  0.35928  1.0000
  F   F174      1.0  0.93748  0.25012  0.87094  1.0000
  F   F175      1.0  0.93128  0.75535  0.35014  1.0000
  F   F176      1.0  0.94630  0.74684  0.84292  1.0000
  F   F177      1.0  0.12811  0.13661  0.39323  1.0000
  F   F178      1.0  0.12705  0.13523  0.87891  1.0000
  F   F179      1.0  0.12459  0.63419  0.39752  1.0000
  F   F180      1.0  0.12461  0.62717  0.89673  1.0000
  F   F181      1.0  0.37394  0.13341  0.39508  1.0000
  F   F182      1.0  0.37229  0.13381  0.89454  1.0000
  F   F183      1.0  0.37112  0.62756  0.40184  1.0000
  F   F184      1.0  0.37617  0.63407  0.88914  1.0000
  F   F185      1.0  0.62690  0.11998  0.39011  1.0000
  F   F186      1.0  0.62049  0.12233  0.90473  1.0000
  F   F187      1.0  0.62954  0.61945  0.38803  1.0000
  F   F188      1.0  0.62775  0.61944  0.89469  1.0000
  F   F189      1.0  0.87214  0.11199  0.40261  1.0000
  F   F190      1.0  0.87716  0.13665  0.88239  1.0000
  F   F191      1.0  0.86904  0.62765  0.40173  1.0000
  F   F192      1.0  0.87970  0.62172  0.90116  1.0000
  F   F193      1.0  0.00456  0.36153  0.08786  1.0000
  F   F194      1.0  0.00473  0.37871  0.56911  1.0000
  F   F195      1.0  0.00702  0.86266  0.06952  1.0000
  F   F196      1.0  0.00402  0.85598  0.57909  1.0000
  F   F197      1.0  0.26057  0.36380  0.06353  1.0000
  F   F198      1.0  0.26154  0.36783  0.56269  1.0000
  F   F199      1.0  0.26189  0.86384  0.06497  1.0000
  F   F200      1.0  0.25087  0.86184  0.58160  1.0000
  F   F201      1.0  0.51054  0.35317  0.07963  1.0000
  F   F202      1.0  0.50516  0.36644  0.56264  1.0000
  F   F203      1.0  0.50586  0.86430  0.07157  1.0000
  F   F204      1.0  0.50617  0.84493  0.58482  1.0000
  F   F205      1.0  0.75771  0.36947  0.07452  1.0000
  F   F206      1.0  0.75408  0.34354  0.59403  1.0000
  F   F207      1.0  0.75844  0.86555  0.07830  1.0000
  F   F208      1.0  0.75880  0.86183  0.58064  1.0000
  F   F209      1.0  0.06323  0.48795  0.18858  1.0000
  F   F210      1.0  0.06899  0.50454  0.65789  1.0000
  F   F211      1.0  0.06607  0.99202  0.16596  1.0000
  F   F212      1.0  0.07496  0.99687  0.65412  1.0000
  F   F213      1.0  0.31898  0.48349  0.17600  1.0000
  F   F214      1.0  0.31165  0.49140  0.67906  1.0000
  F   F215      1.0  0.32466  0.98376  0.16687  1.0000
  F   F216      1.0  0.31389  0.98420  0.68742  1.0000
  F   F217      1.0  0.57027  0.47738  0.18096  1.0000
  F   F218      1.0  0.57230  0.47293  0.67529  1.0000
  F   F219      1.0  0.56451  0.97892  0.20311  1.0000
  F   F220      1.0  0.57543  0.97658  0.66781  1.0000
  F   F221      1.0  0.82042  0.48769  0.16563  1.0000
  F   F222      1.0  0.82235  0.48379  0.66748  1.0000
  F   F223      1.0  0.81698  0.97975  0.18284  1.0000
  F   F224      1.0  0.82206  0.97800  0.69092  1.0000
  F   F225      1.0  0.24003  0.14150  0.42844  1.0000
  F   F226      1.0  0.23628  0.14473  0.92932  1.0000
  F   F227      1.0  0.24384  0.65165  0.42632  1.0000
  F   F228      1.0  0.23542  0.65208  0.94140  1.0000
  F   F229      1.0  0.48808  0.13878  0.43929  1.0000
  F   F230      1.0  0.49073  0.14261  0.92114  1.0000
  F   F231      1.0  0.49476  0.64877  0.40264  1.0000
  F   F232      1.0  0.49211  0.64413  0.91056  1.0000
  F   F233      1.0  0.74745  0.12227  0.42452  1.0000
  F   F234      1.0  0.73909  0.13285  0.93033  1.0000
  F   F235      1.0  0.74372  0.62023  0.42859  1.0000
  F   F236      1.0  0.74732  0.64734  0.91091  1.0000
  F   F237      1.0  0.99092  0.13782  0.43633  1.0000
  F   F238      1.0  0.99154  0.13720  0.93380  1.0000
  F   F239      1.0  0.99223  0.65051  0.40113  1.0000
  F   F240      1.0  0.99907  0.62591  0.92374  1.0000
  F   F241      1.0  0.17899  0.02172  0.31310  1.0000
  F   F242      1.0  0.18474  0.02185  0.81993  1.0000
  F   F243      1.0  0.17574  0.52810  0.33153  1.0000
  F   F244      1.0  0.17994  0.53028  0.81416  1.0000
  F   F245      1.0  0.42187  0.00402  0.34785  1.0000
  F   F246      1.0  0.43198  0.01759  0.82081  1.0000
  F   F247      1.0  0.42943  0.51866  0.31893  1.0000
  F   F248      1.0  0.42390  0.52077  0.82318  1.0000
  F   F249      1.0  0.67965  0.01228  0.33062  1.0000
  F   F250      1.0  0.67692  0.01289  0.82828  1.0000
  F   F251      1.0  0.68089  0.49601  0.33879  1.0000
  F   F252      1.0  0.68131  0.52401  0.81369  1.0000
  F   F253      1.0  0.93512  0.00352  0.33482  1.0000
  F   F254      1.0  0.93580  0.01581  0.82198  1.0000
  F   F255      1.0  0.92937  0.51003  0.32368  1.0000
  F   F256      1.0  0.93433  0.50775  0.81876  1.0000
  F   F257      1.0  0.99940  0.25797  0.99519  1.0000
  F   F258      1.0  0.00360  0.26819  0.49323  1.0000
  F   F259      1.0  0.99603  0.73281  0.01264  1.0000
  F   F260      1.0  0.00024  0.73820  0.50200  1.0000
  F   F261      1.0  0.25317  0.26167  0.98970  1.0000
  F   F262      1.0  0.25642  0.25804  0.49266  1.0000
  F   F263      1.0  0.24965  0.74693  0.00631  1.0000
  F   F264      1.0  0.24586  0.74668  0.50705  1.0000
  F   F265      1.0  0.50172  0.26081  0.99104  1.0000
  F   F266      1.0  0.49782  0.25698  0.50424  1.0000
  F   F267      1.0  0.49913  0.74027  0.99188  1.0000
  F   F268      1.0  0.49713  0.72306  0.51020  1.0000
  F   F269      1.0  0.74803  0.24032  0.00190  1.0000
  F   F270      1.0  0.74062  0.22801  0.51976  1.0000
  F   F271      1.0  0.74831  0.73632  0.00261  1.0000
  F   F272      1.0  0.75201  0.75097  0.49606  1.0000
  F   F273      1.0  0.11788  0.99364  0.25331  1.0000
  F   F274      1.0  0.12632  0.01108  0.75309  1.0000
  F   F275      1.0  0.12358  0.49973  0.24735  1.0000
  F   F276      1.0  0.12057  0.50012  0.74460  1.0000
  F   F277      1.0  0.38546  0.01084  0.22951  1.0000
  F   F278      1.0  0.38608  0.00582  0.73211  1.0000
  F   F279      1.0  0.37951  0.49571  0.24567  1.0000
  F   F280      1.0  0.37143  0.48985  0.75324  1.0000
  F   F281      1.0  0.62479  0.00376  0.25093  1.0000
  F   F282      1.0  0.62682  0.99989  0.74517  1.0000
  F   F283      1.0  0.62683  0.49297  0.25017  1.0000
  F   F284      1.0  0.61309  0.48328  0.77201  1.0000
  F   F285      1.0  0.86963  0.98817  0.26313  1.0000
  F   F286      1.0  0.88475  0.00496  0.73285  1.0000
  F   F287      1.0  0.87168  0.49260  0.25605  1.0000
  F   F288      1.0  0.86860  0.49158  0.76189  1.0000
  F   F289      1.0  0.03974  0.03340  0.01603  1.0000
  F   F290      1.0  0.05081  0.02635  0.50970  1.0000
  F   F291      1.0  0.04854  0.52553  0.02192  1.0000
  F   F292      1.0  0.04412  0.54393  0.52257  1.0000
  F   F293      1.0  0.29259  0.03964  0.01746  1.0000
  F   F294      1.0  0.29618  0.03402  0.52223  1.0000
  F   F295      1.0  0.29764  0.53252  0.01685  1.0000
  F   F296      1.0  0.28966  0.52469  0.52093  1.0000
  F   F297      1.0  0.53958  0.02796  0.04030  1.0000
  F   F298      1.0  0.55168  0.01728  0.51856  1.0000
  F   F299      1.0  0.53814  0.52563  0.02646  1.0000
  F   F300      1.0  0.54166  0.52931  0.51206  1.0000
  F   F301      1.0  0.79489  0.03049  0.01981  1.0000
  F   F302      1.0  0.79474  0.02886  0.53955  1.0000
  F   F303      1.0  0.79418  0.52808  0.02019  1.0000
  F   F304      1.0  0.78962  0.52268  0.52613  1.0000
  F   F305      1.0  0.23578  0.43035  0.21925  1.0000
  F   F306      1.0  0.23312  0.41093  0.72971  1.0000
  F   F307      1.0  0.23984  0.92180  0.21739  1.0000
  F   F308      1.0  0.23335  0.90877  0.73285  1.0000
  F   F309      1.0  0.49149  0.39384  0.24486  1.0000
  F   F310      1.0  0.48360  0.40676  0.72366  1.0000
  F   F311      1.0  0.48371  0.91047  0.23396  1.0000
  F   F312      1.0  0.48550  0.92770  0.70702  1.0000
  F   F313      1.0  0.73298  0.42094  0.22379  1.0000
  F   F314      1.0  0.73510  0.41547  0.72672  1.0000
  F   F315      1.0  0.73465  0.91611  0.22718  1.0000
  F   F316      1.0  0.73020  0.91188  0.73603  1.0000
  F   F317      1.0  0.98430  0.41793  0.23012  1.0000
  F   F318      1.0  0.98726  0.41762  0.72575  1.0000
  F   F319      1.0  0.98201  0.91865  0.21519  1.0000
  F   F320      1.0  0.99142  0.92325  0.71478  1.0000
  F   F321      1.0  0.20950  0.47467  0.48249  1.0000
  F   F322      1.0  0.20234  0.47978  0.97730  1.0000
  F   F323      1.0  0.19662  0.98325  0.48515  1.0000
  F   F324      1.0  0.20802  0.97862  0.97447  1.0000
  F   F325      1.0  0.45277  0.47837  0.48620  1.0000
  F   F326      1.0  0.46285  0.47325  0.96374  1.0000
  F   F327      1.0  0.46107  0.96123  0.47475  1.0000
  F   F328      1.0  0.45814  0.96830  0.97198  1.0000
  F   F329      1.0  0.71841  0.45651  0.46896  1.0000
  F   F330      1.0  0.69727  0.47265  0.99511  1.0000
  F   F331      1.0  0.70771  0.95958  0.48197  1.0000
  F   F332      1.0  0.70608  0.96526  0.98261  1.0000
  F   F333      1.0  0.95355  0.47106  0.47984  1.0000
  F   F334      1.0  0.95106  0.47066  0.98716  1.0000
  F   F335      1.0  0.96118  0.97524  0.48358  1.0000
  F   F336      1.0  0.96048  0.97322  0.96821  1.0000
  F   F337      1.0  0.01897  0.08198  0.27838  1.0000
  F   F338      1.0  0.01737  0.08971  0.76449  1.0000
  F   F339      1.0  0.01758  0.60164  0.25501  1.0000
  F   F340      1.0  0.01663  0.59602  0.75934  1.0000
  F   F341      1.0  0.26256  0.08447  0.27001  1.0000
  F   F342      1.0  0.26788  0.08801  0.78272  1.0000
  F   F343      1.0  0.26068  0.59129  0.27504  1.0000
  F   F344      1.0  0.26095  0.57279  0.79249  1.0000
  F   F345      1.0  0.51313  0.09930  0.28826  1.0000
  F   F346      1.0  0.51752  0.07495  0.78103  1.0000
  F   F347      1.0  0.51538  0.58757  0.27159  1.0000
  F   F348      1.0  0.51256  0.58244  0.76716  1.0000
  F   F349      1.0  0.76228  0.08869  0.27164  1.0000
  F   F350      1.0  0.76212  0.08802  0.77415  1.0000
  F   F351      1.0  0.76490  0.58666  0.27388  1.0000
  F   F352      1.0  0.76811  0.56735  0.78631  1.0000
  F   F353      1.0  0.09969  0.41785  0.46059  1.0000
  F   F354      1.0  0.10791  0.40738  0.96207  1.0000
  F   F355      1.0  0.10471  0.89489  0.45356  1.0000
  F   F356      1.0  0.10066  0.91652  0.95696  1.0000
  F   F357      1.0  0.35043  0.40108  0.46031  1.0000
  F   F358      1.0  0.34954  0.41037  0.96937  1.0000
  F   F359      1.0  0.34061  0.89540  0.47538  1.0000
  F   F360      1.0  0.35007  0.92595  0.96158  1.0000
  F   F361      1.0  0.59773  0.40358  0.46488  1.0000
  F   F362      1.0  0.60138  0.40864  0.95869  1.0000
  F   F363      1.0  0.60315  0.90462  0.45704  1.0000
  F   F364      1.0  0.59827  0.90656  0.96670  1.0000
  F   F365      1.0  0.84597  0.40280  0.46975  1.0000
  F   F366      1.0  0.84813  0.40846  0.96415  1.0000
  F   F367      1.0  0.85597  0.89441  0.47127  1.0000
  F   F368      1.0  0.85343  0.90573  0.94645  1.0000
  F   F369      1.0  0.03922  0.29604  0.27747  1.0000
  F   F370      1.0  0.04062  0.30113  0.78607  1.0000
  F   F371      1.0  0.04583  0.80580  0.28660  1.0000
  F   F372      1.0  0.04229  0.80117  0.79443  1.0000
  F   F373      1.0  0.29839  0.30536  0.28872  1.0000
  F   F374      1.0  0.29545  0.29433  0.78184  1.0000
  F   F375      1.0  0.29539  0.79376  0.28326  1.0000
  F   F376      1.0  0.30147  0.80077  0.78565  1.0000
  F   F377      1.0  0.54848  0.28726  0.29556  1.0000
  F   F378      1.0  0.54991  0.28994  0.78386  1.0000
  F   F379      1.0  0.54285  0.79847  0.28846  1.0000
  F   F380      1.0  0.55003  0.80241  0.78281  1.0000
  F   F381      1.0  0.79333  0.29844  0.28163  1.0000
  F   F382      1.0  0.79360  0.30191  0.79385  1.0000
  F   F383      1.0  0.79989  0.80122  0.28474  1.0000
  F   F384      1.0  0.79677  0.79179  0.79445  1.0000
