data_image0
_chemical_formula_structural       Hf96F384
_chemical_formula_sum              "Hf96 F384"
_cell_length_a       31.0121
_cell_length_b       15.5089
_cell_length_c       15.5002
_cell_angle_alpha    63.342
_cell_angle_beta     63.342
_cell_angle_gamma    80.1625

_space_group_name_H-M_alt    "P 1"
_space_group_IT_number       1

loop_
  _space_group_symop_operation_xyz
  'x, y, z'

loop_
  _atom_site_type_symbol
  _atom_site_label
  _atom_site_symmetry_multiplicity
  _atom_site_fract_x
  _atom_site_fract_y
  _atom_site_fract_z
  _atom_site_occupancy
  Hf  Hf1       1.0  0.19645  0.10319  0.37651  1.0000
  Hf  Hf2       1.0  0.19552  0.10461  0.87570  1.0000
  Hf  Hf3       1.0  0.19878  0.60746  0.36536  1.0000
  Hf  Hf4       1.0  0.19645  0.60038  0.87431  1.0000
  Hf  Hf5       1.0  0.44746  0.11101  0.36296  1.0000
  Hf  Hf6       1.0  0.44574  0.10470  0.87403  1.0000
  Hf  Hf7       1.0  0.44813  0.60994  0.37545  1.0000
  Hf  Hf8       1.0  0.44589  0.60916  0.86874  1.0000
  Hf  Hf9       1.0  0.69218  0.10457  0.38729  1.0000
  Hf  Hf10      1.0  0.69450  0.11203  0.87777  1.0000
  Hf  Hf11      1.0  0.70017  0.61714  0.36017  1.0000
  Hf  Hf12      1.0  0.69753  0.61636  0.86713  1.0000
  Hf  Hf13      1.0  0.94651  0.10849  0.37210  1.0000
  Hf  Hf14      1.0  0.94268  0.10508  0.88948  1.0000
  Hf  Hf15      1.0  0.94925  0.60438  0.37622  1.0000
  Hf  Hf16      1.0  0.94957  0.60436  0.87134  1.0000
  Hf  Hf17      1.0  0.05445  0.39654  0.12110  1.0000
  Hf  Hf18      1.0  0.05577  0.38573  0.62511  1.0000
  Hf  Hf19      1.0  0.05418  0.88794  0.13454  1.0000
  Hf  Hf20      1.0  0.05072  0.88602  0.63285  1.0000
  Hf  Hf21      1.0  0.30522  0.39101  0.12933  1.0000
  Hf  Hf22      1.0  0.30353  0.39167  0.62806  1.0000
  Hf  Hf23      1.0  0.30260  0.88584  0.13839  1.0000
  Hf  Hf24      1.0  0.30055  0.89102  0.62694  1.0000
  Hf  Hf25      1.0  0.55334  0.40192  0.12611  1.0000
  Hf  Hf26      1.0  0.55480  0.39779  0.62181  1.0000
  Hf  Hf27      1.0  0.55211  0.89608  0.12863  1.0000
  Hf  Hf28      1.0  0.55263  0.89738  0.62703  1.0000
  Hf  Hf29      1.0  0.80468  0.39680  0.12017  1.0000
  Hf  Hf30      1.0  0.80630  0.38853  0.62620  1.0000
  Hf  Hf31      1.0  0.80522  0.89306  0.12330  1.0000
  Hf  Hf32      1.0  0.80150  0.89827  0.61975  1.0000
  Hf  Hf33      1.0  0.05849  0.17583  0.41598  1.0000
  Hf  Hf34      1.0  0.05501  0.18331  0.91541  1.0000
  Hf  Hf35      1.0  0.05818  0.67931  0.41752  1.0000
  Hf  Hf36      1.0  0.05594  0.67614  0.91623  1.0000
  Hf  Hf37      1.0  0.30629  0.18231  0.41650  1.0000
  Hf  Hf38      1.0  0.30744  0.17687  0.91856  1.0000
  Hf  Hf39      1.0  0.30603  0.67460  0.41979  1.0000
  Hf  Hf40      1.0  0.30670  0.68634  0.91320  1.0000
  Hf  Hf41      1.0  0.55660  0.18655  0.41509  1.0000
  Hf  Hf42      1.0  0.55381  0.18237  0.91381  1.0000
  Hf  Hf43      1.0  0.55795  0.69499  0.40835  1.0000
  Hf  Hf44      1.0  0.55328  0.67969  0.91914  1.0000
  Hf  Hf45      1.0  0.80588  0.18570  0.41062  1.0000
  Hf  Hf46      1.0  0.80043  0.18020  0.92580  1.0000
  Hf  Hf47      1.0  0.80709  0.68127  0.41756  1.0000
  Hf  Hf48      1.0  0.80733  0.67698  0.91194  1.0000
  Hf  Hf49      1.0  0.15903  0.38631  0.33277  1.0000
  Hf  Hf50      1.0  0.15724  0.38252  0.83848  1.0000
  Hf  Hf51      1.0  0.15870  0.88073  0.34127  1.0000
  Hf  Hf52      1.0  0.15852  0.88114  0.84236  1.0000
  Hf  Hf53      1.0  0.40914  0.38386  0.33369  1.0000
  Hf  Hf54      1.0  0.40638  0.38163  0.83948  1.0000
  Hf  Hf55      1.0  0.40412  0.88925  0.33854  1.0000
  Hf  Hf56      1.0  0.40993  0.88970  0.83108  1.0000
  Hf  Hf57      1.0  0.65643  0.38559  0.33092  1.0000
  Hf  Hf58      1.0  0.66146  0.39812  0.82666  1.0000
  Hf  Hf59      1.0  0.65575  0.89126  0.33148  1.0000
  Hf  Hf60      1.0  0.65815  0.89255  0.83455  1.0000
  Hf  Hf61      1.0  0.91071  0.38805  0.33161  1.0000
  Hf  Hf62      1.0  0.91055  0.39409  0.82736  1.0000
  Hf  Hf63      1.0  0.91169  0.89423  0.33064  1.0000
  Hf  Hf64      1.0  0.90460  0.88154  0.84132  1.0000
  Hf  Hf65      1.0  0.19228  0.31539  0.09113  1.0000
  Hf  Hf66      1.0  0.19457  0.31853  0.58103  1.0000
  Hf  Hf67      1.0  0.19541  0.82035  0.08495  1.0000
  Hf  Hf68      1.0  0.19515  0.81434  0.58299  1.0000
  Hf  Hf69      1.0  0.44705  0.32119  0.08181  1.0000
  Hf  Hf70      1.0  0.44236  0.31691  0.58518  1.0000
  Hf  Hf71      1.0  0.44213  0.81884  0.08774  1.0000
  Hf  Hf72      1.0  0.44119  0.82061  0.58401  1.0000
  Hf  Hf73      1.0  0.69147  0.32036  0.08581  1.0000
  Hf  Hf74      1.0  0.69993  0.32831  0.56909  1.0000
  Hf  Hf75      1.0  0.69459  0.82090  0.07980  1.0000
  Hf  Hf76      1.0  0.69302  0.82087  0.57866  1.0000
  Hf  Hf77      1.0  0.94290  0.31264  0.08522  1.0000
  Hf  Hf78      1.0  0.94732  0.31058  0.58775  1.0000
  Hf  Hf79      1.0  0.94315  0.80678  0.09188  1.0000
  Hf  Hf80      1.0  0.94517  0.81964  0.58576  1.0000
  Hf  Hf81      1.0  0.09273  0.11337  0.16351  1.0000
  Hf  Hf82      1.0  0.09207  0.10771  0.67075  1.0000
  Hf  Hf83      1.0  0.09275  0.61229  0.16368  1.0000
  Hf  Hf84      1.0  0.09602  0.60849  0.66161  1.0000
  Hf  Hf85      1.0  0.34246  0.11293  0.16491  1.0000
  Hf  Hf86      1.0  0.34148  0.11518  0.67009  1.0000
  Hf  Hf87      1.0  0.34416  0.60671  0.16347  1.0000
  Hf  Hf88      1.0  0.34139  0.61296  0.66916  1.0000
  Hf  Hf89      1.0  0.58658  0.11938  0.16407  1.0000
  Hf  Hf90      1.0  0.59047  0.10855  0.66439  1.0000
  Hf  Hf91      1.0  0.59138  0.61419  0.16708  1.0000
  Hf  Hf92      1.0  0.58995  0.61455  0.66312  1.0000
  Hf  Hf93      1.0  0.83657  0.11550  0.17109  1.0000
  Hf  Hf94      1.0  0.83788  0.11390  0.67235  1.0000
  Hf  Hf95      1.0  0.84239  0.61064  0.16635  1.0000
  Hf  Hf96      1.0  0.84600  0.62007  0.65224  1.0000
  F   F1        1.0  0.07702  0.12646  0.30501  1.0000
  F   F2        1.0  0.07986  0.11288  0.80881  1.0000
  F   F3        1.0  0.08552  0.63960  0.29005  1.0000
  F   F4        1.0  0.08122  0.62051  0.80802  1.0000
  F   F5        1.0  0.32759  0.11743  0.30345  1.0000
  F   F6        1.0  0.32849  0.11552  0.81045  1.0000
  F   F7        1.0  0.33228  0.61710  0.31234  1.0000
  F   F8        1.0  0.32667  0.62305  0.80519  1.0000
  F   F9        1.0  0.57088  0.12446  0.31377  1.0000
  F   F10       1.0  0.57663  0.11666  0.80666  1.0000
  F   F11       1.0  0.58429  0.64230  0.29667  1.0000
  F   F12       1.0  0.58023  0.63798  0.80227  1.0000
  F   F13       1.0  0.82439  0.11404  0.31208  1.0000
  F   F14       1.0  0.81969  0.12739  0.81346  1.0000
  F   F15       1.0  0.83218  0.63020  0.29981  1.0000
  F   F16       1.0  0.82674  0.62385  0.79333  1.0000
  F   F17       1.0  0.19420  0.33496  0.43170  1.0000
  F   F18       1.0  0.17373  0.32460  0.97637  1.0000
  F   F19       1.0  0.18613  0.83285  0.45295  1.0000
  F   F20       1.0  0.18807  0.84338  0.94484  1.0000
  F   F21       1.0  0.44080  0.33913  0.44966  1.0000
  F   F22       1.0  0.43225  0.34115  0.94969  1.0000
  F   F23       1.0  0.42391  0.84289  0.45131  1.0000
  F   F24       1.0  0.43528  0.84018  0.95789  1.0000
  F   F25       1.0  0.68585  0.35070  0.43403  1.0000
  F   F26       1.0  0.68043  0.33895  0.95175  1.0000
  F   F27       1.0  0.68287  0.84454  0.43956  1.0000
  F   F28       1.0  0.68486  0.85118  0.94560  1.0000
  F   F29       1.0  0.93142  0.32879  0.45582  1.0000
  F   F30       1.0  0.93546  0.32763  0.94987  1.0000
  F   F31       1.0  0.93407  0.84739  0.45043  1.0000
  F   F32       1.0  0.93308  0.83540  0.95120  1.0000
  F   F33       1.0  0.16992  0.38789  0.19276  1.0000
  F   F34       1.0  0.17081  0.36116  0.70150  1.0000
  F   F35       1.0  0.16883  0.84982  0.21544  1.0000
  F   F36       1.0  0.17272  0.85839  0.70290  1.0000
  F   F37       1.0  0.42239  0.37096  0.19905  1.0000
  F   F38       1.0  0.41337  0.36409  0.71021  1.0000
  F   F39       1.0  0.41480  0.86200  0.20727  1.0000
  F   F40       1.0  0.42464  0.89167  0.68424  1.0000
  F   F41       1.0  0.66917  0.39411  0.18170  1.0000
  F   F42       1.0  0.67187  0.39567  0.68552  1.0000
  F   F43       1.0  0.67235  0.86736  0.19873  1.0000
  F   F44       1.0  0.67056  0.86175  0.70229  1.0000
  F   F45       1.0  0.92646  0.37209  0.17999  1.0000
  F   F46       1.0  0.92032  0.36946  0.69349  1.0000
  F   F47       1.0  0.92061  0.87229  0.19744  1.0000
  F   F48       1.0  0.92528  0.88480  0.69203  1.0000
  F   F49       1.0  0.06849  0.16598  0.04113  1.0000
  F   F50       1.0  0.06375  0.15721  0.55397  1.0000
  F   F51       1.0  0.06298  0.65514  0.05321  1.0000
  F   F52       1.0  0.06509  0.65434  0.55299  1.0000
  F   F53       1.0  0.30473  0.14923  0.06377  1.0000
  F   F54       1.0  0.31741  0.16539  0.55289  1.0000
  F   F55       1.0  0.32595  0.66451  0.03809  1.0000
  F   F56       1.0  0.31826  0.65621  0.55201  1.0000
  F   F57       1.0  0.55889  0.16218  0.05924  1.0000
  F   F58       1.0  0.56582  0.16645  0.54323  1.0000
  F   F59       1.0  0.56442  0.64728  0.06093  1.0000
  F   F60       1.0  0.55672  0.66115  0.55291  1.0000
  F   F61       1.0  0.80460  0.14404  0.06867  1.0000
  F   F62       1.0  0.81745  0.16990  0.54747  1.0000
  F   F63       1.0  0.82078  0.66330  0.04087  1.0000
  F   F64       1.0  0.81982  0.66771  0.54075  1.0000
  F   F65       1.0  0.20205  0.20183  0.21378  1.0000
  F   F66       1.0  0.21170  0.19441  0.70308  1.0000
  F   F67       1.0  0.20834  0.69733  0.20929  1.0000
  F   F68       1.0  0.19989  0.69203  0.72552  1.0000
  F   F69       1.0  0.46164  0.20268  0.20098  1.0000
  F   F70       1.0  0.45251  0.19798  0.71078  1.0000
  F   F71       1.0  0.45959  0.69835  0.21458  1.0000
  F   F72       1.0  0.45448  0.70467  0.71099  1.0000
  F   F73       1.0  0.70345  0.22171  0.21887  1.0000
  F   F74       1.0  0.69728  0.21213  0.68922  1.0000
  F   F75       1.0  0.71855  0.70971  0.19384  1.0000
  F   F76       1.0  0.70164  0.70633  0.71695  1.0000
  F   F77       1.0  0.95679  0.20458  0.21125  1.0000
  F   F78       1.0  0.95210  0.19458  0.70939  1.0000
  F   F79       1.0  0.94689  0.69285  0.21807  1.0000
  F   F80       1.0  0.95707  0.70231  0.70476  1.0000
  F   F81       1.0  0.14983  0.07621  0.03846  1.0000
  F   F82       1.0  0.14572  0.09185  0.53778  1.0000
  F   F83       1.0  0.15365  0.60633  0.03425  1.0000
  F   F84       1.0  0.15355  0.59128  0.53395  1.0000
  F   F85       1.0  0.39620  0.09086  0.03498  1.0000
  F   F86       1.0  0.39969  0.10033  0.53771  1.0000
  F   F87       1.0  0.39934  0.59282  0.03583  1.0000
  F   F88       1.0  0.40187  0.58654  0.55504  1.0000
  F   F89       1.0  0.64204  0.10948  0.03464  1.0000
  F   F90       1.0  0.64239  0.05819  0.54186  1.0000
  F   F91       1.0  0.64802  0.58835  0.04735  1.0000
  F   F92       1.0  0.64791  0.60941  0.53585  1.0000
  F   F93       1.0  0.89599  0.10598  0.03447  1.0000
  F   F94       1.0  0.89722  0.08442  0.53570  1.0000
  F   F95       1.0  0.90414  0.58525  0.03417  1.0000
  F   F96       1.0  0.90299  0.58730  0.54248  1.0000
  F   F97       1.0  0.14800  0.18964  0.14364  1.0000
  F   F98       1.0  0.15382  0.19412  0.63428  1.0000
  F   F99       1.0  0.15708  0.69871  0.12449  1.0000
  F   F100      1.0  0.15315  0.69874  0.61905  1.0000
  F   F101      1.0  0.40408  0.19228  0.13150  1.0000
  F   F102      1.0  0.39972  0.19825  0.62508  1.0000
  F   F103      1.0  0.40058  0.69958  0.14030  1.0000
  F   F104      1.0  0.39897  0.69590  0.63591  1.0000
  F   F105      1.0  0.64923  0.19940  0.14990  1.0000
  F   F106      1.0  0.64559  0.19174  0.60423  1.0000
  F   F107      1.0  0.65824  0.69477  0.12556  1.0000
  F   F108      1.0  0.65214  0.69800  0.63291  1.0000
  F   F109      1.0  0.89649  0.19740  0.13269  1.0000
  F   F110      1.0  0.89677  0.18036  0.64165  1.0000
  F   F111      1.0  0.90360  0.69074  0.12070  1.0000
  F   F112      1.0  0.90511  0.70617  0.62151  1.0000
  F   F113      1.0  0.09626  0.30074  0.37077  1.0000
  F   F114      1.0  0.09463  0.32139  0.86792  1.0000
  F   F115      1.0  0.09710  0.79758  0.38384  1.0000
  F   F116      1.0  0.09473  0.80114  0.87906  1.0000
  F   F117      1.0  0.34938  0.30524  0.35967  1.0000
  F   F118      1.0  0.34542  0.29332  0.90391  1.0000
  F   F119      1.0  0.34408  0.80615  0.38867  1.0000
  F   F120      1.0  0.34543  0.80945  0.84848  1.0000
  F   F121      1.0  0.60068  0.30693  0.35661  1.0000
  F   F122      1.0  0.60738  0.30439  0.88844  1.0000
  F   F123      1.0  0.59452  0.81271  0.38066  1.0000
  F   F124      1.0  0.58972  0.79443  0.89334  1.0000
  F   F125      1.0  0.84820  0.31299  0.35703  1.0000
  F   F126      1.0  0.85575  0.30975  0.88888  1.0000
  F   F127      1.0  0.85157  0.79709  0.36431  1.0000
  F   F128      1.0  0.84558  0.80911  0.86177  1.0000
  F   F129      1.0  0.06665  0.26009  0.13151  1.0000
  F   F130      1.0  0.07022  0.24833  0.63904  1.0000
  F   F131      1.0  0.07169  0.75829  0.12542  1.0000
  F   F132      1.0  0.06842  0.75068  0.63574  1.0000
  F   F133      1.0  0.31553  0.25485  0.13235  1.0000
  F   F134      1.0  0.31326  0.24898  0.65348  1.0000
  F   F135      1.0  0.31750  0.74676  0.14262  1.0000
  F   F136      1.0  0.31591  0.75661  0.63224  1.0000
  F   F137      1.0  0.56620  0.25157  0.13934  1.0000
  F   F138      1.0  0.55687  0.24551  0.66190  1.0000
  F   F139      1.0  0.56625  0.75255  0.14307  1.0000
  F   F140      1.0  0.57146  0.75750  0.63319  1.0000
  F   F141      1.0  0.81825  0.25819  0.12088  1.0000
  F   F142      1.0  0.80911  0.24904  0.64293  1.0000
  F   F143      1.0  0.80639  0.75151  0.14871  1.0000
  F   F144      1.0  0.81641  0.76184  0.62579  1.0000
  F   F145      1.0  0.12289  0.37821  0.11417  1.0000
  F   F146      1.0  0.12703  0.37463  0.60706  1.0000
  F   F147      1.0  0.12575  0.87721  0.11330  1.0000
  F   F148      1.0  0.12502  0.87250  0.61210  1.0000
  F   F149      1.0  0.37455  0.36829  0.12142  1.0000
  F   F150      1.0  0.37929  0.38752  0.59226  1.0000
  F   F151      1.0  0.37439  0.87373  0.09720  1.0000
  F   F152      1.0  0.37171  0.87488  0.60446  1.0000
  F   F153      1.0  0.62339  0.37716  0.11057  1.0000
  F   F154      1.0  0.62454  0.36354  0.60388  1.0000
  F   F155      1.0  0.62180  0.86283  0.12599  1.0000
  F   F156      1.0  0.62574  0.87954  0.59859  1.0000
  F   F157      1.0  0.87370  0.37291  0.11110  1.0000
  F   F158      1.0  0.87273  0.35410  0.61623  1.0000
  F   F159      1.0  0.87248  0.85084  0.12161  1.0000
  F   F160      1.0  0.87320  0.89149  0.60873  1.0000
  F   F161      1.0  0.18198  0.25010  0.35600  1.0000
  F   F162      1.0  0.18409  0.24389  0.87468  1.0000
  F   F163      1.0  0.18850  0.73977  0.35538  1.0000
  F   F164      1.0  0.17818  0.74660  0.87008  1.0000
  F   F165      1.0  0.43463  0.25095  0.35753  1.0000
  F   F166      1.0  0.43280  0.24585  0.86895  1.0000
  F   F167      1.0  0.43360  0.74274  0.36797  1.0000
  F   F168      1.0  0.43082  0.75236  0.86493  1.0000
  F   F169      1.0  0.67432  0.23893  0.38312  1.0000
  F   F170      1.0  0.69641  0.24868  0.83274  1.0000
  F   F171      1.0  0.69063  0.75489  0.34384  1.0000
  F   F172      1.0  0.67565  0.74549  0.88052  1.0000
  F   F173      1.0  0.93147  0.24609  0.36226  1.0000
  F   F174      1.0  0.93879  0.25196  0.83893  1.0000
  F   F175      1.0  0.93832  0.74879  0.36666  1.0000
  F   F176      1.0  0.93346  0.74855  0.85863  1.0000
  F   F177      1.0  0.12430  0.12373  0.38928  1.0000
  F   F178      1.0  0.13026  0.15056  0.86922  1.0000
  F   F179      1.0  0.12538  0.62610  0.39935  1.0000
  F   F180      1.0  0.12078  0.61488  0.91093  1.0000
  F   F181      1.0  0.37708  0.14140  0.37147  1.0000
  F   F182      1.0  0.38068  0.14676  0.86876  1.0000
  F   F183      1.0  0.37764  0.63479  0.39568  1.0000
  F   F184      1.0  0.37627  0.61831  0.89349  1.0000
  F   F185      1.0  0.62439  0.12500  0.39261  1.0000
  F   F186      1.0  0.62586  0.14554  0.87800  1.0000
  F   F187      1.0  0.63154  0.64635  0.37612  1.0000
  F   F188      1.0  0.62398  0.61852  0.90438  1.0000
  F   F189      1.0  0.87399  0.11980  0.39085  1.0000
  F   F190      1.0  0.86917  0.14617  0.89283  1.0000
  F   F191      1.0  0.87463  0.61828  0.39080  1.0000
  F   F192      1.0  0.87723  0.63582  0.87832  1.0000
  F   F193      1.0  0.01063  0.35561  0.06567  1.0000
  F   F194      1.0  0.00893  0.35162  0.58391  1.0000
  F   F195      1.0  0.00890  0.85133  0.08035  1.0000
  F   F196      1.0  0.00712  0.86004  0.56717  1.0000
  F   F197      1.0  0.24918  0.36691  0.09100  1.0000
  F   F198      1.0  0.25185  0.35421  0.59525  1.0000
  F   F199      1.0  0.25787  0.85895  0.09078  1.0000
  F   F200      1.0  0.25523  0.87007  0.56946  1.0000
  F   F201      1.0  0.51027  0.36275  0.07026  1.0000
  F   F202      1.0  0.50783  0.37122  0.56941  1.0000
  F   F203      1.0  0.50363  0.86350  0.08557  1.0000
  F   F204      1.0  0.50855  0.86881  0.57638  1.0000
  F   F205      1.0  0.75681  0.36411  0.07747  1.0000
  F   F206      1.0  0.76251  0.35816  0.56338  1.0000
  F   F207      1.0  0.75857  0.87804  0.06030  1.0000
  F   F208      1.0  0.75715  0.87516  0.56549  1.0000
  F   F209      1.0  0.06594  0.48583  0.18310  1.0000
  F   F210      1.0  0.07590  0.48317  0.66163  1.0000
  F   F211      1.0  0.06594  0.98650  0.18044  1.0000
  F   F212      1.0  0.06494  0.98688  0.68666  1.0000
  F   F213      1.0  0.32341  0.48228  0.17264  1.0000
  F   F214      1.0  0.31526  0.49419  0.67498  1.0000
  F   F215      1.0  0.31713  0.99116  0.17469  1.0000
  F   F216      1.0  0.32098  0.98747  0.68090  1.0000
  F   F217      1.0  0.56751  0.48754  0.17582  1.0000
  F   F218      1.0  0.57041  0.49137  0.66118  1.0000
  F   F219      1.0  0.56697  0.99179  0.16169  1.0000
  F   F220      1.0  0.56692  0.98474  0.68414  1.0000
  F   F221      1.0  0.81924  0.48944  0.16558  1.0000
  F   F222      1.0  0.82107  0.48686  0.67814  1.0000
  F   F223      1.0  0.81804  0.98762  0.17657  1.0000
  F   F224      1.0  0.81040  0.98773  0.67825  1.0000
  F   F225      1.0  0.24299  0.12735  0.42978  1.0000
  F   F226      1.0  0.24084  0.13082  0.94205  1.0000
  F   F227      1.0  0.24651  0.62934  0.42957  1.0000
  F   F228      1.0  0.23934  0.63757  0.92810  1.0000
  F   F229      1.0  0.49096  0.14307  0.41885  1.0000
  F   F230      1.0  0.49247  0.13584  0.91848  1.0000
  F   F231      1.0  0.49525  0.64994  0.41903  1.0000
  F   F232      1.0  0.49391  0.63939  0.91039  1.0000
  F   F233      1.0  0.74095  0.13453  0.43009  1.0000
  F   F234      1.0  0.73733  0.12960  0.94511  1.0000
  F   F235      1.0  0.74533  0.62790  0.42396  1.0000
  F   F236      1.0  0.74174  0.62592  0.93142  1.0000
  F   F237      1.0  0.99025  0.14444  0.42907  1.0000
  F   F238      1.0  0.99653  0.11917  0.93601  1.0000
  F   F239      1.0  0.99359  0.62926  0.42459  1.0000
  F   F240      1.0  0.99446  0.63103  0.91969  1.0000
  F   F241      1.0  0.18231  0.01490  0.31406  1.0000
  F   F242      1.0  0.17482  0.00965  0.84218  1.0000
  F   F243      1.0  0.17464  0.51775  0.32573  1.0000
  F   F244      1.0  0.18368  0.50305  0.82702  1.0000
  F   F245      1.0  0.42595  0.01668  0.32113  1.0000
  F   F246      1.0  0.42867  0.01264  0.83222  1.0000
  F   F247      1.0  0.42696  0.51272  0.32950  1.0000
  F   F248      1.0  0.43584  0.50874  0.82313  1.0000
  F   F249      1.0  0.67959  0.02019  0.31485  1.0000
  F   F250      1.0  0.68368  0.02261  0.82267  1.0000
  F   F251      1.0  0.68205  0.52032  0.32078  1.0000
  F   F252      1.0  0.68449  0.52432  0.80109  1.0000
  F   F253      1.0  0.92914  0.01954  0.32100  1.0000
  F   F254      1.0  0.92110  0.01671  0.83843  1.0000
  F   F255      1.0  0.93664  0.50602  0.32695  1.0000
  F   F256      1.0  0.92704  0.51270  0.82818  1.0000
  F   F257      1.0  0.99600  0.24027  0.00625  1.0000
  F   F258      1.0  0.00183  0.25565  0.49460  1.0000
  F   F259      1.0  0.99932  0.74384  0.99544  1.0000
  F   F260      1.0  0.00116  0.74267  0.49520  1.0000
  F   F261      1.0  0.24993  0.25690  0.99794  1.0000
  F   F262      1.0  0.25055  0.24538  0.50205  1.0000
  F   F263      1.0  0.25555  0.75590  0.00634  1.0000
  F   F264      1.0  0.24942  0.73704  0.51679  1.0000
  F   F265      1.0  0.50198  0.25374  0.98449  1.0000
  F   F266      1.0  0.50179  0.25456  0.49412  1.0000
  F   F267      1.0  0.49434  0.74098  0.00560  1.0000
  F   F268      1.0  0.49922  0.77669  0.49222  1.0000
  F   F269      1.0  0.74641  0.26049  0.00814  1.0000
  F   F270      1.0  0.75210  0.26220  0.47373  1.0000
  F   F271      1.0  0.75393  0.75717  0.99033  1.0000
  F   F272      1.0  0.74887  0.73962  0.51214  1.0000
  F   F273      1.0  0.12541  0.98914  0.24947  1.0000
  F   F274      1.0  0.13665  0.99015  0.74186  1.0000
  F   F275      1.0  0.12453  0.50192  0.24681  1.0000
  F   F276      1.0  0.12747  0.49686  0.74815  1.0000
  F   F277      1.0  0.37831  0.00206  0.23183  1.0000
  F   F278      1.0  0.37769  0.00746  0.75384  1.0000
  F   F279      1.0  0.37958  0.49617  0.24078  1.0000
  F   F280      1.0  0.36775  0.49104  0.76829  1.0000
  F   F281      1.0  0.62344  0.00682  0.23558  1.0000
  F   F282      1.0  0.62917  0.99873  0.74323  1.0000
  F   F283      1.0  0.62467  0.50622  0.25312  1.0000
  F   F284      1.0  0.60965  0.49177  0.76639  1.0000
  F   F285      1.0  0.88080  0.00157  0.23781  1.0000
  F   F286      1.0  0.86366  0.99004  0.76626  1.0000
  F   F287      1.0  0.88020  0.50297  0.24340  1.0000
  F   F288      1.0  0.88285  0.50482  0.74017  1.0000
  F   F289      1.0  0.04180  0.02063  0.03315  1.0000
  F   F290      1.0  0.04365  0.02292  0.52274  1.0000
  F   F291      1.0  0.03780  0.52576  0.02788  1.0000
  F   F292      1.0  0.04456  0.52178  0.52289  1.0000
  F   F293      1.0  0.30529  0.01932  0.00244  1.0000
  F   F294      1.0  0.29411  0.03652  0.53887  1.0000
  F   F295      1.0  0.29503  0.53603  0.02679  1.0000
  F   F296      1.0  0.29215  0.52278  0.53046  1.0000
  F   F297      1.0  0.54188  0.03013  0.02072  1.0000
  F   F298      1.0  0.53721  0.04433  0.52478  1.0000
  F   F299      1.0  0.53738  0.53927  0.03185  1.0000
  F   F300      1.0  0.55184  0.53413  0.50546  1.0000
  F   F301      1.0  0.80282  0.02363  0.00665  1.0000
  F   F302      1.0  0.78824  0.03297  0.53368  1.0000
  F   F303      1.0  0.79332  0.53508  0.02346  1.0000
  F   F304      1.0  0.79538  0.52782  0.53408  1.0000
  F   F305      1.0  0.23732  0.42388  0.22584  1.0000
  F   F306      1.0  0.23676  0.41052  0.73377  1.0000
  F   F307      1.0  0.23531  0.91556  0.23387  1.0000
  F   F308      1.0  0.23296  0.90886  0.72967  1.0000
  F   F309      1.0  0.48226  0.42164  0.21427  1.0000
  F   F310      1.0  0.48360  0.40865  0.73438  1.0000
  F   F311      1.0  0.47863  0.90773  0.23883  1.0000
  F   F312      1.0  0.48899  0.91786  0.72429  1.0000
  F   F313      1.0  0.73574  0.41424  0.22068  1.0000
  F   F314      1.0  0.74011  0.40506  0.72552  1.0000
  F   F315      1.0  0.73902  0.91287  0.21745  1.0000
  F   F316      1.0  0.73070  0.91299  0.73131  1.0000
  F   F317      1.0  0.98750  0.41287  0.22775  1.0000
  F   F318      1.0  0.98835  0.42995  0.71283  1.0000
  F   F319      1.0  0.98257  0.92268  0.22830  1.0000
  F   F320      1.0  0.98681  0.91356  0.73401  1.0000
  F   F321      1.0  0.21104  0.47015  0.46511  1.0000
  F   F322      1.0  0.20081  0.46106  0.97132  1.0000
  F   F323      1.0  0.20363  0.96942  0.48093  1.0000
  F   F324      1.0  0.20754  0.96249  0.98152  1.0000
  F   F325      1.0  0.45878  0.47437  0.48517  1.0000
  F   F326      1.0  0.45922  0.46393  0.98023  1.0000
  F   F327      1.0  0.45267  0.96572  0.47923  1.0000
  F   F328      1.0  0.45418  0.96964  0.98200  1.0000
  F   F329      1.0  0.70125  0.47997  0.47480  1.0000
  F   F330      1.0  0.70724  0.46671  0.96909  1.0000
  F   F331      1.0  0.71247  0.95752  0.46542  1.0000
  F   F332      1.0  0.70282  0.97690  0.97815  1.0000
  F   F333      1.0  0.96518  0.46403  0.47074  1.0000
  F   F334      1.0  0.95410  0.47036  0.97943  1.0000
  F   F335      1.0  0.96205  0.97825  0.46565  1.0000
  F   F336      1.0  0.95120  0.96390  0.98561  1.0000
  F   F337      1.0  0.01957  0.11238  0.25551  1.0000
  F   F338      1.0  0.00985  0.08989  0.77680  1.0000
  F   F339      1.0  0.01484  0.59667  0.26352  1.0000
  F   F340      1.0  0.01940  0.57904  0.77488  1.0000
  F   F341      1.0  0.26844  0.07883  0.27705  1.0000
  F   F342      1.0  0.26311  0.07885  0.78395  1.0000
  F   F343      1.0  0.26920  0.57270  0.27339  1.0000
  F   F344      1.0  0.26522  0.58126  0.77688  1.0000
  F   F345      1.0  0.51202  0.06711  0.28363  1.0000
  F   F346      1.0  0.51416  0.07344  0.77140  1.0000
  F   F347      1.0  0.51574  0.57990  0.27655  1.0000
  F   F348      1.0  0.51750  0.57812  0.77657  1.0000
  F   F349      1.0  0.76355  0.09784  0.26524  1.0000
  F   F350      1.0  0.76147  0.10221  0.75991  1.0000
  F   F351      1.0  0.76859  0.57160  0.27740  1.0000
  F   F352      1.0  0.76372  0.58255  0.77185  1.0000
  F   F353      1.0  0.10231  0.40116  0.46692  1.0000
  F   F354      1.0  0.10364  0.41479  0.96332  1.0000
  F   F355      1.0  0.09978  0.90148  0.46899  1.0000
  F   F356      1.0  0.09754  0.91269  0.96343  1.0000
  F   F357      1.0  0.35020  0.39990  0.46326  1.0000
  F   F358      1.0  0.34695  0.41058  0.96810  1.0000
  F   F359      1.0  0.34161  0.93075  0.45512  1.0000
  F   F360      1.0  0.35463  0.88664  0.95221  1.0000
  F   F361      1.0  0.59781  0.39771  0.46821  1.0000
  F   F362      1.0  0.59692  0.43504  0.96226  1.0000
  F   F363      1.0  0.59689  0.91697  0.45954  1.0000
  F   F364      1.0  0.60416  0.91920  0.95418  1.0000
  F   F365      1.0  0.85440  0.42191  0.45233  1.0000
  F   F366      1.0  0.85262  0.42918  0.95797  1.0000
  F   F367      1.0  0.85371  0.91433  0.45151  1.0000
  F   F368      1.0  0.84732  0.87413  0.97510  1.0000
  F   F369      1.0  0.04573  0.28715  0.28083  1.0000
  F   F370      1.0  0.04915  0.29260  0.78436  1.0000
  F   F371      1.0  0.04086  0.80291  0.29162  1.0000
  F   F372      1.0  0.05190  0.79795  0.77714  1.0000
  F   F373      1.0  0.29539  0.29068  0.28546  1.0000
  F   F374      1.0  0.30250  0.29665  0.79047  1.0000
  F   F375      1.0  0.29775  0.79464  0.29395  1.0000
  F   F376      1.0  0.28844  0.79525  0.78912  1.0000
  F   F377      1.0  0.54278  0.30106  0.27699  1.0000
  F   F378      1.0  0.55402  0.30263  0.79011  1.0000
  F   F379      1.0  0.54184  0.81626  0.28860  1.0000
  F   F380      1.0  0.54244  0.80316  0.78787  1.0000
  F   F381      1.0  0.79865  0.28712  0.27742  1.0000
  F   F382      1.0  0.80178  0.29435  0.80028  1.0000
  F   F383      1.0  0.79518  0.79409  0.28862  1.0000
  F   F384      1.0  0.79551  0.78742  0.78539  1.0000
