data_image0
_chemical_formula_structural       Hf96F384
_chemical_formula_sum              "Hf96 F384"
_cell_length_a       31.0202
_cell_length_b       15.5049
_cell_length_c       15.4996
_cell_angle_alpha    63.342
_cell_angle_beta     63.342
_cell_angle_gamma    80.1625

_space_group_name_H-M_alt    "P 1"
_space_group_IT_number       1

loop_
  _space_group_symop_operation_xyz
  'x, y, z'

loop_
  _atom_site_type_symbol
  _atom_site_label
  _atom_site_symmetry_multiplicity
  _atom_site_fract_x
  _atom_site_fract_y
  _atom_site_fract_z
  _atom_site_occupancy
  Hf  Hf1       1.0  0.19780  0.11324  0.36975  1.0000
  Hf  Hf2       1.0  0.19890  0.11140  0.87489  1.0000
  Hf  Hf3       1.0  0.19405  0.60280  0.38605  1.0000
  Hf  Hf4       1.0  0.19278  0.60636  0.87728  1.0000
  Hf  Hf5       1.0  0.44399  0.10620  0.37696  1.0000
  Hf  Hf6       1.0  0.44674  0.10097  0.87926  1.0000
  Hf  Hf7       1.0  0.44388  0.60853  0.37423  1.0000
  Hf  Hf8       1.0  0.44517  0.60616  0.87318  1.0000
  Hf  Hf9       1.0  0.69384  0.10312  0.38945  1.0000
  Hf  Hf10      1.0  0.69849  0.10492  0.87124  1.0000
  Hf  Hf11      1.0  0.69506  0.60912  0.37154  1.0000
  Hf  Hf12      1.0  0.69509  0.59019  0.88983  1.0000
  Hf  Hf13      1.0  0.94665  0.11135  0.36733  1.0000
  Hf  Hf14      1.0  0.94884  0.10948  0.86614  1.0000
  Hf  Hf15      1.0  0.95189  0.61417  0.36367  1.0000
  Hf  Hf16      1.0  0.94505  0.60317  0.87752  1.0000
  Hf  Hf17      1.0  0.05395  0.40151  0.12280  1.0000
  Hf  Hf18      1.0  0.05507  0.39823  0.61911  1.0000
  Hf  Hf19      1.0  0.05298  0.89365  0.12187  1.0000
  Hf  Hf20      1.0  0.05247  0.88985  0.62661  1.0000
  Hf  Hf21      1.0  0.30047  0.39480  0.13406  1.0000
  Hf  Hf22      1.0  0.30547  0.39436  0.62303  1.0000
  Hf  Hf23      1.0  0.30619  0.89360  0.11816  1.0000
  Hf  Hf24      1.0  0.30482  0.88874  0.63159  1.0000
  Hf  Hf25      1.0  0.55276  0.38781  0.12325  1.0000
  Hf  Hf26      1.0  0.55229  0.38737  0.62712  1.0000
  Hf  Hf27      1.0  0.55712  0.88861  0.11904  1.0000
  Hf  Hf28      1.0  0.55256  0.88840  0.62411  1.0000
  Hf  Hf29      1.0  0.80543  0.39550  0.12171  1.0000
  Hf  Hf30      1.0  0.80372  0.38502  0.62609  1.0000
  Hf  Hf31      1.0  0.80402  0.89437  0.12331  1.0000
  Hf  Hf32      1.0  0.80084  0.88964  0.63728  1.0000
  Hf  Hf33      1.0  0.05442  0.17767  0.42222  1.0000
  Hf  Hf34      1.0  0.05683  0.18510  0.91358  1.0000
  Hf  Hf35      1.0  0.06002  0.69041  0.41130  1.0000
  Hf  Hf36      1.0  0.05451  0.68585  0.91469  1.0000
  Hf  Hf37      1.0  0.30514  0.18544  0.41654  1.0000
  Hf  Hf38      1.0  0.30902  0.19359  0.90876  1.0000
  Hf  Hf39      1.0  0.30345  0.68621  0.41281  1.0000
  Hf  Hf40      1.0  0.30639  0.68153  0.91628  1.0000
  Hf  Hf41      1.0  0.55680  0.17984  0.40950  1.0000
  Hf  Hf42      1.0  0.55301  0.18073  0.91945  1.0000
  Hf  Hf43      1.0  0.55586  0.68723  0.41858  1.0000
  Hf  Hf44      1.0  0.55428  0.67555  0.92019  1.0000
  Hf  Hf45      1.0  0.80672  0.18139  0.41676  1.0000
  Hf  Hf46      1.0  0.80761  0.17991  0.92025  1.0000
  Hf  Hf47      1.0  0.80714  0.67422  0.42273  1.0000
  Hf  Hf48      1.0  0.79998  0.67390  0.93260  1.0000
  Hf  Hf49      1.0  0.15410  0.39330  0.33468  1.0000
  Hf  Hf50      1.0  0.15917  0.39086  0.83458  1.0000
  Hf  Hf51      1.0  0.16115  0.89054  0.33201  1.0000
  Hf  Hf52      1.0  0.16090  0.89068  0.82880  1.0000
  Hf  Hf53      1.0  0.41115  0.38887  0.33689  1.0000
  Hf  Hf54      1.0  0.40717  0.38611  0.83887  1.0000
  Hf  Hf55      1.0  0.40972  0.89339  0.32655  1.0000
  Hf  Hf56      1.0  0.40790  0.88721  0.83049  1.0000
  Hf  Hf57      1.0  0.65938  0.38348  0.33724  1.0000
  Hf  Hf58      1.0  0.65795  0.38917  0.83291  1.0000
  Hf  Hf59      1.0  0.65939  0.88492  0.33511  1.0000
  Hf  Hf60      1.0  0.66088  0.88088  0.83066  1.0000
  Hf  Hf61      1.0  0.90773  0.38245  0.33620  1.0000
  Hf  Hf62      1.0  0.91315  0.38648  0.82829  1.0000
  Hf  Hf63      1.0  0.91092  0.88771  0.32934  1.0000
  Hf  Hf64      1.0  0.90482  0.88467  0.83632  1.0000
  Hf  Hf65      1.0  0.19760  0.32154  0.08156  1.0000
  Hf  Hf66      1.0  0.19483  0.31463  0.58155  1.0000
  Hf  Hf67      1.0  0.19257  0.81479  0.08410  1.0000
  Hf  Hf68      1.0  0.19398  0.82906  0.57211  1.0000
  Hf  Hf69      1.0  0.44154  0.31671  0.08918  1.0000
  Hf  Hf70      1.0  0.44268  0.30980  0.58739  1.0000
  Hf  Hf71      1.0  0.44235  0.81707  0.08869  1.0000
  Hf  Hf72      1.0  0.44597  0.81995  0.57414  1.0000
  Hf  Hf73      1.0  0.69358  0.31580  0.08576  1.0000
  Hf  Hf74      1.0  0.69437  0.31767  0.58174  1.0000
  Hf  Hf75      1.0  0.69207  0.81485  0.08699  1.0000
  Hf  Hf76      1.0  0.69124  0.81068  0.58231  1.0000
  Hf  Hf77      1.0  0.94498  0.31968  0.07998  1.0000
  Hf  Hf78      1.0  0.94665  0.32390  0.57538  1.0000
  Hf  Hf79      1.0  0.94759  0.82748  0.07279  1.0000
  Hf  Hf80      1.0  0.94309  0.82032  0.58390  1.0000
  Hf  Hf81      1.0  0.08945  0.11362  0.17243  1.0000
  Hf  Hf82      1.0  0.09269  0.11722  0.66734  1.0000
  Hf  Hf83      1.0  0.09079  0.62126  0.15809  1.0000
  Hf  Hf84      1.0  0.09109  0.61242  0.67142  1.0000
  Hf  Hf85      1.0  0.33921  0.11339  0.17154  1.0000
  Hf  Hf86      1.0  0.34241  0.11542  0.66528  1.0000
  Hf  Hf87      1.0  0.34129  0.61053  0.17553  1.0000
  Hf  Hf88      1.0  0.34295  0.61415  0.66230  1.0000
  Hf  Hf89      1.0  0.59536  0.11382  0.15438  1.0000
  Hf  Hf90      1.0  0.59035  0.10829  0.67047  1.0000
  Hf  Hf91      1.0  0.58764  0.60541  0.17665  1.0000
  Hf  Hf92      1.0  0.59038  0.60655  0.66488  1.0000
  Hf  Hf93      1.0  0.84163  0.11038  0.17100  1.0000
  Hf  Hf94      1.0  0.84514  0.10840  0.66202  1.0000
  Hf  Hf95      1.0  0.84182  0.60896  0.17467  1.0000
  Hf  Hf96      1.0  0.84344  0.61575  0.66344  1.0000
  F   F1        1.0  0.08040  0.10101  0.32862  1.0000
  F   F2        1.0  0.08085  0.13329  0.79876  1.0000
  F   F3        1.0  0.07392  0.63423  0.30508  1.0000
  F   F4        1.0  0.07959  0.63731  0.79936  1.0000
  F   F5        1.0  0.32703  0.12950  0.30743  1.0000
  F   F6        1.0  0.33369  0.13801  0.79454  1.0000
  F   F7        1.0  0.32139  0.62321  0.31633  1.0000
  F   F8        1.0  0.32366  0.62989  0.80711  1.0000
  F   F9        1.0  0.57514  0.13580  0.29256  1.0000
  F   F10       1.0  0.57735  0.11827  0.80957  1.0000
  F   F11       1.0  0.57660  0.63319  0.30760  1.0000
  F   F12       1.0  0.58571  0.62967  0.79618  1.0000
  F   F13       1.0  0.82122  0.11352  0.31543  1.0000
  F   F14       1.0  0.83741  0.13914  0.79696  1.0000
  F   F15       1.0  0.83294  0.61340  0.32129  1.0000
  F   F16       1.0  0.82987  0.63359  0.80124  1.0000
  F   F17       1.0  0.18078  0.33506  0.44559  1.0000
  F   F18       1.0  0.19056  0.36251  0.93935  1.0000
  F   F19       1.0  0.19143  0.85060  0.43136  1.0000
  F   F20       1.0  0.18917  0.84744  0.93765  1.0000
  F   F21       1.0  0.43535  0.33504  0.44586  1.0000
  F   F22       1.0  0.42794  0.33012  0.96422  1.0000
  F   F23       1.0  0.43438  0.84009  0.45048  1.0000
  F   F24       1.0  0.42577  0.83448  0.95578  1.0000
  F   F25       1.0  0.68762  0.34425  0.44776  1.0000
  F   F26       1.0  0.67849  0.33086  0.95318  1.0000
  F   F27       1.0  0.68721  0.84783  0.43834  1.0000
  F   F28       1.0  0.68430  0.82848  0.95202  1.0000
  F   F29       1.0  0.94150  0.34358  0.43977  1.0000
  F   F30       1.0  0.94259  0.34707  0.92663  1.0000
  F   F31       1.0  0.93697  0.83837  0.44561  1.0000
  F   F32       1.0  0.93037  0.84207  0.95773  1.0000
  F   F33       1.0  0.17374  0.39281  0.18121  1.0000
  F   F34       1.0  0.16695  0.36642  0.69931  1.0000
  F   F35       1.0  0.17561  0.87725  0.18206  1.0000
  F   F36       1.0  0.17118  0.88589  0.68371  1.0000
  F   F37       1.0  0.42427  0.37005  0.19207  1.0000
  F   F38       1.0  0.41901  0.36163  0.70511  1.0000
  F   F39       1.0  0.42508  0.89329  0.18095  1.0000
  F   F40       1.0  0.42332  0.86599  0.69783  1.0000
  F   F41       1.0  0.67252  0.36842  0.19750  1.0000
  F   F42       1.0  0.66815  0.36673  0.69740  1.0000
  F   F43       1.0  0.66671  0.87508  0.19536  1.0000
  F   F44       1.0  0.66545  0.86577  0.69546  1.0000
  F   F45       1.0  0.92318  0.38528  0.18692  1.0000
  F   F46       1.0  0.92396  0.38193  0.68124  1.0000
  F   F47       1.0  0.92619  0.88059  0.18780  1.0000
  F   F48       1.0  0.91284  0.85230  0.71502  1.0000
  F   F49       1.0  0.05778  0.16225  0.06770  1.0000
  F   F50       1.0  0.06102  0.15526  0.55577  1.0000
  F   F51       1.0  0.05657  0.65620  0.05908  1.0000
  F   F52       1.0  0.06876  0.66807  0.54371  1.0000
  F   F53       1.0  0.32088  0.17348  0.04319  1.0000
  F   F54       1.0  0.31275  0.15281  0.56163  1.0000
  F   F55       1.0  0.31565  0.64926  0.05290  1.0000
  F   F56       1.0  0.31383  0.65953  0.55283  1.0000
  F   F57       1.0  0.55578  0.15008  0.06728  1.0000
  F   F58       1.0  0.56974  0.16310  0.54795  1.0000
  F   F59       1.0  0.55775  0.65139  0.07012  1.0000
  F   F60       1.0  0.55993  0.64799  0.56076  1.0000
  F   F61       1.0  0.81746  0.16259  0.05015  1.0000
  F   F62       1.0  0.82156  0.16453  0.54141  1.0000
  F   F63       1.0  0.81159  0.65343  0.06067  1.0000
  F   F64       1.0  0.81464  0.66126  0.55585  1.0000
  F   F65       1.0  0.20221  0.20857  0.21754  1.0000
  F   F66       1.0  0.21232  0.19941  0.70568  1.0000
  F   F67       1.0  0.19790  0.69867  0.20591  1.0000
  F   F68       1.0  0.19843  0.70729  0.70792  1.0000
  F   F69       1.0  0.44532  0.20312  0.22084  1.0000
  F   F70       1.0  0.45026  0.20690  0.71873  1.0000
  F   F71       1.0  0.45652  0.70413  0.21128  1.0000
  F   F72       1.0  0.45299  0.70540  0.71141  1.0000
  F   F73       1.0  0.70098  0.20535  0.20654  1.0000
  F   F74       1.0  0.69900  0.20792  0.70944  1.0000
  F   F75       1.0  0.70797  0.70162  0.20797  1.0000
  F   F76       1.0  0.70340  0.68989  0.69516  1.0000
  F   F77       1.0  0.95180  0.21457  0.22074  1.0000
  F   F78       1.0  0.95358  0.20301  0.70357  1.0000
  F   F79       1.0  0.95938  0.71541  0.20748  1.0000
  F   F80       1.0  0.95354  0.69300  0.72053  1.0000
  F   F81       1.0  0.15165  0.11838  0.03826  1.0000
  F   F82       1.0  0.15239  0.10102  0.53979  1.0000
  F   F83       1.0  0.14726  0.59500  0.03414  1.0000
  F   F84       1.0  0.14362  0.58509  0.54300  1.0000
  F   F85       1.0  0.39580  0.06578  0.04158  1.0000
  F   F86       1.0  0.40318  0.09081  0.54559  1.0000
  F   F87       1.0  0.40334  0.60269  0.03197  1.0000
  F   F88       1.0  0.39420  0.59437  0.52240  1.0000
  F   F89       1.0  0.65328  0.11102  0.02563  1.0000
  F   F90       1.0  0.64986  0.07666  0.54305  1.0000
  F   F91       1.0  0.64480  0.59648  0.05003  1.0000
  F   F92       1.0  0.64720  0.58522  0.53156  1.0000
  F   F93       1.0  0.90171  0.10508  0.04877  1.0000
  F   F94       1.0  0.90006  0.08267  0.53828  1.0000
  F   F95       1.0  0.89825  0.59032  0.04982  1.0000
  F   F96       1.0  0.90193  0.60030  0.53524  1.0000
  F   F97       1.0  0.14811  0.20991  0.14988  1.0000
  F   F98       1.0  0.14819  0.20136  0.64536  1.0000
  F   F99       1.0  0.14971  0.69845  0.11871  1.0000
  F   F100      1.0  0.14987  0.69981  0.60668  1.0000
  F   F101      1.0  0.39699  0.19190  0.12662  1.0000
  F   F102      1.0  0.40324  0.19581  0.61990  1.0000
  F   F103      1.0  0.39946  0.70130  0.13566  1.0000
  F   F104      1.0  0.40629  0.69485  0.61201  1.0000
  F   F105      1.0  0.65293  0.18585  0.14002  1.0000
  F   F106      1.0  0.64548  0.20147  0.62189  1.0000
  F   F107      1.0  0.65219  0.68296  0.14336  1.0000
  F   F108      1.0  0.64896  0.70279  0.60388  1.0000
  F   F109      1.0  0.89613  0.20198  0.15243  1.0000
  F   F110      1.0  0.90748  0.18934  0.61363  1.0000
  F   F111      1.0  0.90180  0.69457  0.14447  1.0000
  F   F112      1.0  0.90154  0.70447  0.62740  1.0000
  F   F113      1.0  0.09992  0.30639  0.37406  1.0000
  F   F114      1.0  0.09694  0.30833  0.88190  1.0000
  F   F115      1.0  0.10840  0.80098  0.36123  1.0000
  F   F116      1.0  0.09949  0.80472  0.85877  1.0000
  F   F117      1.0  0.34902  0.30771  0.38065  1.0000
  F   F118      1.0  0.34489  0.31254  0.87617  1.0000
  F   F119      1.0  0.34921  0.80801  0.35714  1.0000
  F   F120      1.0  0.34802  0.79991  0.88193  1.0000
  F   F121      1.0  0.59590  0.29984  0.37123  1.0000
  F   F122      1.0  0.59975  0.29853  0.88016  1.0000
  F   F123      1.0  0.59588  0.79821  0.38831  1.0000
  F   F124      1.0  0.60089  0.79754  0.87001  1.0000
  F   F125      1.0  0.84425  0.30439  0.36870  1.0000
  F   F126      1.0  0.85445  0.29091  0.85806  1.0000
  F   F127      1.0  0.85025  0.80012  0.37270  1.0000
  F   F128      1.0  0.84178  0.80460  0.88239  1.0000
  F   F129      1.0  0.06333  0.25373  0.15635  1.0000
  F   F130      1.0  0.06555  0.25718  0.63263  1.0000
  F   F131      1.0  0.05992  0.75515  0.14189  1.0000
  F   F132      1.0  0.05590  0.74564  0.65572  1.0000
  F   F133      1.0  0.31156  0.25283  0.15554  1.0000
  F   F134      1.0  0.31548  0.25521  0.62993  1.0000
  F   F135      1.0  0.32324  0.76011  0.12864  1.0000
  F   F136      1.0  0.32259  0.74840  0.62820  1.0000
  F   F137      1.0  0.58422  0.25545  0.10938  1.0000
  F   F138      1.0  0.56408  0.25297  0.64595  1.0000
  F   F139      1.0  0.56749  0.74517  0.14271  1.0000
  F   F140      1.0  0.56543  0.74858  0.63622  1.0000
  F   F141      1.0  0.81515  0.25080  0.14651  1.0000
  F   F142      1.0  0.81520  0.24524  0.64765  1.0000
  F   F143      1.0  0.82203  0.74235  0.14863  1.0000
  F   F144      1.0  0.82085  0.75768  0.63194  1.0000
  F   F145      1.0  0.12720  0.38602  0.10044  1.0000
  F   F146      1.0  0.12221  0.37809  0.60016  1.0000
  F   F147      1.0  0.12391  0.87296  0.10753  1.0000
  F   F148      1.0  0.12455  0.86897  0.59666  1.0000
  F   F149      1.0  0.37475  0.37784  0.10649  1.0000
  F   F150      1.0  0.37284  0.35055  0.61646  1.0000
  F   F151      1.0  0.37631  0.87356  0.10805  1.0000
  F   F152      1.0  0.37173  0.86716  0.62223  1.0000
  F   F153      1.0  0.62597  0.37132  0.11126  1.0000
  F   F154      1.0  0.62091  0.36499  0.61520  1.0000
  F   F155      1.0  0.62613  0.86491  0.09847  1.0000
  F   F156      1.0  0.62445  0.87439  0.59188  1.0000
  F   F157      1.0  0.87898  0.37560  0.09585  1.0000
  F   F158      1.0  0.87655  0.37944  0.60136  1.0000
  F   F159      1.0  0.87501  0.88298  0.11129  1.0000
  F   F160      1.0  0.87253  0.87582  0.60218  1.0000
  F   F161      1.0  0.18553  0.25717  0.34907  1.0000
  F   F162      1.0  0.19734  0.25427  0.84588  1.0000
  F   F163      1.0  0.18959  0.74209  0.35327  1.0000
  F   F164      1.0  0.18252  0.74528  0.85891  1.0000
  F   F165      1.0  0.43641  0.23941  0.36724  1.0000
  F   F166      1.0  0.42875  0.24573  0.86527  1.0000
  F   F167      1.0  0.42984  0.75371  0.35683  1.0000
  F   F168      1.0  0.43521  0.74792  0.85317  1.0000
  F   F169      1.0  0.68494  0.24780  0.36625  1.0000
  F   F170      1.0  0.69232  0.25540  0.83951  1.0000
  F   F171      1.0  0.68454  0.75288  0.34778  1.0000
  F   F172      1.0  0.68795  0.74073  0.83956  1.0000
  F   F173      1.0  0.93334  0.24606  0.36137  1.0000
  F   F174      1.0  0.94661  0.25266  0.83798  1.0000
  F   F175      1.0  0.93388  0.74794  0.35834  1.0000
  F   F176      1.0  0.92523  0.74182  0.87162  1.0000
  F   F177      1.0  0.12728  0.12449  0.39561  1.0000
  F   F178      1.0  0.12545  0.13501  0.90232  1.0000
  F   F179      1.0  0.13001  0.63272  0.38120  1.0000
  F   F180      1.0  0.12099  0.62947  0.89905  1.0000
  F   F181      1.0  0.37158  0.12002  0.41307  1.0000
  F   F182      1.0  0.37661  0.13376  0.88142  1.0000
  F   F183      1.0  0.37608  0.64322  0.37206  1.0000
  F   F184      1.0  0.37403  0.63469  0.88415  1.0000
  F   F185      1.0  0.62471  0.13668  0.39629  1.0000
  F   F186      1.0  0.62601  0.13526  0.88816  1.0000
  F   F187      1.0  0.62631  0.63251  0.38230  1.0000
  F   F188      1.0  0.61860  0.61010  0.91113  1.0000
  F   F189      1.0  0.87371  0.13938  0.38554  1.0000
  F   F190      1.0  0.87733  0.11682  0.91296  1.0000
  F   F191      1.0  0.87924  0.63548  0.40157  1.0000
  F   F192      1.0  0.87444  0.62044  0.91104  1.0000
  F   F193      1.0  0.00579  0.35521  0.08739  1.0000
  F   F194      1.0  0.00857  0.36596  0.56890  1.0000
  F   F195      1.0  0.01198  0.87254  0.06102  1.0000
  F   F196      1.0  0.00308  0.86731  0.58536  1.0000
  F   F197      1.0  0.25893  0.34869  0.07888  1.0000
  F   F198      1.0  0.25388  0.36511  0.58210  1.0000
  F   F199      1.0  0.26143  0.85562  0.06906  1.0000
  F   F200      1.0  0.25733  0.84352  0.59322  1.0000
  F   F201      1.0  0.50572  0.36374  0.08263  1.0000
  F   F202      1.0  0.50424  0.35640  0.58627  1.0000
  F   F203      1.0  0.51079  0.85691  0.06823  1.0000
  F   F204      1.0  0.50715  0.86306  0.57190  1.0000
  F   F205      1.0  0.75980  0.36097  0.07365  1.0000
  F   F206      1.0  0.75932  0.35927  0.56691  1.0000
  F   F207      1.0  0.75716  0.86804  0.06283  1.0000
  F   F208      1.0  0.75873  0.85914  0.57819  1.0000
  F   F209      1.0  0.06416  0.48093  0.18315  1.0000
  F   F210      1.0  0.06744  0.48928  0.67457  1.0000
  F   F211      1.0  0.07130  0.99497  0.16912  1.0000
  F   F212      1.0  0.08065  0.98741  0.66071  1.0000
  F   F213      1.0  0.31551  0.48958  0.19105  1.0000
  F   F214      1.0  0.31654  0.48078  0.67932  1.0000
  F   F215      1.0  0.31837  0.97799  0.18576  1.0000
  F   F216      1.0  0.31992  0.98807  0.67502  1.0000
  F   F217      1.0  0.56372  0.48045  0.18384  1.0000
  F   F218      1.0  0.56727  0.48100  0.68126  1.0000
  F   F219      1.0  0.57664  0.98916  0.15133  1.0000
  F   F220      1.0  0.57262  0.98659  0.67120  1.0000
  F   F221      1.0  0.82515  0.47887  0.16916  1.0000
  F   F222      1.0  0.82357  0.48413  0.66515  1.0000
  F   F223      1.0  0.81365  0.99612  0.17222  1.0000
  F   F224      1.0  0.82161  0.97727  0.68927  1.0000
  F   F225      1.0  0.24406  0.13820  0.42944  1.0000
  F   F226      1.0  0.24588  0.13380  0.92376  1.0000
  F   F227      1.0  0.23702  0.62817  0.45165  1.0000
  F   F228      1.0  0.24114  0.64523  0.92332  1.0000
  F   F229      1.0  0.49376  0.13529  0.42380  1.0000
  F   F230      1.0  0.49335  0.14078  0.92885  1.0000
  F   F231      1.0  0.49183  0.63157  0.43409  1.0000
  F   F232      1.0  0.49561  0.63426  0.91292  1.0000
  F   F233      1.0  0.73866  0.13342  0.43698  1.0000
  F   F234      1.0  0.74361  0.14314  0.92122  1.0000
  F   F235      1.0  0.73990  0.64276  0.42725  1.0000
  F   F236      1.0  0.73681  0.64180  0.93730  1.0000
  F   F237      1.0  0.99169  0.13409  0.42540  1.0000
  F   F238      1.0  0.99498  0.13270  0.91863  1.0000
  F   F239      1.0  0.99343  0.65380  0.41321  1.0000
  F   F240      1.0  0.99185  0.65716  0.90972  1.0000
  F   F241      1.0  0.18625  0.01234  0.33061  1.0000
  F   F242      1.0  0.17843  0.02031  0.82779  1.0000
  F   F243      1.0  0.18112  0.50496  0.32492  1.0000
  F   F244      1.0  0.17599  0.52874  0.81849  1.0000
  F   F245      1.0  0.42943  0.01942  0.31499  1.0000
  F   F246      1.0  0.42973  0.01899  0.83034  1.0000
  F   F247      1.0  0.43011  0.51742  0.33130  1.0000
  F   F248      1.0  0.42972  0.51484  0.82496  1.0000
  F   F249      1.0  0.68279  0.01567  0.32199  1.0000
  F   F250      1.0  0.68264  0.00550  0.84449  1.0000
  F   F251      1.0  0.68253  0.51965  0.31261  1.0000
  F   F252      1.0  0.68479  0.51365  0.81906  1.0000
  F   F253      1.0  0.92624  0.02067  0.32622  1.0000
  F   F254      1.0  0.92853  0.01431  0.83460  1.0000
  F   F255      1.0  0.92789  0.51344  0.32947  1.0000
  F   F256      1.0  0.92650  0.50852  0.83083  1.0000
  F   F257      1.0  0.99736  0.24144  0.00048  1.0000
  F   F258      1.0  0.99955  0.24629  0.49611  1.0000
  F   F259      1.0  0.00349  0.76652  0.98565  1.0000
  F   F260      1.0  0.00400  0.75465  0.50898  1.0000
  F   F261      1.0  0.24855  0.23279  0.01206  1.0000
  F   F262      1.0  0.24763  0.25291  0.50108  1.0000
  F   F263      1.0  0.25371  0.75846  0.99503  1.0000
  F   F264      1.0  0.25333  0.76526  0.48473  1.0000
  F   F265      1.0  0.50391  0.26112  0.99961  1.0000
  F   F266      1.0  0.49975  0.25632  0.49365  1.0000
  F   F267      1.0  0.49656  0.75341  0.99596  1.0000
  F   F268      1.0  0.49532  0.74602  0.50297  1.0000
  F   F269      1.0  0.75584  0.25888  0.98612  1.0000
  F   F270      1.0  0.75380  0.23255  0.51240  1.0000
  F   F271      1.0  0.74918  0.74178  0.01263  1.0000
  F   F272      1.0  0.75302  0.75794  0.49137  1.0000
  F   F273      1.0  0.12809  0.99571  0.24635  1.0000
  F   F274      1.0  0.12130  0.00007  0.75731  1.0000
  F   F275      1.0  0.11385  0.50294  0.26579  1.0000
  F   F276      1.0  0.11930  0.49686  0.75875  1.0000
  F   F277      1.0  0.37048  0.00439  0.25736  1.0000
  F   F278      1.0  0.37618  0.00031  0.74961  1.0000
  F   F279      1.0  0.37856  0.49888  0.24798  1.0000
  F   F280      1.0  0.37470  0.49734  0.74396  1.0000
  F   F281      1.0  0.62366  0.00363  0.25308  1.0000
  F   F282      1.0  0.63221  0.99718  0.74769  1.0000
  F   F283      1.0  0.62134  0.49320  0.26329  1.0000
  F   F284      1.0  0.62038  0.49321  0.75509  1.0000
  F   F285      1.0  0.87005  0.99190  0.25744  1.0000
  F   F286      1.0  0.87859  0.00555  0.75137  1.0000
  F   F287      1.0  0.87341  0.49327  0.25305  1.0000
  F   F288      1.0  0.87551  0.50035  0.74262  1.0000
  F   F289      1.0  0.05082  0.02998  0.01185  1.0000
  F   F290      1.0  0.04061  0.02545  0.53555  1.0000
  F   F291      1.0  0.04378  0.53168  0.02004  1.0000
  F   F292      1.0  0.04256  0.54280  0.51045  1.0000
  F   F293      1.0  0.30277  0.03908  0.01138  1.0000
  F   F294      1.0  0.29463  0.02443  0.52710  1.0000
  F   F295      1.0  0.28894  0.52833  0.02850  1.0000
  F   F296      1.0  0.29587  0.53279  0.52797  1.0000
  F   F297      1.0  0.53657  0.02126  0.03315  1.0000
  F   F298      1.0  0.54842  0.03016  0.51529  1.0000
  F   F299      1.0  0.53779  0.52749  0.02557  1.0000
  F   F300      1.0  0.54317  0.52862  0.52328  1.0000
  F   F301      1.0  0.79445  0.03150  0.01605  1.0000
  F   F302      1.0  0.79502  0.02974  0.53077  1.0000
  F   F303      1.0  0.78865  0.52452  0.01970  1.0000
  F   F304      1.0  0.79662  0.52529  0.52022  1.0000
  F   F305      1.0  0.23622  0.41365  0.22880  1.0000
  F   F306      1.0  0.23189  0.42467  0.71756  1.0000
  F   F307      1.0  0.23464  0.91593  0.22267  1.0000
  F   F308      1.0  0.23602  0.91065  0.73010  1.0000
  F   F309      1.0  0.47938  0.41800  0.23223  1.0000
  F   F310      1.0  0.48053  0.41701  0.72746  1.0000
  F   F311      1.0  0.48254  0.90580  0.23157  1.0000
  F   F312      1.0  0.48401  0.90825  0.74555  1.0000
  F   F313      1.0  0.73609  0.41541  0.21811  1.0000
  F   F314      1.0  0.73338  0.41349  0.71836  1.0000
  F   F315      1.0  0.73158  0.92355  0.21943  1.0000
  F   F316      1.0  0.73418  0.92228  0.72513  1.0000
  F   F317      1.0  0.98376  0.41180  0.23023  1.0000
  F   F318      1.0  0.98666  0.42903  0.72127  1.0000
  F   F319      1.0  0.98512  0.92491  0.22259  1.0000
  F   F320      1.0  0.98163  0.90405  0.73874  1.0000
  F   F321      1.0  0.20073  0.46148  0.48317  1.0000
  F   F322      1.0  0.21039  0.48069  0.97642  1.0000
  F   F323      1.0  0.20627  0.97692  0.47931  1.0000
  F   F324      1.0  0.19901  0.97893  0.98186  1.0000
  F   F325      1.0  0.45348  0.46342  0.48505  1.0000
  F   F326      1.0  0.46036  0.47056  0.96465  1.0000
  F   F327      1.0  0.45480  0.96395  0.47720  1.0000
  F   F328      1.0  0.46059  0.96561  0.97345  1.0000
  F   F329      1.0  0.70384  0.46646  0.48264  1.0000
  F   F330      1.0  0.70512  0.45667  0.98307  1.0000
  F   F331      1.0  0.70748  0.96287  0.49076  1.0000
  F   F332      1.0  0.70596  0.96540  0.98371  1.0000
  F   F333      1.0  0.95778  0.47768  0.47910  1.0000
  F   F334      1.0  0.96004  0.47349  0.97162  1.0000
  F   F335      1.0  0.95765  0.96365  0.46847  1.0000
  F   F336      1.0  0.96007  0.97420  0.97858  1.0000
  F   F337      1.0  0.01249  0.08353  0.27752  1.0000
  F   F338      1.0  0.01780  0.08765  0.76095  1.0000
  F   F339      1.0  0.01784  0.58184  0.26996  1.0000
  F   F340      1.0  0.01421  0.57160  0.78577  1.0000
  F   F341      1.0  0.26381  0.09721  0.27220  1.0000
  F   F342      1.0  0.26833  0.09374  0.77538  1.0000
  F   F343      1.0  0.26142  0.59540  0.26895  1.0000
  F   F344      1.0  0.26257  0.58434  0.76820  1.0000
  F   F345      1.0  0.51009  0.11122  0.25801  1.0000
  F   F346      1.0  0.51417  0.08555  0.77300  1.0000
  F   F347      1.0  0.51552  0.58658  0.28309  1.0000
  F   F348      1.0  0.51698  0.58065  0.77058  1.0000
  F   F349      1.0  0.75972  0.09400  0.27154  1.0000
  F   F350      1.0  0.76921  0.08469  0.76477  1.0000
  F   F351      1.0  0.76391  0.56972  0.29186  1.0000
  F   F352      1.0  0.76098  0.58491  0.78866  1.0000
  F   F353      1.0  0.10037  0.41608  0.45623  1.0000
  F   F354      1.0  0.10100  0.40973  0.96379  1.0000
  F   F355      1.0  0.10184  0.91155  0.46015  1.0000
  F   F356      1.0  0.10259  0.88133  0.96271  1.0000
  F   F357      1.0  0.34818  0.41325  0.46139  1.0000
  F   F358      1.0  0.35070  0.41523  0.96248  1.0000
  F   F359      1.0  0.35388  0.90512  0.46257  1.0000
  F   F360      1.0  0.34814  0.91192  0.95652  1.0000
  F   F361      1.0  0.60083  0.39776  0.46180  1.0000
  F   F362      1.0  0.59896  0.42208  0.95876  1.0000
  F   F363      1.0  0.60031  0.89638  0.46149  1.0000
  F   F364      1.0  0.59747  0.90422  0.95524  1.0000
  F   F365      1.0  0.84796  0.40026  0.46771  1.0000
  F   F366      1.0  0.85277  0.39492  0.96163  1.0000
  F   F367      1.0  0.85880  0.91344  0.44137  1.0000
  F   F368      1.0  0.85073  0.90328  0.96665  1.0000
  F   F369      1.0  0.04632  0.29688  0.29990  1.0000
  F   F370      1.0  0.04741  0.30599  0.78686  1.0000
  F   F371      1.0  0.04691  0.81538  0.29228  1.0000
  F   F372      1.0  0.04340  0.80935  0.78595  1.0000
  F   F373      1.0  0.29810  0.30524  0.29418  1.0000
  F   F374      1.0  0.29171  0.30019  0.78612  1.0000
  F   F375      1.0  0.29338  0.79055  0.28502  1.0000
  F   F376      1.0  0.29911  0.79313  0.78046  1.0000
  F   F377      1.0  0.53748  0.29699  0.26930  1.0000
  F   F378      1.0  0.55068  0.29528  0.79341  1.0000
  F   F379      1.0  0.54644  0.80468  0.28594  1.0000
  F   F380      1.0  0.55130  0.80491  0.77455  1.0000
  F   F381      1.0  0.79404  0.30439  0.28640  1.0000
  F   F382      1.0  0.79429  0.30688  0.78512  1.0000
  F   F383      1.0  0.79707  0.80191  0.28089  1.0000
  F   F384      1.0  0.79270  0.79167  0.79510  1.0000
