data_image0
_chemical_formula_structural       Hf96F384
_chemical_formula_sum              "Hf96 F384"
_cell_length_a       31.0182
_cell_length_b       15.5125
_cell_length_c       15.5025
_cell_angle_alpha    63.342
_cell_angle_beta     63.342
_cell_angle_gamma    80.1625

_space_group_name_H-M_alt    "P 1"
_space_group_IT_number       1

loop_
  _space_group_symop_operation_xyz
  'x, y, z'

loop_
  _atom_site_type_symbol
  _atom_site_label
  _atom_site_symmetry_multiplicity
  _atom_site_fract_x
  _atom_site_fract_y
  _atom_site_fract_z
  _atom_site_occupancy
  Hf  Hf1       1.0  0.19723  0.10913  0.36780  1.0000
  Hf  Hf2       1.0  0.19423  0.09848  0.88265  1.0000
  Hf  Hf3       1.0  0.20028  0.61212  0.36630  1.0000
  Hf  Hf4       1.0  0.19748  0.61746  0.86348  1.0000
  Hf  Hf5       1.0  0.45159  0.11018  0.36901  1.0000
  Hf  Hf6       1.0  0.45123  0.11274  0.86275  1.0000
  Hf  Hf7       1.0  0.44240  0.60167  0.38050  1.0000
  Hf  Hf8       1.0  0.44778  0.60811  0.87381  1.0000
  Hf  Hf9       1.0  0.69670  0.10764  0.37121  1.0000
  Hf  Hf10      1.0  0.69553  0.11019  0.87724  1.0000
  Hf  Hf11      1.0  0.69561  0.60213  0.37713  1.0000
  Hf  Hf12      1.0  0.70043  0.61128  0.87121  1.0000
  Hf  Hf13      1.0  0.94338  0.10734  0.38531  1.0000
  Hf  Hf14      1.0  0.94527  0.10291  0.87526  1.0000
  Hf  Hf15      1.0  0.94640  0.60725  0.38280  1.0000
  Hf  Hf16      1.0  0.94684  0.60437  0.87371  1.0000
  Hf  Hf17      1.0  0.05585  0.39337  0.12284  1.0000
  Hf  Hf18      1.0  0.05457  0.38711  0.62912  1.0000
  Hf  Hf19      1.0  0.05304  0.89082  0.12234  1.0000
  Hf  Hf20      1.0  0.05576  0.89165  0.62070  1.0000
  Hf  Hf21      1.0  0.30364  0.39100  0.12917  1.0000
  Hf  Hf22      1.0  0.30647  0.39244  0.62071  1.0000
  Hf  Hf23      1.0  0.30323  0.88638  0.12727  1.0000
  Hf  Hf24      1.0  0.30097  0.89325  0.63031  1.0000
  Hf  Hf25      1.0  0.55435  0.39196  0.13624  1.0000
  Hf  Hf26      1.0  0.55416  0.39449  0.62075  1.0000
  Hf  Hf27      1.0  0.55371  0.89482  0.12742  1.0000
  Hf  Hf28      1.0  0.55583  0.89408  0.62362  1.0000
  Hf  Hf29      1.0  0.80450  0.39783  0.12306  1.0000
  Hf  Hf30      1.0  0.79994  0.39054  0.63675  1.0000
  Hf  Hf31      1.0  0.80541  0.89628  0.11947  1.0000
  Hf  Hf32      1.0  0.80312  0.89435  0.62059  1.0000
  Hf  Hf33      1.0  0.05496  0.18418  0.41902  1.0000
  Hf  Hf34      1.0  0.05558  0.17585  0.92337  1.0000
  Hf  Hf35      1.0  0.05762  0.68822  0.41542  1.0000
  Hf  Hf36      1.0  0.05541  0.68992  0.91195  1.0000
  Hf  Hf37      1.0  0.30631  0.17462  0.41825  1.0000
  Hf  Hf38      1.0  0.30656  0.18765  0.91245  1.0000
  Hf  Hf39      1.0  0.30494  0.69015  0.41205  1.0000
  Hf  Hf40      1.0  0.30917  0.68140  0.91688  1.0000
  Hf  Hf41      1.0  0.55937  0.18018  0.42166  1.0000
  Hf  Hf42      1.0  0.55271  0.18262  0.92372  1.0000
  Hf  Hf43      1.0  0.55325  0.68099  0.42166  1.0000
  Hf  Hf44      1.0  0.55657  0.69076  0.91078  1.0000
  Hf  Hf45      1.0  0.80464  0.18705  0.41787  1.0000
  Hf  Hf46      1.0  0.80666  0.18561  0.91600  1.0000
  Hf  Hf47      1.0  0.80327  0.68361  0.41531  1.0000
  Hf  Hf48      1.0  0.80622  0.69213  0.91349  1.0000
  Hf  Hf49      1.0  0.15941  0.38643  0.33381  1.0000
  Hf  Hf50      1.0  0.16118  0.38435  0.82406  1.0000
  Hf  Hf51      1.0  0.15659  0.88842  0.33749  1.0000
  Hf  Hf52      1.0  0.15688  0.88926  0.83314  1.0000
  Hf  Hf53      1.0  0.40817  0.38551  0.33357  1.0000
  Hf  Hf54      1.0  0.40683  0.39280  0.83247  1.0000
  Hf  Hf55      1.0  0.40816  0.87870  0.34740  1.0000
  Hf  Hf56      1.0  0.41056  0.89120  0.83857  1.0000
  Hf  Hf57      1.0  0.66099  0.38889  0.32798  1.0000
  Hf  Hf58      1.0  0.65474  0.38976  0.84013  1.0000
  Hf  Hf59      1.0  0.65958  0.88281  0.33420  1.0000
  Hf  Hf60      1.0  0.65786  0.89314  0.83269  1.0000
  Hf  Hf61      1.0  0.90914  0.39636  0.33041  1.0000
  Hf  Hf62      1.0  0.91044  0.38636  0.83283  1.0000
  Hf  Hf63      1.0  0.90961  0.88819  0.32901  1.0000
  Hf  Hf64      1.0  0.90795  0.88940  0.82963  1.0000
  Hf  Hf65      1.0  0.19585  0.32740  0.07254  1.0000
  Hf  Hf66      1.0  0.19936  0.31759  0.57176  1.0000
  Hf  Hf67      1.0  0.18989  0.80590  0.08914  1.0000
  Hf  Hf68      1.0  0.19158  0.82105  0.58083  1.0000
  Hf  Hf69      1.0  0.44456  0.31931  0.08201  1.0000
  Hf  Hf70      1.0  0.44444  0.32082  0.57968  1.0000
  Hf  Hf71      1.0  0.44416  0.82182  0.08801  1.0000
  Hf  Hf72      1.0  0.44361  0.81367  0.59058  1.0000
  Hf  Hf73      1.0  0.69659  0.31721  0.07961  1.0000
  Hf  Hf74      1.0  0.69219  0.31622  0.58867  1.0000
  Hf  Hf75      1.0  0.69574  0.81589  0.08333  1.0000
  Hf  Hf76      1.0  0.69512  0.81650  0.58346  1.0000
  Hf  Hf77      1.0  0.94412  0.32037  0.08553  1.0000
  Hf  Hf78      1.0  0.94084  0.31632  0.58537  1.0000
  Hf  Hf79      1.0  0.94315  0.81427  0.08645  1.0000
  Hf  Hf80      1.0  0.94450  0.81757  0.57947  1.0000
  Hf  Hf81      1.0  0.09100  0.11087  0.16710  1.0000
  Hf  Hf82      1.0  0.09118  0.11026  0.66546  1.0000
  Hf  Hf83      1.0  0.08711  0.60445  0.17612  1.0000
  Hf  Hf84      1.0  0.09188  0.60522  0.66595  1.0000
  Hf  Hf85      1.0  0.34207  0.10313  0.16601  1.0000
  Hf  Hf86      1.0  0.34149  0.10794  0.67011  1.0000
  Hf  Hf87      1.0  0.34123  0.61871  0.16605  1.0000
  Hf  Hf88      1.0  0.33764  0.60469  0.67198  1.0000
  Hf  Hf89      1.0  0.59201  0.11122  0.16926  1.0000
  Hf  Hf90      1.0  0.59103  0.11345  0.66574  1.0000
  Hf  Hf91      1.0  0.58866  0.61130  0.17567  1.0000
  Hf  Hf92      1.0  0.59230  0.61334  0.66221  1.0000
  Hf  Hf93      1.0  0.84211  0.11517  0.16504  1.0000
  Hf  Hf94      1.0  0.84155  0.11292  0.66770  1.0000
  Hf  Hf95      1.0  0.84174  0.61530  0.16364  1.0000
  Hf  Hf96      1.0  0.83824  0.60865  0.67210  1.0000
  F   F1        1.0  0.08775  0.13232  0.29577  1.0000
  F   F2        1.0  0.08019  0.12847  0.79959  1.0000
  F   F3        1.0  0.07815  0.62216  0.31292  1.0000
  F   F4        1.0  0.07293  0.61896  0.81981  1.0000
  F   F5        1.0  0.32842  0.12948  0.30268  1.0000
  F   F6        1.0  0.33315  0.14239  0.79500  1.0000
  F   F7        1.0  0.33124  0.63028  0.30115  1.0000
  F   F8        1.0  0.34063  0.63867  0.79788  1.0000
  F   F9        1.0  0.58282  0.12530  0.30091  1.0000
  F   F10       1.0  0.57790  0.12332  0.80418  1.0000
  F   F11       1.0  0.58266  0.64333  0.29248  1.0000
  F   F12       1.0  0.57963  0.62093  0.80261  1.0000
  F   F13       1.0  0.83149  0.13502  0.29877  1.0000
  F   F14       1.0  0.82866  0.13240  0.80303  1.0000
  F   F15       1.0  0.83328  0.64475  0.29340  1.0000
  F   F16       1.0  0.83261  0.64546  0.79153  1.0000
  F   F17       1.0  0.18726  0.32639  0.44682  1.0000
  F   F18       1.0  0.18950  0.34638  0.93333  1.0000
  F   F19       1.0  0.18511  0.84159  0.44372  1.0000
  F   F20       1.0  0.18392  0.84224  0.94793  1.0000
  F   F21       1.0  0.43103  0.33896  0.45292  1.0000
  F   F22       1.0  0.42905  0.34220  0.95233  1.0000
  F   F23       1.0  0.43469  0.85197  0.45905  1.0000
  F   F24       1.0  0.43558  0.83452  0.95474  1.0000
  F   F25       1.0  0.68263  0.34210  0.44710  1.0000
  F   F26       1.0  0.69150  0.36018  0.93383  1.0000
  F   F27       1.0  0.69348  0.85327  0.43859  1.0000
  F   F28       1.0  0.69139  0.84292  0.94086  1.0000
  F   F29       1.0  0.92276  0.32735  0.46297  1.0000
  F   F30       1.0  0.93691  0.33363  0.95069  1.0000
  F   F31       1.0  0.93238  0.84188  0.44498  1.0000
  F   F32       1.0  0.92653  0.83595  0.95314  1.0000
  F   F33       1.0  0.16560  0.36862  0.19371  1.0000
  F   F34       1.0  0.17813  0.38463  0.67284  1.0000
  F   F35       1.0  0.16227  0.85900  0.20863  1.0000
  F   F36       1.0  0.16599  0.87734  0.69714  1.0000
  F   F37       1.0  0.41604  0.36673  0.20045  1.0000
  F   F38       1.0  0.41676  0.37344  0.69382  1.0000
  F   F39       1.0  0.42443  0.87768  0.20072  1.0000
  F   F40       1.0  0.42513  0.88508  0.69735  1.0000
  F   F41       1.0  0.67420  0.37895  0.19145  1.0000
  F   F42       1.0  0.66417  0.36002  0.70742  1.0000
  F   F43       1.0  0.67390  0.87094  0.19146  1.0000
  F   F44       1.0  0.66794  0.86069  0.70626  1.0000
  F   F45       1.0  0.92322  0.37816  0.19784  1.0000
  F   F46       1.0  0.92337  0.38571  0.69404  1.0000
  F   F47       1.0  0.92283  0.88520  0.18783  1.0000
  F   F48       1.0  0.92543  0.87699  0.68822  1.0000
  F   F49       1.0  0.06950  0.16511  0.04512  1.0000
  F   F50       1.0  0.05902  0.15329  0.55899  1.0000
  F   F51       1.0  0.05341  0.65268  0.06493  1.0000
  F   F52       1.0  0.05866  0.66068  0.55847  1.0000
  F   F53       1.0  0.31916  0.15167  0.04946  1.0000
  F   F54       1.0  0.31767  0.15063  0.55276  1.0000
  F   F55       1.0  0.31742  0.66009  0.05398  1.0000
  F   F56       1.0  0.31260  0.66034  0.55603  1.0000
  F   F57       1.0  0.56263  0.15955  0.05467  1.0000
  F   F58       1.0  0.55504  0.14204  0.56760  1.0000
  F   F59       1.0  0.56339  0.66505  0.05372  1.0000
  F   F60       1.0  0.56295  0.65683  0.55443  1.0000
  F   F61       1.0  0.81469  0.17145  0.05297  1.0000
  F   F62       1.0  0.81451  0.17590  0.54774  1.0000
  F   F63       1.0  0.80979  0.64508  0.05948  1.0000
  F   F64       1.0  0.82013  0.66190  0.54485  1.0000
  F   F65       1.0  0.19811  0.19759  0.19807  1.0000
  F   F66       1.0  0.20808  0.20501  0.69801  1.0000
  F   F67       1.0  0.20460  0.69666  0.20571  1.0000
  F   F68       1.0  0.20389  0.71085  0.70306  1.0000
  F   F69       1.0  0.45466  0.19852  0.21601  1.0000
  F   F70       1.0  0.45897  0.20472  0.69879  1.0000
  F   F71       1.0  0.45674  0.70987  0.22499  1.0000
  F   F72       1.0  0.44793  0.69612  0.71693  1.0000
  F   F73       1.0  0.70480  0.19694  0.20677  1.0000
  F   F74       1.0  0.70551  0.19318  0.72014  1.0000
  F   F75       1.0  0.70522  0.70275  0.21275  1.0000
  F   F76       1.0  0.70690  0.69135  0.71105  1.0000
  F   F77       1.0  0.94781  0.20576  0.20750  1.0000
  F   F78       1.0  0.94766  0.20686  0.71214  1.0000
  F   F79       1.0  0.95208  0.70484  0.21511  1.0000
  F   F80       1.0  0.95332  0.70307  0.70129  1.0000
  F   F81       1.0  0.14702  0.09018  0.03702  1.0000
  F   F82       1.0  0.14925  0.08655  0.54199  1.0000
  F   F83       1.0  0.14572  0.58646  0.04123  1.0000
  F   F84       1.0  0.14748  0.59534  0.54264  1.0000
  F   F85       1.0  0.39768  0.10208  0.03903  1.0000
  F   F86       1.0  0.39904  0.08803  0.53912  1.0000
  F   F87       1.0  0.40503  0.60612  0.04234  1.0000
  F   F88       1.0  0.39701  0.57580  0.53645  1.0000
  F   F89       1.0  0.64810  0.09448  0.03660  1.0000
  F   F90       1.0  0.64257  0.10644  0.53544  1.0000
  F   F91       1.0  0.64306  0.59604  0.04906  1.0000
  F   F92       1.0  0.64787  0.58817  0.53732  1.0000
  F   F93       1.0  0.90020  0.07448  0.03907  1.0000
  F   F94       1.0  0.89984  0.08559  0.53976  1.0000
  F   F95       1.0  0.89792  0.59791  0.03498  1.0000
  F   F96       1.0  0.90012  0.57672  0.55229  1.0000
  F   F97       1.0  0.14558  0.19702  0.10937  1.0000
  F   F98       1.0  0.14713  0.20429  0.61626  1.0000
  F   F99       1.0  0.14846  0.69352  0.12661  1.0000
  F   F100      1.0  0.14795  0.69527  0.62476  1.0000
  F   F101      1.0  0.39948  0.19963  0.12880  1.0000
  F   F102      1.0  0.40406  0.19597  0.61756  1.0000
  F   F103      1.0  0.40407  0.70979  0.13226  1.0000
  F   F104      1.0  0.39741  0.68919  0.60942  1.0000
  F   F105      1.0  0.65268  0.19899  0.12125  1.0000
  F   F106      1.0  0.66086  0.20082  0.61876  1.0000
  F   F107      1.0  0.64805  0.71153  0.11909  1.0000
  F   F108      1.0  0.65162  0.69882  0.62949  1.0000
  F   F109      1.0  0.90049  0.19092  0.12009  1.0000
  F   F110      1.0  0.90214  0.18104  0.63159  1.0000
  F   F111      1.0  0.90323  0.69343  0.12011  1.0000
  F   F112      1.0  0.89940  0.67995  0.63240  1.0000
  F   F113      1.0  0.09752  0.29480  0.38017  1.0000
  F   F114      1.0  0.10181  0.30025  0.86464  1.0000
  F   F115      1.0  0.09963  0.79832  0.39777  1.0000
  F   F116      1.0  0.09357  0.80432  0.88740  1.0000
  F   F117      1.0  0.35040  0.29767  0.37811  1.0000
  F   F118      1.0  0.34851  0.29717  0.87822  1.0000
  F   F119      1.0  0.35038  0.80394  0.36065  1.0000
  F   F120      1.0  0.35375  0.79391  0.87193  1.0000
  F   F121      1.0  0.60265  0.29986  0.37793  1.0000
  F   F122      1.0  0.58992  0.30994  0.87327  1.0000
  F   F123      1.0  0.60087  0.80366  0.36669  1.0000
  F   F124      1.0  0.60053  0.80725  0.88159  1.0000
  F   F125      1.0  0.85812  0.29821  0.37394  1.0000
  F   F126      1.0  0.84938  0.29830  0.84654  1.0000
  F   F127      1.0  0.84758  0.80421  0.36029  1.0000
  F   F128      1.0  0.85131  0.80612  0.87509  1.0000
  F   F129      1.0  0.05892  0.24877  0.15270  1.0000
  F   F130      1.0  0.06418  0.25414  0.63946  1.0000
  F   F131      1.0  0.05297  0.74267  0.15967  1.0000
  F   F132      1.0  0.06106  0.75209  0.64988  1.0000
  F   F133      1.0  0.31552  0.25179  0.14600  1.0000
  F   F134      1.0  0.31794  0.25484  0.62751  1.0000
  F   F135      1.0  0.31342  0.75151  0.14522  1.0000
  F   F136      1.0  0.30541  0.73947  0.66272  1.0000
  F   F137      1.0  0.56065  0.25081  0.13953  1.0000
  F   F138      1.0  0.57004  0.26044  0.62571  1.0000
  F   F139      1.0  0.55930  0.75931  0.14878  1.0000
  F   F140      1.0  0.56888  0.75505  0.63662  1.0000
  F   F141      1.0  0.81178  0.25303  0.14341  1.0000
  F   F142      1.0  0.82044  0.25950  0.63250  1.0000
  F   F143      1.0  0.81692  0.75379  0.13517  1.0000
  F   F144      1.0  0.79741  0.74507  0.66339  1.0000
  F   F145      1.0  0.12486  0.36860  0.09415  1.0000
  F   F146      1.0  0.12412  0.37049  0.60390  1.0000
  F   F147      1.0  0.12270  0.86932  0.09666  1.0000
  F   F148      1.0  0.12613  0.87729  0.59831  1.0000
  F   F149      1.0  0.37454  0.39330  0.09519  1.0000
  F   F150      1.0  0.37622  0.36360  0.60181  1.0000
  F   F151      1.0  0.37517  0.86098  0.12432  1.0000
  F   F152      1.0  0.37375  0.85143  0.62840  1.0000
  F   F153      1.0  0.62843  0.37859  0.10124  1.0000
  F   F154      1.0  0.62556  0.38364  0.61121  1.0000
  F   F155      1.0  0.62279  0.87014  0.11392  1.0000
  F   F156      1.0  0.62640  0.87054  0.60140  1.0000
  F   F157      1.0  0.87149  0.36161  0.11927  1.0000
  F   F158      1.0  0.87407  0.37272  0.60641  1.0000
  F   F159      1.0  0.87320  0.85513  0.12475  1.0000
  F   F160      1.0  0.87079  0.85690  0.61853  1.0000
  F   F161      1.0  0.19214  0.24833  0.32908  1.0000
  F   F162      1.0  0.17866  0.24451  0.85089  1.0000
  F   F163      1.0  0.18811  0.74813  0.35693  1.0000
  F   F164      1.0  0.18578  0.75039  0.86316  1.0000
  F   F165      1.0  0.43336  0.24294  0.36267  1.0000
  F   F166      1.0  0.43455  0.25011  0.84954  1.0000
  F   F167      1.0  0.42901  0.74112  0.38551  1.0000
  F   F168      1.0  0.44586  0.74433  0.84333  1.0000
  F   F169      1.0  0.68390  0.24204  0.35287  1.0000
  F   F170      1.0  0.67848  0.24701  0.87012  1.0000
  F   F171      1.0  0.68328  0.73770  0.36682  1.0000
  F   F172      1.0  0.68946  0.75282  0.85213  1.0000
  F   F173      1.0  0.94548  0.25223  0.34615  1.0000
  F   F174      1.0  0.93084  0.23869  0.87027  1.0000
  F   F175      1.0  0.93249  0.74537  0.36318  1.0000
  F   F176      1.0  0.93871  0.74530  0.84017  1.0000
  F   F177      1.0  0.12712  0.12922  0.39375  1.0000
  F   F178      1.0  0.12757  0.12741  0.87768  1.0000
  F   F179      1.0  0.12851  0.64861  0.38338  1.0000
  F   F180      1.0  0.12694  0.66000  0.87703  1.0000
  F   F181      1.0  0.37256  0.12278  0.39203  1.0000
  F   F182      1.0  0.37875  0.11824  0.89357  1.0000
  F   F183      1.0  0.37250  0.61897  0.39322  1.0000
  F   F184      1.0  0.37793  0.60785  0.91472  1.0000
  F   F185      1.0  0.63069  0.13383  0.38194  1.0000
  F   F186      1.0  0.62243  0.14184  0.89059  1.0000
  F   F187      1.0  0.62354  0.63343  0.38732  1.0000
  F   F188      1.0  0.62854  0.64459  0.88906  1.0000
  F   F189      1.0  0.87578  0.13034  0.39940  1.0000
  F   F190      1.0  0.87408  0.11226  0.89995  1.0000
  F   F191      1.0  0.87668  0.62141  0.39655  1.0000
  F   F192      1.0  0.87965  0.62731  0.88182  1.0000
  F   F193      1.0  0.00520  0.35777  0.07215  1.0000
  F   F194      1.0  0.00350  0.35817  0.58263  1.0000
  F   F195      1.0  0.00313  0.86736  0.07851  1.0000
  F   F196      1.0  0.00891  0.85921  0.57301  1.0000
  F   F197      1.0  0.25569  0.36921  0.07555  1.0000
  F   F198      1.0  0.26127  0.36876  0.55174  1.0000
  F   F199      1.0  0.25161  0.84576  0.08612  1.0000
  F   F200      1.0  0.25290  0.86831  0.56871  1.0000
  F   F201      1.0  0.50230  0.35706  0.08207  1.0000
  F   F202      1.0  0.50975  0.35511  0.56876  1.0000
  F   F203      1.0  0.51044  0.87109  0.06914  1.0000
  F   F204      1.0  0.50724  0.85086  0.59326  1.0000
  F   F205      1.0  0.75721  0.36294  0.07715  1.0000
  F   F206      1.0  0.75397  0.35171  0.59351  1.0000
  F   F207      1.0  0.75871  0.86744  0.06520  1.0000
  F   F208      1.0  0.75897  0.87223  0.55107  1.0000
  F   F209      1.0  0.07046  0.48519  0.17512  1.0000
  F   F210      1.0  0.06999  0.47447  0.68956  1.0000
  F   F211      1.0  0.07020  0.97229  0.17540  1.0000
  F   F212      1.0  0.06848  0.98904  0.66849  1.0000
  F   F213      1.0  0.31761  0.48745  0.18617  1.0000
  F   F214      1.0  0.31764  0.47675  0.67670  1.0000
  F   F215      1.0  0.32355  0.98796  0.15974  1.0000
  F   F216      1.0  0.31799  0.97788  0.68556  1.0000
  F   F217      1.0  0.56625  0.46942  0.20229  1.0000
  F   F218      1.0  0.56808  0.48869  0.65676  1.0000
  F   F219      1.0  0.57114  0.98290  0.18637  1.0000
  F   F220      1.0  0.56869  0.98304  0.67923  1.0000
  F   F221      1.0  0.82059  0.47790  0.17775  1.0000
  F   F222      1.0  0.81847  0.48332  0.67967  1.0000
  F   F223      1.0  0.81213  0.99022  0.17681  1.0000
  F   F224      1.0  0.81642  0.99550  0.66853  1.0000
  F   F225      1.0  0.24367  0.13690  0.42087  1.0000
  F   F226      1.0  0.24373  0.14519  0.93103  1.0000
  F   F227      1.0  0.24564  0.63111  0.42495  1.0000
  F   F228      1.0  0.24638  0.62521  0.91368  1.0000
  F   F229      1.0  0.49495  0.14330  0.42187  1.0000
  F   F230      1.0  0.48738  0.13743  0.93575  1.0000
  F   F231      1.0  0.49102  0.63162  0.43111  1.0000
  F   F232      1.0  0.49716  0.63439  0.93328  1.0000
  F   F233      1.0  0.73896  0.14221  0.43043  1.0000
  F   F234      1.0  0.74482  0.14705  0.90844  1.0000
  F   F235      1.0  0.74350  0.63063  0.42086  1.0000
  F   F236      1.0  0.74566  0.64661  0.90854  1.0000
  F   F237      1.0  0.99229  0.14183  0.43152  1.0000
  F   F238      1.0  0.99236  0.13025  0.91838  1.0000
  F   F239      1.0  0.99211  0.62807  0.44595  1.0000
  F   F240      1.0  0.99065  0.64180  0.91982  1.0000
  F   F241      1.0  0.18636  0.01514  0.31463  1.0000
  F   F242      1.0  0.18297  0.01149  0.83012  1.0000
  F   F243      1.0  0.17800  0.51199  0.33270  1.0000
  F   F244      1.0  0.17191  0.52608  0.82407  1.0000
  F   F245      1.0  0.43837  0.01859  0.31260  1.0000
  F   F246      1.0  0.43619  0.02194  0.80370  1.0000
  F   F247      1.0  0.43416  0.51502  0.31194  1.0000
  F   F248      1.0  0.43139  0.51091  0.81603  1.0000
  F   F249      1.0  0.68512  0.01522  0.31733  1.0000
  F   F250      1.0  0.67885  0.02172  0.83101  1.0000
  F   F251      1.0  0.67684  0.51914  0.32156  1.0000
  F   F252      1.0  0.67486  0.51959  0.82250  1.0000
  F   F253      1.0  0.93086  0.01737  0.31727  1.0000
  F   F254      1.0  0.93450  0.01789  0.80642  1.0000
  F   F255      1.0  0.93684  0.51412  0.32881  1.0000
  F   F256      1.0  0.93221  0.50389  0.82709  1.0000
  F   F257      1.0  0.99995  0.23584  0.00658  1.0000
  F   F258      1.0  0.99778  0.25586  0.49894  1.0000
  F   F259      1.0  0.99547  0.75980  0.99224  1.0000
  F   F260      1.0  0.00317  0.76227  0.48828  1.0000
  F   F261      1.0  0.25134  0.24523  0.00747  1.0000
  F   F262      1.0  0.25388  0.25393  0.48481  1.0000
  F   F263      1.0  0.24382  0.73321  0.00426  1.0000
  F   F264      1.0  0.24579  0.75266  0.49402  1.0000
  F   F265      1.0  0.49526  0.25315  0.00459  1.0000
  F   F266      1.0  0.50560  0.26131  0.47599  1.0000
  F   F267      1.0  0.50100  0.76196  0.00294  1.0000
  F   F268      1.0  0.49807  0.74995  0.50823  1.0000
  F   F269      1.0  0.75191  0.25484  0.98849  1.0000
  F   F270      1.0  0.75462  0.26264  0.49658  1.0000
  F   F271      1.0  0.75236  0.74035  0.01521  1.0000
  F   F272      1.0  0.75132  0.74242  0.50140  1.0000
  F   F273      1.0  0.12544  0.99204  0.25585  1.0000
  F   F274      1.0  0.12333  0.99166  0.74289  1.0000
  F   F275      1.0  0.12312  0.48956  0.25475  1.0000
  F   F276      1.0  0.12372  0.49227  0.75359  1.0000
  F   F277      1.0  0.36436  0.98697  0.27369  1.0000
  F   F278      1.0  0.36945  0.99049  0.77235  1.0000
  F   F279      1.0  0.37253  0.49435  0.26183  1.0000
  F   F280      1.0  0.36464  0.49322  0.76508  1.0000
  F   F281      1.0  0.63072  0.00351  0.24832  1.0000
  F   F282      1.0  0.62174  0.00186  0.74734  1.0000
  F   F283      1.0  0.62272  0.49258  0.25601  1.0000
  F   F284      1.0  0.62249  0.49990  0.74262  1.0000
  F   F285      1.0  0.86679  0.99446  0.26211  1.0000
  F   F286      1.0  0.86639  0.99030  0.75964  1.0000
  F   F287      1.0  0.87942  0.51302  0.24427  1.0000
  F   F288      1.0  0.87192  0.49917  0.76482  1.0000
  F   F289      1.0  0.03690  0.02936  0.03462  1.0000
  F   F290      1.0  0.04251  0.02518  0.51296  1.0000
  F   F291      1.0  0.05408  0.53012  0.01613  1.0000
  F   F292      1.0  0.04947  0.52673  0.53310  1.0000
  F   F293      1.0  0.29648  0.03010  0.01556  1.0000
  F   F294      1.0  0.28869  0.02164  0.52507  1.0000
  F   F295      1.0  0.29622  0.52942  0.01891  1.0000
  F   F296      1.0  0.29211  0.53055  0.52660  1.0000
  F   F297      1.0  0.54401  0.03312  0.04061  1.0000
  F   F298      1.0  0.55478  0.02912  0.50421  1.0000
  F   F299      1.0  0.54594  0.52957  0.03471  1.0000
  F   F300      1.0  0.54191  0.53809  0.51841  1.0000
  F   F301      1.0  0.79123  0.03547  0.01733  1.0000
  F   F302      1.0  0.79187  0.03320  0.52347  1.0000
  F   F303      1.0  0.80080  0.52862  0.00925  1.0000
  F   F304      1.0  0.79158  0.53704  0.51826  1.0000
  F   F305      1.0  0.23315  0.41429  0.23893  1.0000
  F   F306      1.0  0.23584  0.41475  0.72989  1.0000
  F   F307      1.0  0.23677  0.91276  0.21891  1.0000
  F   F308      1.0  0.23123  0.91126  0.72554  1.0000
  F   F309      1.0  0.48565  0.39155  0.23224  1.0000
  F   F310      1.0  0.48317  0.41174  0.73673  1.0000
  F   F311      1.0  0.48509  0.90214  0.23783  1.0000
  F   F312      1.0  0.48668  0.91341  0.73219  1.0000
  F   F313      1.0  0.73684  0.41104  0.23151  1.0000
  F   F314      1.0  0.72855  0.43333  0.71688  1.0000
  F   F315      1.0  0.73694  0.89931  0.22533  1.0000
  F   F316      1.0  0.73250  0.92315  0.71950  1.0000
  F   F317      1.0  0.98968  0.42063  0.22130  1.0000
  F   F318      1.0  0.98622  0.40959  0.74212  1.0000
  F   F319      1.0  0.98437  0.90792  0.23522  1.0000
  F   F320      1.0  0.98696  0.91185  0.72341  1.0000
  F   F321      1.0  0.20307  0.47082  0.47434  1.0000
  F   F322      1.0  0.20496  0.46704  0.96805  1.0000
  F   F323      1.0  0.20524  0.96771  0.47012  1.0000
  F   F324      1.0  0.20457  0.97017  0.99385  1.0000
  F   F325      1.0  0.45969  0.46666  0.47246  1.0000
  F   F326      1.0  0.45878  0.47531  0.96755  1.0000
  F   F327      1.0  0.46561  0.96795  0.47221  1.0000
  F   F328      1.0  0.45833  0.97315  0.96958  1.0000
  F   F329      1.0  0.71145  0.46532  0.48381  1.0000
  F   F330      1.0  0.70452  0.48107  0.98081  1.0000
  F   F331      1.0  0.69891  0.97541  0.48656  1.0000
  F   F332      1.0  0.70766  0.97120  0.97445  1.0000
  F   F333      1.0  0.96247  0.46426  0.46274  1.0000
  F   F334      1.0  0.94958  0.46879  0.98921  1.0000
  F   F335      1.0  0.95668  0.96685  0.47382  1.0000
  F   F336      1.0  0.95761  0.96157  0.95654  1.0000
  F   F337      1.0  0.01176  0.09682  0.26890  1.0000
  F   F338      1.0  0.01567  0.08239  0.76365  1.0000
  F   F339      1.0  0.01781  0.58172  0.27916  1.0000
  F   F340      1.0  0.01430  0.58243  0.76948  1.0000
  F   F341      1.0  0.26764  0.07919  0.26097  1.0000
  F   F342      1.0  0.26472  0.08261  0.77445  1.0000
  F   F343      1.0  0.26632  0.58395  0.26751  1.0000
  F   F344      1.0  0.25690  0.57721  0.77218  1.0000
  F   F345      1.0  0.52054  0.07545  0.28473  1.0000
  F   F346      1.0  0.51536  0.08395  0.77384  1.0000
  F   F347      1.0  0.51401  0.58797  0.26723  1.0000
  F   F348      1.0  0.51921  0.59092  0.75424  1.0000
  F   F349      1.0  0.76678  0.10074  0.26732  1.0000
  F   F350      1.0  0.76628  0.08946  0.77007  1.0000
  F   F351      1.0  0.76671  0.58305  0.27134  1.0000
  F   F352      1.0  0.76395  0.57794  0.77836  1.0000
  F   F353      1.0  0.10533  0.39078  0.45934  1.0000
  F   F354      1.0  0.09674  0.39858  0.95598  1.0000
  F   F355      1.0  0.10029  0.90804  0.46192  1.0000
  F   F356      1.0  0.09731  0.91998  0.96128  1.0000
  F   F357      1.0  0.35180  0.41285  0.45252  1.0000
  F   F358      1.0  0.34762  0.41133  0.96448  1.0000
  F   F359      1.0  0.34881  0.89648  0.47338  1.0000
  F   F360      1.0  0.35305  0.90450  0.97156  1.0000
  F   F361      1.0  0.60355  0.42017  0.46490  1.0000
  F   F362      1.0  0.59883  0.39934  0.97445  1.0000
  F   F363      1.0  0.60487  0.91428  0.44991  1.0000
  F   F364      1.0  0.60103  0.92628  0.95750  1.0000
  F   F365      1.0  0.85117  0.41487  0.44932  1.0000
  F   F366      1.0  0.84946  0.39413  0.96476  1.0000
  F   F367      1.0  0.84849  0.89344  0.46807  1.0000
  F   F368      1.0  0.85192  0.91571  0.96206  1.0000
  F   F369      1.0  0.04728  0.29780  0.29261  1.0000
  F   F370      1.0  0.04142  0.29579  0.79989  1.0000
  F   F371      1.0  0.05045  0.79439  0.28280  1.0000
  F   F372      1.0  0.04801  0.80298  0.78926  1.0000
  F   F373      1.0  0.30326  0.29915  0.28352  1.0000
  F   F374      1.0  0.29747  0.29565  0.78274  1.0000
  F   F375      1.0  0.29587  0.80299  0.28465  1.0000
  F   F376      1.0  0.29596  0.79106  0.80010  1.0000
  F   F377      1.0  0.55585  0.28886  0.28229  1.0000
  F   F378      1.0  0.54546  0.29311  0.78348  1.0000
  F   F379      1.0  0.54782  0.79869  0.28851  1.0000
  F   F380      1.0  0.55003  0.80487  0.77713  1.0000
  F   F381      1.0  0.79868  0.29930  0.29770  1.0000
  F   F382      1.0  0.78645  0.29908  0.78848  1.0000
  F   F383      1.0  0.79180  0.79792  0.28798  1.0000
  F   F384      1.0  0.79434  0.81587  0.78762  1.0000
