data_image0
_chemical_formula_structural       Hf96F384
_chemical_formula_sum              "Hf96 F384"
_cell_length_a       31.0241
_cell_length_b       15.5127
_cell_length_c       15.5038
_cell_angle_alpha    63.342
_cell_angle_beta     63.342
_cell_angle_gamma    80.1625

_space_group_name_H-M_alt    "P 1"
_space_group_IT_number       1

loop_
  _space_group_symop_operation_xyz
  'x, y, z'

loop_
  _atom_site_type_symbol
  _atom_site_label
  _atom_site_symmetry_multiplicity
  _atom_site_fract_x
  _atom_site_fract_y
  _atom_site_fract_z
  _atom_site_occupancy
  Hf  Hf1       1.0  0.19584  0.09848  0.38072  1.0000
  Hf  Hf2       1.0  0.19556  0.10029  0.88138  1.0000
  Hf  Hf3       1.0  0.19671  0.60344  0.37764  1.0000
  Hf  Hf4       1.0  0.19442  0.60589  0.89051  1.0000
  Hf  Hf5       1.0  0.44833  0.10329  0.37616  1.0000
  Hf  Hf6       1.0  0.44681  0.11013  0.87667  1.0000
  Hf  Hf7       1.0  0.44434  0.60617  0.38003  1.0000
  Hf  Hf8       1.0  0.44366  0.60288  0.88760  1.0000
  Hf  Hf9       1.0  0.69779  0.11058  0.36205  1.0000
  Hf  Hf10      1.0  0.70052  0.10781  0.86124  1.0000
  Hf  Hf11      1.0  0.69712  0.61210  0.36518  1.0000
  Hf  Hf12      1.0  0.69688  0.61674  0.86394  1.0000
  Hf  Hf13      1.0  0.94520  0.10237  0.37758  1.0000
  Hf  Hf14      1.0  0.94805  0.10128  0.87080  1.0000
  Hf  Hf15      1.0  0.94512  0.60956  0.37576  1.0000
  Hf  Hf16      1.0  0.94526  0.60150  0.87664  1.0000
  Hf  Hf17      1.0  0.05346  0.38628  0.13255  1.0000
  Hf  Hf18      1.0  0.05537  0.38609  0.63335  1.0000
  Hf  Hf19      1.0  0.04937  0.88861  0.14195  1.0000
  Hf  Hf20      1.0  0.05773  0.89153  0.62388  1.0000
  Hf  Hf21      1.0  0.30509  0.38300  0.12718  1.0000
  Hf  Hf22      1.0  0.30206  0.39337  0.62270  1.0000
  Hf  Hf23      1.0  0.30146  0.88827  0.12883  1.0000
  Hf  Hf24      1.0  0.30093  0.89601  0.63667  1.0000
  Hf  Hf25      1.0  0.55648  0.39110  0.12131  1.0000
  Hf  Hf26      1.0  0.55670  0.39168  0.61829  1.0000
  Hf  Hf27      1.0  0.55519  0.90041  0.11620  1.0000
  Hf  Hf28      1.0  0.55448  0.89962  0.61593  1.0000
  Hf  Hf29      1.0  0.80295  0.40373  0.11403  1.0000
  Hf  Hf30      1.0  0.80319  0.39469  0.62423  1.0000
  Hf  Hf31      1.0  0.79787  0.89592  0.12551  1.0000
  Hf  Hf32      1.0  0.80216  0.89229  0.63407  1.0000
  Hf  Hf33      1.0  0.05776  0.17762  0.41502  1.0000
  Hf  Hf34      1.0  0.05413  0.17877  0.92515  1.0000
  Hf  Hf35      1.0  0.05243  0.67527  0.42851  1.0000
  Hf  Hf36      1.0  0.05640  0.68028  0.92857  1.0000
  Hf  Hf37      1.0  0.30861  0.17899  0.41234  1.0000
  Hf  Hf38      1.0  0.30873  0.18635  0.91459  1.0000
  Hf  Hf39      1.0  0.30682  0.68194  0.41592  1.0000
  Hf  Hf40      1.0  0.30404  0.68090  0.92641  1.0000
  Hf  Hf41      1.0  0.55981  0.18589  0.40771  1.0000
  Hf  Hf42      1.0  0.55998  0.19320  0.90335  1.0000
  Hf  Hf43      1.0  0.55139  0.68347  0.41681  1.0000
  Hf  Hf44      1.0  0.55202  0.68025  0.92157  1.0000
  Hf  Hf45      1.0  0.80666  0.18299  0.42032  1.0000
  Hf  Hf46      1.0  0.80714  0.18240  0.91687  1.0000
  Hf  Hf47      1.0  0.80575  0.68359  0.41167  1.0000
  Hf  Hf48      1.0  0.80491  0.68464  0.91607  1.0000
  Hf  Hf49      1.0  0.15498  0.37860  0.34559  1.0000
  Hf  Hf50      1.0  0.16039  0.38240  0.83003  1.0000
  Hf  Hf51      1.0  0.15907  0.88287  0.33904  1.0000
  Hf  Hf52      1.0  0.15388  0.88998  0.84137  1.0000
  Hf  Hf53      1.0  0.40836  0.38786  0.33888  1.0000
  Hf  Hf54      1.0  0.40904  0.39122  0.82944  1.0000
  Hf  Hf55      1.0  0.40752  0.88562  0.33474  1.0000
  Hf  Hf56      1.0  0.40806  0.88734  0.83178  1.0000
  Hf  Hf57      1.0  0.66018  0.39598  0.31998  1.0000
  Hf  Hf58      1.0  0.66655  0.39842  0.81455  1.0000
  Hf  Hf59      1.0  0.65676  0.89094  0.32581  1.0000
  Hf  Hf60      1.0  0.65806  0.89762  0.82316  1.0000
  Hf  Hf61      1.0  0.90949  0.39184  0.33755  1.0000
  Hf  Hf62      1.0  0.90782  0.38571  0.82823  1.0000
  Hf  Hf63      1.0  0.90821  0.88309  0.33556  1.0000
  Hf  Hf64      1.0  0.91041  0.88055  0.83410  1.0000
  Hf  Hf65      1.0  0.19538  0.31569  0.09477  1.0000
  Hf  Hf66      1.0  0.19698  0.31493  0.57826  1.0000
  Hf  Hf67      1.0  0.18759  0.81527  0.08665  1.0000
  Hf  Hf68      1.0  0.19445  0.81824  0.58957  1.0000
  Hf  Hf69      1.0  0.44599  0.31950  0.08557  1.0000
  Hf  Hf70      1.0  0.44562  0.31420  0.58286  1.0000
  Hf  Hf71      1.0  0.44458  0.82114  0.08202  1.0000
  Hf  Hf72      1.0  0.44268  0.81572  0.58614  1.0000
  Hf  Hf73      1.0  0.69487  0.32320  0.07412  1.0000
  Hf  Hf74      1.0  0.69662  0.32192  0.57508  1.0000
  Hf  Hf75      1.0  0.69090  0.81488  0.08310  1.0000
  Hf  Hf76      1.0  0.69668  0.82521  0.57533  1.0000
  Hf  Hf77      1.0  0.94303  0.31876  0.08746  1.0000
  Hf  Hf78      1.0  0.94901  0.32390  0.57186  1.0000
  Hf  Hf79      1.0  0.94249  0.81323  0.08979  1.0000
  Hf  Hf80      1.0  0.94462  0.81598  0.58849  1.0000
  Hf  Hf81      1.0  0.09065  0.10456  0.17762  1.0000
  Hf  Hf82      1.0  0.09281  0.10998  0.66467  1.0000
  Hf  Hf83      1.0  0.08981  0.61188  0.17699  1.0000
  Hf  Hf84      1.0  0.09291  0.61057  0.67140  1.0000
  Hf  Hf85      1.0  0.34250  0.10418  0.16364  1.0000
  Hf  Hf86      1.0  0.34163  0.11453  0.67007  1.0000
  Hf  Hf87      1.0  0.34347  0.60875  0.16649  1.0000
  Hf  Hf88      1.0  0.33826  0.61020  0.67663  1.0000
  Hf  Hf89      1.0  0.59323  0.11635  0.15210  1.0000
  Hf  Hf90      1.0  0.59201  0.11906  0.65638  1.0000
  Hf  Hf91      1.0  0.58954  0.61700  0.16125  1.0000
  Hf  Hf92      1.0  0.58966  0.61987  0.65579  1.0000
  Hf  Hf93      1.0  0.84579  0.10758  0.16842  1.0000
  Hf  Hf94      1.0  0.84552  0.11088  0.66582  1.0000
  Hf  Hf95      1.0  0.83872  0.61609  0.16842  1.0000
  Hf  Hf96      1.0  0.84024  0.61884  0.66542  1.0000
  F   F1        1.0  0.08010  0.13124  0.30222  1.0000
  F   F2        1.0  0.07621  0.12610  0.81560  1.0000
  F   F3        1.0  0.07921  0.64262  0.30217  1.0000
  F   F4        1.0  0.07643  0.60675  0.82164  1.0000
  F   F5        1.0  0.33107  0.12127  0.30496  1.0000
  F   F6        1.0  0.32677  0.12462  0.80445  1.0000
  F   F7        1.0  0.32718  0.63371  0.30456  1.0000
  F   F8        1.0  0.33053  0.63260  0.80588  1.0000
  F   F9        1.0  0.58059  0.13641  0.29587  1.0000
  F   F10       1.0  0.58301  0.12736  0.79424  1.0000
  F   F11       1.0  0.58502  0.65152  0.29161  1.0000
  F   F12       1.0  0.57531  0.62050  0.81142  1.0000
  F   F13       1.0  0.82855  0.11726  0.30271  1.0000
  F   F14       1.0  0.83042  0.14495  0.79194  1.0000
  F   F15       1.0  0.82596  0.63543  0.29964  1.0000
  F   F16       1.0  0.82814  0.63480  0.79677  1.0000
  F   F17       1.0  0.19186  0.34254  0.44163  1.0000
  F   F18       1.0  0.18879  0.34550  0.95797  1.0000
  F   F19       1.0  0.19181  0.85489  0.43530  1.0000
  F   F20       1.0  0.17536  0.84698  0.95416  1.0000
  F   F21       1.0  0.42790  0.33236  0.45915  1.0000
  F   F22       1.0  0.44135  0.34663  0.94532  1.0000
  F   F23       1.0  0.42468  0.82982  0.45859  1.0000
  F   F24       1.0  0.44030  0.84541  0.94224  1.0000
  F   F25       1.0  0.69542  0.34222  0.42995  1.0000
  F   F26       1.0  0.69725  0.35049  0.92460  1.0000
  F   F27       1.0  0.68691  0.83626  0.44213  1.0000
  F   F28       1.0  0.68456  0.84568  0.94310  1.0000
  F   F29       1.0  0.94446  0.35127  0.43218  1.0000
  F   F30       1.0  0.93597  0.33749  0.94355  1.0000
  F   F31       1.0  0.93997  0.84628  0.44404  1.0000
  F   F32       1.0  0.92730  0.83772  0.96088  1.0000
  F   F33       1.0  0.16773  0.37518  0.19970  1.0000
  F   F34       1.0  0.16940  0.36791  0.69475  1.0000
  F   F35       1.0  0.16938  0.86371  0.20266  1.0000
  F   F36       1.0  0.16456  0.86867  0.69821  1.0000
  F   F37       1.0  0.42720  0.38459  0.18347  1.0000
  F   F38       1.0  0.42178  0.36772  0.70113  1.0000
  F   F39       1.0  0.42054  0.87512  0.19964  1.0000
  F   F40       1.0  0.42452  0.88287  0.69411  1.0000
  F   F41       1.0  0.66857  0.37299  0.18982  1.0000
  F   F42       1.0  0.67306  0.37635  0.68864  1.0000
  F   F43       1.0  0.66373  0.85423  0.20791  1.0000
  F   F44       1.0  0.66940  0.87261  0.68826  1.0000
  F   F45       1.0  0.91593  0.36652  0.20962  1.0000
  F   F46       1.0  0.92768  0.38796  0.67649  1.0000
  F   F47       1.0  0.91798  0.86550  0.20071  1.0000
  F   F48       1.0  0.92362  0.86682  0.70032  1.0000
  F   F49       1.0  0.05975  0.15297  0.06171  1.0000
  F   F50       1.0  0.05689  0.14392  0.56064  1.0000
  F   F51       1.0  0.05993  0.65879  0.05877  1.0000
  F   F52       1.0  0.06328  0.65570  0.56439  1.0000
  F   F53       1.0  0.31705  0.14534  0.05817  1.0000
  F   F54       1.0  0.31458  0.15396  0.55488  1.0000
  F   F55       1.0  0.32070  0.66743  0.05120  1.0000
  F   F56       1.0  0.31070  0.65060  0.55852  1.0000
  F   F57       1.0  0.57302  0.16705  0.03015  1.0000
  F   F58       1.0  0.56687  0.16926  0.53911  1.0000
  F   F59       1.0  0.55767  0.64991  0.06194  1.0000
  F   F60       1.0  0.55565  0.64775  0.56037  1.0000
  F   F61       1.0  0.82151  0.16371  0.04357  1.0000
  F   F62       1.0  0.81923  0.15744  0.55232  1.0000
  F   F63       1.0  0.80586  0.65773  0.05463  1.0000
  F   F64       1.0  0.81682  0.65692  0.54865  1.0000
  F   F65       1.0  0.20552  0.19825  0.22681  1.0000
  F   F66       1.0  0.20154  0.19448  0.70004  1.0000
  F   F67       1.0  0.20788  0.68870  0.21612  1.0000
  F   F68       1.0  0.20173  0.70786  0.71833  1.0000
  F   F69       1.0  0.45197  0.20868  0.21019  1.0000
  F   F70       1.0  0.45155  0.21754  0.71453  1.0000
  F   F71       1.0  0.45309  0.69903  0.21264  1.0000
  F   F72       1.0  0.45040  0.70832  0.71781  1.0000
  F   F73       1.0  0.70421  0.20725  0.21366  1.0000
  F   F74       1.0  0.71309  0.19495  0.70100  1.0000
  F   F75       1.0  0.70545  0.68684  0.20299  1.0000
  F   F76       1.0  0.71533  0.70169  0.70473  1.0000
  F   F77       1.0  0.95229  0.19968  0.21066  1.0000
  F   F78       1.0  0.95692  0.20751  0.71789  1.0000
  F   F79       1.0  0.95561  0.69834  0.20191  1.0000
  F   F80       1.0  0.94974  0.70081  0.70963  1.0000
  F   F81       1.0  0.14552  0.07439  0.04915  1.0000
  F   F82       1.0  0.15629  0.09390  0.54191  1.0000
  F   F83       1.0  0.14837  0.59624  0.05318  1.0000
  F   F84       1.0  0.14802  0.59456  0.54100  1.0000
  F   F85       1.0  0.39832  0.08037  0.02226  1.0000
  F   F86       1.0  0.39892  0.08804  0.53653  1.0000
  F   F87       1.0  0.40220  0.56814  0.05037  1.0000
  F   F88       1.0  0.39663  0.58858  0.53768  1.0000
  F   F89       1.0  0.64987  0.09961  0.03169  1.0000
  F   F90       1.0  0.65462  0.10974  0.52897  1.0000
  F   F91       1.0  0.64460  0.59759  0.03283  1.0000
  F   F92       1.0  0.64107  0.61258  0.52785  1.0000
  F   F93       1.0  0.90359  0.09285  0.04854  1.0000
  F   F94       1.0  0.90222  0.08581  0.53676  1.0000
  F   F95       1.0  0.89528  0.58252  0.04518  1.0000
  F   F96       1.0  0.89712  0.58121  0.53578  1.0000
  F   F97       1.0  0.14918  0.19365  0.13773  1.0000
  F   F98       1.0  0.14522  0.20445  0.62336  1.0000
  F   F99       1.0  0.15819  0.68831  0.13408  1.0000
  F   F100      1.0  0.14890  0.70882  0.62131  1.0000
  F   F101      1.0  0.40392  0.18364  0.11915  1.0000
  F   F102      1.0  0.39707  0.19335  0.64123  1.0000
  F   F103      1.0  0.39619  0.70039  0.12508  1.0000
  F   F104      1.0  0.39793  0.68977  0.62980  1.0000
  F   F105      1.0  0.65453  0.20384  0.11708  1.0000
  F   F106      1.0  0.65687  0.20510  0.62715  1.0000
  F   F107      1.0  0.65604  0.69269  0.12143  1.0000
  F   F108      1.0  0.64918  0.71365  0.63336  1.0000
  F   F109      1.0  0.89565  0.21216  0.13196  1.0000
  F   F110      1.0  0.90274  0.20712  0.62510  1.0000
  F   F111      1.0  0.89980  0.68376  0.13046  1.0000
  F   F112      1.0  0.89963  0.69940  0.60841  1.0000
  F   F113      1.0  0.09934  0.29920  0.36698  1.0000
  F   F114      1.0  0.09760  0.29977  0.89285  1.0000
  F   F115      1.0  0.09952  0.79606  0.36435  1.0000
  F   F116      1.0  0.09178  0.82233  0.88177  1.0000
  F   F117      1.0  0.35468  0.30670  0.37846  1.0000
  F   F118      1.0  0.34646  0.29803  0.87833  1.0000
  F   F119      1.0  0.34495  0.79746  0.38849  1.0000
  F   F120      1.0  0.34767  0.79567  0.87091  1.0000
  F   F121      1.0  0.59889  0.30869  0.34716  1.0000
  F   F122      1.0  0.60338  0.31310  0.84469  1.0000
  F   F123      1.0  0.59824  0.78821  0.38248  1.0000
  F   F124      1.0  0.59074  0.80362  0.89058  1.0000
  F   F125      1.0  0.84705  0.30353  0.38936  1.0000
  F   F126      1.0  0.85150  0.29663  0.84784  1.0000
  F   F127      1.0  0.84553  0.80820  0.37506  1.0000
  F   F128      1.0  0.84773  0.81051  0.85618  1.0000
  F   F129      1.0  0.06042  0.24434  0.14407  1.0000
  F   F130      1.0  0.06090  0.24718  0.65084  1.0000
  F   F131      1.0  0.06720  0.75429  0.13942  1.0000
  F   F132      1.0  0.06108  0.74752  0.64955  1.0000
  F   F133      1.0  0.31016  0.23819  0.15172  1.0000
  F   F134      1.0  0.31920  0.25432  0.63069  1.0000
  F   F135      1.0  0.30806  0.74564  0.16083  1.0000
  F   F136      1.0  0.31251  0.74728  0.64328  1.0000
  F   F137      1.0  0.56495  0.24850  0.13777  1.0000
  F   F138      1.0  0.56778  0.25028  0.64209  1.0000
  F   F139      1.0  0.57756  0.76697  0.10553  1.0000
  F   F140      1.0  0.57130  0.75383  0.62225  1.0000
  F   F141      1.0  0.81133  0.26166  0.13984  1.0000
  F   F142      1.0  0.81617  0.24919  0.65106  1.0000
  F   F143      1.0  0.81293  0.75401  0.13173  1.0000
  F   F144      1.0  0.81017  0.75869  0.64666  1.0000
  F   F145      1.0  0.12202  0.37059  0.11869  1.0000
  F   F146      1.0  0.12833  0.37864  0.59930  1.0000
  F   F147      1.0  0.11910  0.84704  0.14071  1.0000
  F   F148      1.0  0.12742  0.87804  0.58227  1.0000
  F   F149      1.0  0.37504  0.37020  0.11500  1.0000
  F   F150      1.0  0.37473  0.36625  0.61976  1.0000
  F   F151      1.0  0.37076  0.85808  0.11598  1.0000
  F   F152      1.0  0.37319  0.84400  0.63859  1.0000
  F   F153      1.0  0.62717  0.37198  0.09603  1.0000
  F   F154      1.0  0.62688  0.37972  0.58841  1.0000
  F   F155      1.0  0.62231  0.88370  0.10200  1.0000
  F   F156      1.0  0.62314  0.89751  0.59795  1.0000
  F   F157      1.0  0.87162  0.38725  0.09925  1.0000
  F   F158      1.0  0.87939  0.37282  0.60000  1.0000
  F   F159      1.0  0.87228  0.87186  0.11006  1.0000
  F   F160      1.0  0.87568  0.86628  0.61497  1.0000
  F   F161      1.0  0.17742  0.24282  0.37322  1.0000
  F   F162      1.0  0.18875  0.24729  0.86302  1.0000
  F   F163      1.0  0.18419  0.74925  0.36225  1.0000
  F   F164      1.0  0.17922  0.74602  0.86927  1.0000
  F   F165      1.0  0.43613  0.24417  0.35703  1.0000
  F   F166      1.0  0.43293  0.25542  0.86697  1.0000
  F   F167      1.0  0.43571  0.75138  0.35660  1.0000
  F   F168      1.0  0.43322  0.74222  0.87203  1.0000
  F   F169      1.0  0.68067  0.24913  0.35892  1.0000
  F   F170      1.0  0.69333  0.26755  0.83349  1.0000
  F   F171      1.0  0.69059  0.75364  0.32651  1.0000
  F   F172      1.0  0.68979  0.76622  0.83754  1.0000
  F   F173      1.0  0.93798  0.25338  0.35693  1.0000
  F   F174      1.0  0.93086  0.25547  0.85391  1.0000
  F   F175      1.0  0.93212  0.74613  0.36963  1.0000
  F   F176      1.0  0.92616  0.73705  0.86764  1.0000
  F   F177      1.0  0.12450  0.11164  0.41021  1.0000
  F   F178      1.0  0.12568  0.13444  0.89009  1.0000
  F   F179      1.0  0.12522  0.62414  0.40121  1.0000
  F   F180      1.0  0.12442  0.61808  0.90869  1.0000
  F   F181      1.0  0.37693  0.14124  0.38123  1.0000
  F   F182      1.0  0.37426  0.14338  0.87722  1.0000
  F   F183      1.0  0.37906  0.63313  0.37791  1.0000
  F   F184      1.0  0.37129  0.61541  0.92122  1.0000
  F   F185      1.0  0.62741  0.11082  0.41199  1.0000
  F   F186      1.0  0.62913  0.13466  0.88404  1.0000
  F   F187      1.0  0.62552  0.62238  0.39147  1.0000
  F   F188      1.0  0.62311  0.64844  0.88318  1.0000
  F   F189      1.0  0.87575  0.14428  0.37481  1.0000
  F   F190      1.0  0.87648  0.11342  0.90156  1.0000
  F   F191      1.0  0.87325  0.63546  0.38258  1.0000
  F   F192      1.0  0.87216  0.61642  0.90236  1.0000
  F   F193      1.0  0.00651  0.37133  0.06874  1.0000
  F   F194      1.0  0.00692  0.36560  0.57129  1.0000
  F   F195      1.0  0.00426  0.85947  0.08253  1.0000
  F   F196      1.0  0.00321  0.85806  0.57688  1.0000
  F   F197      1.0  0.25992  0.35881  0.07021  1.0000
  F   F198      1.0  0.25892  0.35512  0.57875  1.0000
  F   F199      1.0  0.25656  0.85597  0.07193  1.0000
  F   F200      1.0  0.25287  0.86400  0.59563  1.0000
  F   F201      1.0  0.51468  0.37145  0.05872  1.0000
  F   F202      1.0  0.50629  0.35825  0.57470  1.0000
  F   F203      1.0  0.50860  0.86967  0.07280  1.0000
  F   F204      1.0  0.50861  0.86695  0.57240  1.0000
  F   F205      1.0  0.75711  0.38310  0.05313  1.0000
  F   F206      1.0  0.76012  0.36015  0.56094  1.0000
  F   F207      1.0  0.75120  0.85249  0.08724  1.0000
  F   F208      1.0  0.75950  0.87283  0.56286  1.0000
  F   F209      1.0  0.06739  0.49322  0.18047  1.0000
  F   F210      1.0  0.07463  0.48683  0.68060  1.0000
  F   F211      1.0  0.07049  0.97297  0.18379  1.0000
  F   F212      1.0  0.07507  0.98308  0.66930  1.0000
  F   F213      1.0  0.32326  0.49187  0.15757  1.0000
  F   F214      1.0  0.31801  0.47266  0.68739  1.0000
  F   F215      1.0  0.32313  0.96307  0.19080  1.0000
  F   F216      1.0  0.31261  0.98269  0.68555  1.0000
  F   F217      1.0  0.56394  0.48454  0.18021  1.0000
  F   F218      1.0  0.56842  0.48255  0.66759  1.0000
  F   F219      1.0  0.56708  0.99466  0.16756  1.0000
  F   F220      1.0  0.57102  0.98671  0.68421  1.0000
  F   F221      1.0  0.81806  0.48484  0.17688  1.0000
  F   F222      1.0  0.82006  0.48229  0.66558  1.0000
  F   F223      1.0  0.81581  0.98806  0.17818  1.0000
  F   F224      1.0  0.81640  0.98670  0.67533  1.0000
  F   F225      1.0  0.24355  0.15159  0.40918  1.0000
  F   F226      1.0  0.24014  0.12606  0.93713  1.0000
  F   F227      1.0  0.23997  0.63872  0.42451  1.0000
  F   F228      1.0  0.23630  0.63292  0.94807  1.0000
  F   F229      1.0  0.49781  0.13082  0.42728  1.0000
  F   F230      1.0  0.49011  0.15035  0.91642  1.0000
  F   F231      1.0  0.48956  0.63989  0.43078  1.0000
  F   F232      1.0  0.48972  0.64419  0.93345  1.0000
  F   F233      1.0  0.74416  0.14172  0.41195  1.0000
  F   F234      1.0  0.74268  0.13201  0.92014  1.0000
  F   F235      1.0  0.74028  0.64657  0.42278  1.0000
  F   F236      1.0  0.74088  0.64373  0.92535  1.0000
  F   F237      1.0  0.99716  0.12679  0.43287  1.0000
  F   F238      1.0  0.98614  0.15146  0.92265  1.0000
  F   F239      1.0  0.99142  0.62716  0.44751  1.0000
  F   F240      1.0  0.99104  0.64439  0.93222  1.0000
  F   F241      1.0  0.17641  0.01688  0.32363  1.0000
  F   F242      1.0  0.17812  0.01841  0.83038  1.0000
  F   F243      1.0  0.18373  0.49830  0.33148  1.0000
  F   F244      1.0  0.18267  0.52638  0.82429  1.0000
  F   F245      1.0  0.42679  0.00654  0.33765  1.0000
  F   F246      1.0  0.42849  0.01884  0.82646  1.0000
  F   F247      1.0  0.42763  0.51725  0.31904  1.0000
  F   F248      1.0  0.42371  0.51500  0.82728  1.0000
  F   F249      1.0  0.67653  0.01505  0.32796  1.0000
  F   F250      1.0  0.68895  0.01789  0.81180  1.0000
  F   F251      1.0  0.68307  0.51166  0.31624  1.0000
  F   F252      1.0  0.68836  0.52562  0.81409  1.0000
  F   F253      1.0  0.93405  0.01752  0.32000  1.0000
  F   F254      1.0  0.93430  0.00920  0.81541  1.0000
  F   F255      1.0  0.92693  0.52945  0.31979  1.0000
  F   F256      1.0  0.93553  0.51388  0.81372  1.0000
  F   F257      1.0  0.99542  0.24894  0.99977  1.0000
  F   F258      1.0  0.00231  0.24874  0.49153  1.0000
  F   F259      1.0  0.00062  0.76748  0.98512  1.0000
  F   F260      1.0  0.99974  0.73027  0.51989  1.0000
  F   F261      1.0  0.24687  0.23513  0.01455  1.0000
  F   F262      1.0  0.25611  0.25199  0.49495  1.0000
  F   F263      1.0  0.24746  0.74792  0.00475  1.0000
  F   F264      1.0  0.24823  0.73727  0.51649  1.0000
  F   F265      1.0  0.50568  0.25519  0.99636  1.0000
  F   F266      1.0  0.50100  0.25266  0.49476  1.0000
  F   F267      1.0  0.49913  0.74991  0.00669  1.0000
  F   F268      1.0  0.49348  0.74535  0.50538  1.0000
  F   F269      1.0  0.75255  0.25090  0.99606  1.0000
  F   F270      1.0  0.74834  0.22956  0.50877  1.0000
  F   F271      1.0  0.75249  0.77043  0.99268  1.0000
  F   F272      1.0  0.74904  0.74535  0.49807  1.0000
  F   F273      1.0  0.12596  0.99563  0.25455  1.0000
  F   F274      1.0  0.12022  0.00058  0.76764  1.0000
  F   F275      1.0  0.11492  0.49102  0.27075  1.0000
  F   F276      1.0  0.13053  0.49653  0.75045  1.0000
  F   F277      1.0  0.37734  0.00592  0.25003  1.0000
  F   F278      1.0  0.37094  0.98821  0.75559  1.0000
  F   F279      1.0  0.36571  0.49575  0.26299  1.0000
  F   F280      1.0  0.37054  0.49892  0.75894  1.0000
  F   F281      1.0  0.63107  0.00470  0.23468  1.0000
  F   F282      1.0  0.62722  0.01011  0.74027  1.0000
  F   F283      1.0  0.61952  0.50091  0.25963  1.0000
  F   F284      1.0  0.62964  0.51324  0.72746  1.0000
  F   F285      1.0  0.88268  0.00304  0.24239  1.0000
  F   F286      1.0  0.87403  0.99198  0.75297  1.0000
  F   F287      1.0  0.86740  0.48926  0.26182  1.0000
  F   F288      1.0  0.87084  0.49855  0.74965  1.0000
  F   F289      1.0  0.03310  0.03611  0.03747  1.0000
  F   F290      1.0  0.04842  0.01929  0.52114  1.0000
  F   F291      1.0  0.04258  0.53079  0.03282  1.0000
  F   F292      1.0  0.05114  0.51861  0.52908  1.0000
  F   F293      1.0  0.29885  0.02822  0.01578  1.0000
  F   F294      1.0  0.28513  0.03877  0.53023  1.0000
  F   F295      1.0  0.28760  0.52981  0.03424  1.0000
  F   F296      1.0  0.28799  0.53105  0.52147  1.0000
  F   F297      1.0  0.54075  0.04914  0.01792  1.0000
  F   F298      1.0  0.54558  0.03855  0.51819  1.0000
  F   F299      1.0  0.54016  0.53124  0.02757  1.0000
  F   F300      1.0  0.54109  0.52659  0.51427  1.0000
  F   F301      1.0  0.79095  0.03028  0.02518  1.0000
  F   F302      1.0  0.79277  0.03410  0.52987  1.0000
  F   F303      1.0  0.79319  0.53420  0.00139  1.0000
  F   F304      1.0  0.79271  0.52725  0.50290  1.0000
  F   F305      1.0  0.23554  0.38072  0.23526  1.0000
  F   F306      1.0  0.23295  0.40478  0.73200  1.0000
  F   F307      1.0  0.23225  0.91220  0.22437  1.0000
  F   F308      1.0  0.22844  0.92559  0.73187  1.0000
  F   F309      1.0  0.48590  0.39074  0.24190  1.0000
  F   F310      1.0  0.48020  0.41843  0.73005  1.0000
  F   F311      1.0  0.48009  0.92521  0.22152  1.0000
  F   F312      1.0  0.48955  0.91501  0.72169  1.0000
  F   F313      1.0  0.73521  0.40889  0.22181  1.0000
  F   F314      1.0  0.73994  0.44625  0.69875  1.0000
  F   F315      1.0  0.73099  0.92359  0.22590  1.0000
  F   F316      1.0  0.73463  0.91710  0.71833  1.0000
  F   F317      1.0  0.98254  0.42315  0.22560  1.0000
  F   F318      1.0  0.99240  0.40492  0.72656  1.0000
  F   F319      1.0  0.98292  0.90499  0.23533  1.0000
  F   F320      1.0  0.98791  0.89286  0.74285  1.0000
  F   F321      1.0  0.21109  0.46648  0.47291  1.0000
  F   F322      1.0  0.20536  0.47344  0.99668  1.0000
  F   F323      1.0  0.21147  0.97263  0.47816  1.0000
  F   F324      1.0  0.20664  0.95868  0.97529  1.0000
  F   F325      1.0  0.45630  0.47193  0.46661  1.0000
  F   F326      1.0  0.46297  0.46670  0.97943  1.0000
  F   F327      1.0  0.45821  0.96361  0.47528  1.0000
  F   F328      1.0  0.45902  0.96988  0.97683  1.0000
  F   F329      1.0  0.70176  0.47628  0.48034  1.0000
  F   F330      1.0  0.70543  0.48881  0.96382  1.0000
  F   F331      1.0  0.70649  0.96675  0.47427  1.0000
  F   F332      1.0  0.70027  0.98001  0.97259  1.0000
  F   F333      1.0  0.96173  0.47547  0.46718  1.0000
  F   F334      1.0  0.96272  0.46658  0.96264  1.0000
  F   F335      1.0  0.95958  0.96959  0.47166  1.0000
  F   F336      1.0  0.95850  0.96638  0.98050  1.0000
  F   F337      1.0  0.01982  0.07906  0.28597  1.0000
  F   F338      1.0  0.01945  0.07749  0.76922  1.0000
  F   F339      1.0  0.01501  0.60512  0.27003  1.0000
  F   F340      1.0  0.01119  0.60710  0.77074  1.0000
  F   F341      1.0  0.26345  0.08216  0.27786  1.0000
  F   F342      1.0  0.26574  0.10349  0.75207  1.0000
  F   F343      1.0  0.26724  0.57347  0.27651  1.0000
  F   F344      1.0  0.26483  0.58591  0.79462  1.0000
  F   F345      1.0  0.51412  0.08657  0.26321  1.0000
  F   F346      1.0  0.51531  0.09184  0.76029  1.0000
  F   F347      1.0  0.51365  0.59616  0.27499  1.0000
  F   F348      1.0  0.51116  0.60101  0.77033  1.0000
  F   F349      1.0  0.76407  0.08574  0.27634  1.0000
  F   F350      1.0  0.76958  0.07363  0.77835  1.0000
  F   F351      1.0  0.76477  0.57511  0.27822  1.0000
  F   F352      1.0  0.76776  0.58925  0.77175  1.0000
  F   F353      1.0  0.10194  0.38709  0.47542  1.0000
  F   F354      1.0  0.10514  0.39737  0.98106  1.0000
  F   F355      1.0  0.09711  0.89178  0.45258  1.0000
  F   F356      1.0  0.09311  0.92083  0.98396  1.0000
  F   F357      1.0  0.34840  0.41758  0.46210  1.0000
  F   F358      1.0  0.35153  0.38398  0.97347  1.0000
  F   F359      1.0  0.34455  0.90474  0.48071  1.0000
  F   F360      1.0  0.35311  0.90928  0.95793  1.0000
  F   F361      1.0  0.60532  0.38806  0.45914  1.0000
  F   F362      1.0  0.60567  0.41621  0.93415  1.0000
  F   F363      1.0  0.59986  0.91348  0.44137  1.0000
  F   F364      1.0  0.60461  0.93589  0.94182  1.0000
  F   F365      1.0  0.85577  0.39535  0.46866  1.0000
  F   F366      1.0  0.85100  0.40800  0.95143  1.0000
  F   F367      1.0  0.85126  0.91032  0.46057  1.0000
  F   F368      1.0  0.84460  0.92305  0.96260  1.0000
  F   F369      1.0  0.04568  0.29872  0.29045  1.0000
  F   F370      1.0  0.04936  0.29401  0.78535  1.0000
  F   F371      1.0  0.03423  0.79353  0.30816  1.0000
  F   F372      1.0  0.06062  0.78559  0.78558  1.0000
  F   F373      1.0  0.30649  0.30719  0.28443  1.0000
  F   F374      1.0  0.29216  0.28939  0.79561  1.0000
  F   F375      1.0  0.29100  0.79978  0.30391  1.0000
  F   F376      1.0  0.28511  0.79865  0.80090  1.0000
  F   F377      1.0  0.54676  0.29510  0.28345  1.0000
  F   F378      1.0  0.54579  0.30660  0.77598  1.0000
  F   F379      1.0  0.54229  0.80962  0.27866  1.0000
  F   F380      1.0  0.55156  0.79227  0.78008  1.0000
  F   F381      1.0  0.80372  0.30039  0.29042  1.0000
  F   F382      1.0  0.78661  0.30421  0.78585  1.0000
  F   F383      1.0  0.79422  0.80172  0.28207  1.0000
  F   F384      1.0  0.79694  0.79587  0.78813  1.0000
