data_image0
_chemical_formula_structural       Hf96F384
_chemical_formula_sum              "Hf96 F384"
_cell_length_a       31.0544
_cell_length_b       15.531
_cell_length_c       15.516
_cell_angle_alpha    63.342
_cell_angle_beta     63.342
_cell_angle_gamma    80.1625

_space_group_name_H-M_alt    "P 1"
_space_group_IT_number       1

loop_
  _space_group_symop_operation_xyz
  'x, y, z'

loop_
  _atom_site_type_symbol
  _atom_site_label
  _atom_site_symmetry_multiplicity
  _atom_site_fract_x
  _atom_site_fract_y
  _atom_site_fract_z
  _atom_site_occupancy
  Hf  Hf1       1.0  0.19681  0.11011  0.37400  1.0000
  Hf  Hf2       1.0  0.19696  0.11109  0.87392  1.0000
  Hf  Hf3       1.0  0.19799  0.61652  0.36582  1.0000
  Hf  Hf4       1.0  0.19853  0.61015  0.85589  1.0000
  Hf  Hf5       1.0  0.44818  0.10829  0.37107  1.0000
  Hf  Hf6       1.0  0.44304  0.10496  0.87914  1.0000
  Hf  Hf7       1.0  0.44897  0.60329  0.37781  1.0000
  Hf  Hf8       1.0  0.44896  0.59843  0.87409  1.0000
  Hf  Hf9       1.0  0.69615  0.11383  0.36481  1.0000
  Hf  Hf10      1.0  0.69656  0.12063  0.86614  1.0000
  Hf  Hf11      1.0  0.69429  0.60966  0.37734  1.0000
  Hf  Hf12      1.0  0.68974  0.60496  0.87740  1.0000
  Hf  Hf13      1.0  0.94258  0.10604  0.38320  1.0000
  Hf  Hf14      1.0  0.94441  0.10358  0.86979  1.0000
  Hf  Hf15      1.0  0.94391  0.60993  0.38041  1.0000
  Hf  Hf16      1.0  0.94469  0.60269  0.87363  1.0000
  Hf  Hf17      1.0  0.05579  0.39243  0.12869  1.0000
  Hf  Hf18      1.0  0.05838  0.38948  0.61875  1.0000
  Hf  Hf19      1.0  0.05652  0.89419  0.12350  1.0000
  Hf  Hf20      1.0  0.04766  0.88635  0.65178  1.0000
  Hf  Hf21      1.0  0.31026  0.40275  0.11270  1.0000
  Hf  Hf22      1.0  0.30481  0.39904  0.61694  1.0000
  Hf  Hf23      1.0  0.30432  0.89338  0.12668  1.0000
  Hf  Hf24      1.0  0.30228  0.89430  0.62480  1.0000
  Hf  Hf25      1.0  0.55279  0.38909  0.13130  1.0000
  Hf  Hf26      1.0  0.55172  0.38718  0.62822  1.0000
  Hf  Hf27      1.0  0.55592  0.90158  0.12541  1.0000
  Hf  Hf28      1.0  0.55207  0.88977  0.62689  1.0000
  Hf  Hf29      1.0  0.80043  0.38754  0.14130  1.0000
  Hf  Hf30      1.0  0.80475  0.39064  0.62750  1.0000
  Hf  Hf31      1.0  0.80103  0.89234  0.12884  1.0000
  Hf  Hf32      1.0  0.80011  0.88661  0.63748  1.0000
  Hf  Hf33      1.0  0.05712  0.18480  0.41959  1.0000
  Hf  Hf34      1.0  0.05606  0.17836  0.91196  1.0000
  Hf  Hf35      1.0  0.05369  0.68006  0.41786  1.0000
  Hf  Hf36      1.0  0.05277  0.66735  0.92447  1.0000
  Hf  Hf37      1.0  0.30626  0.18571  0.41248  1.0000
  Hf  Hf38      1.0  0.30546  0.17429  0.92071  1.0000
  Hf  Hf39      1.0  0.31179  0.68676  0.41109  1.0000
  Hf  Hf40      1.0  0.30787  0.68460  0.90876  1.0000
  Hf  Hf41      1.0  0.55700  0.18299  0.41460  1.0000
  Hf  Hf42      1.0  0.55830  0.17933  0.91629  1.0000
  Hf  Hf43      1.0  0.55432  0.68317  0.41284  1.0000
  Hf  Hf44      1.0  0.55269  0.68160  0.92453  1.0000
  Hf  Hf45      1.0  0.80401  0.18540  0.42659  1.0000
  Hf  Hf46      1.0  0.80719  0.18287  0.91530  1.0000
  Hf  Hf47      1.0  0.80294  0.67940  0.41978  1.0000
  Hf  Hf48      1.0  0.80447  0.67413  0.92494  1.0000
  Hf  Hf49      1.0  0.16438  0.39302  0.32441  1.0000
  Hf  Hf50      1.0  0.15983  0.39553  0.82843  1.0000
  Hf  Hf51      1.0  0.15726  0.89556  0.33004  1.0000
  Hf  Hf52      1.0  0.15603  0.88872  0.82882  1.0000
  Hf  Hf53      1.0  0.41107  0.39141  0.32427  1.0000
  Hf  Hf54      1.0  0.40881  0.38103  0.83003  1.0000
  Hf  Hf55      1.0  0.41037  0.88693  0.33347  1.0000
  Hf  Hf56      1.0  0.40655  0.88467  0.83776  1.0000
  Hf  Hf57      1.0  0.65794  0.39171  0.33124  1.0000
  Hf  Hf58      1.0  0.65799  0.38718  0.83521  1.0000
  Hf  Hf59      1.0  0.65415  0.88513  0.33689  1.0000
  Hf  Hf60      1.0  0.65927  0.89472  0.82952  1.0000
  Hf  Hf61      1.0  0.91126  0.38244  0.33379  1.0000
  Hf  Hf62      1.0  0.90731  0.38164  0.83782  1.0000
  Hf  Hf63      1.0  0.90990  0.88634  0.33649  1.0000
  Hf  Hf64      1.0  0.90519  0.87873  0.84830  1.0000
  Hf  Hf65      1.0  0.19893  0.32073  0.06653  1.0000
  Hf  Hf66      1.0  0.19737  0.31694  0.58251  1.0000
  Hf  Hf67      1.0  0.19527  0.82309  0.07991  1.0000
  Hf  Hf68      1.0  0.19459  0.81516  0.57491  1.0000
  Hf  Hf69      1.0  0.44884  0.31204  0.08285  1.0000
  Hf  Hf70      1.0  0.44339  0.31493  0.58524  1.0000
  Hf  Hf71      1.0  0.44490  0.82127  0.08374  1.0000
  Hf  Hf72      1.0  0.44347  0.82478  0.58406  1.0000
  Hf  Hf73      1.0  0.69468  0.31980  0.07302  1.0000
  Hf  Hf74      1.0  0.69255  0.32289  0.58391  1.0000
  Hf  Hf75      1.0  0.69486  0.81335  0.08826  1.0000
  Hf  Hf76      1.0  0.69043  0.81788  0.58069  1.0000
  Hf  Hf77      1.0  0.94249  0.31023  0.08135  1.0000
  Hf  Hf78      1.0  0.94950  0.33087  0.57672  1.0000
  Hf  Hf79      1.0  0.94242  0.81448  0.08803  1.0000
  Hf  Hf80      1.0  0.94154  0.82098  0.59505  1.0000
  Hf  Hf81      1.0  0.08731  0.11119  0.16930  1.0000
  Hf  Hf82      1.0  0.09028  0.11907  0.66327  1.0000
  Hf  Hf83      1.0  0.09396  0.61397  0.16108  1.0000
  Hf  Hf84      1.0  0.09166  0.61272  0.66183  1.0000
  Hf  Hf85      1.0  0.33965  0.11905  0.16726  1.0000
  Hf  Hf86      1.0  0.33905  0.11626  0.66488  1.0000
  Hf  Hf87      1.0  0.34412  0.61393  0.16418  1.0000
  Hf  Hf88      1.0  0.34719  0.62052  0.65362  1.0000
  Hf  Hf89      1.0  0.59415  0.11277  0.16019  1.0000
  Hf  Hf90      1.0  0.58439  0.10557  0.67779  1.0000
  Hf  Hf91      1.0  0.59453  0.61663  0.16255  1.0000
  Hf  Hf92      1.0  0.59172  0.60539  0.66895  1.0000
  Hf  Hf93      1.0  0.84175  0.10341  0.17029  1.0000
  Hf  Hf94      1.0  0.84024  0.10857  0.67155  1.0000
  Hf  Hf95      1.0  0.84360  0.60551  0.16787  1.0000
  Hf  Hf96      1.0  0.84254  0.61313  0.66753  1.0000
  F   F1        1.0  0.07927  0.13163  0.29694  1.0000
  F   F2        1.0  0.07185  0.10883  0.81571  1.0000
  F   F3        1.0  0.07308  0.62521  0.30776  1.0000
  F   F4        1.0  0.07771  0.62990  0.80579  1.0000
  F   F5        1.0  0.32334  0.12888  0.30169  1.0000
  F   F6        1.0  0.32799  0.13096  0.80085  1.0000
  F   F7        1.0  0.33612  0.61840  0.30695  1.0000
  F   F8        1.0  0.33606  0.63293  0.79197  1.0000
  F   F9        1.0  0.59200  0.14788  0.28899  1.0000
  F   F10       1.0  0.58109  0.12808  0.79453  1.0000
  F   F11       1.0  0.57923  0.61529  0.30620  1.0000
  F   F12       1.0  0.58032  0.63810  0.79785  1.0000
  F   F13       1.0  0.83391  0.13466  0.30484  1.0000
  F   F14       1.0  0.82905  0.12171  0.81426  1.0000
  F   F15       1.0  0.82718  0.62192  0.31719  1.0000
  F   F16       1.0  0.82790  0.59897  0.82091  1.0000
  F   F17       1.0  0.18701  0.34476  0.44871  1.0000
  F   F18       1.0  0.19749  0.35078  0.92853  1.0000
  F   F19       1.0  0.18835  0.84716  0.44166  1.0000
  F   F20       1.0  0.18394  0.83703  0.94887  1.0000
  F   F21       1.0  0.43270  0.34590  0.44616  1.0000
  F   F22       1.0  0.43534  0.31702  0.95059  1.0000
  F   F23       1.0  0.43910  0.84880  0.44661  1.0000
  F   F24       1.0  0.44744  0.85630  0.92894  1.0000
  F   F25       1.0  0.68285  0.33578  0.45252  1.0000
  F   F26       1.0  0.70111  0.34489  0.92535  1.0000
  F   F27       1.0  0.69748  0.84965  0.42400  1.0000
  F   F28       1.0  0.67816  0.81953  0.95377  1.0000
  F   F29       1.0  0.93476  0.34113  0.45519  1.0000
  F   F30       1.0  0.93123  0.33707  0.94825  1.0000
  F   F31       1.0  0.93334  0.84240  0.45372  1.0000
  F   F32       1.0  0.93326  0.82751  0.95842  1.0000
  F   F33       1.0  0.17804  0.37867  0.18552  1.0000
  F   F34       1.0  0.17642  0.37292  0.68317  1.0000
  F   F35       1.0  0.17277  0.87783  0.19737  1.0000
  F   F36       1.0  0.16822  0.88417  0.68280  1.0000
  F   F37       1.0  0.43333  0.37827  0.17619  1.0000
  F   F38       1.0  0.43045  0.38987  0.67600  1.0000
  F   F39       1.0  0.43068  0.86930  0.20220  1.0000
  F   F40       1.0  0.41371  0.86347  0.70721  1.0000
  F   F41       1.0  0.66207  0.35645  0.21513  1.0000
  F   F42       1.0  0.66120  0.35306  0.71429  1.0000
  F   F43       1.0  0.67597  0.87403  0.19587  1.0000
  F   F44       1.0  0.67502  0.89899  0.67433  1.0000
  F   F45       1.0  0.92046  0.35859  0.20839  1.0000
  F   F46       1.0  0.92756  0.38495  0.69323  1.0000
  F   F47       1.0  0.91799  0.86096  0.20583  1.0000
  F   F48       1.0  0.91958  0.86363  0.71299  1.0000
  F   F49       1.0  0.07112  0.16461  0.03999  1.0000
  F   F50       1.0  0.06086  0.15382  0.56152  1.0000
  F   F51       1.0  0.06507  0.65534  0.05079  1.0000
  F   F52       1.0  0.06840  0.68568  0.53159  1.0000
  F   F53       1.0  0.31396  0.15421  0.05303  1.0000
  F   F54       1.0  0.32148  0.17209  0.54259  1.0000
  F   F55       1.0  0.31343  0.65994  0.05817  1.0000
  F   F56       1.0  0.31004  0.65533  0.55120  1.0000
  F   F57       1.0  0.56806  0.15612  0.04998  1.0000
  F   F58       1.0  0.55606  0.15427  0.56212  1.0000
  F   F59       1.0  0.56291  0.66327  0.05446  1.0000
  F   F60       1.0  0.56871  0.66934  0.54961  1.0000
  F   F61       1.0  0.81691  0.16546  0.05497  1.0000
  F   F62       1.0  0.81151  0.14404  0.57037  1.0000
  F   F63       1.0  0.81422  0.65062  0.05178  1.0000
  F   F64       1.0  0.81823  0.66995  0.55302  1.0000
  F   F65       1.0  0.20680  0.21183  0.18292  1.0000
  F   F66       1.0  0.20454  0.20161  0.69712  1.0000
  F   F67       1.0  0.20737  0.70179  0.20715  1.0000
  F   F68       1.0  0.21085  0.70719  0.70158  1.0000
  F   F69       1.0  0.46194  0.19991  0.20725  1.0000
  F   F70       1.0  0.45275  0.19649  0.70134  1.0000
  F   F71       1.0  0.45601  0.70484  0.20967  1.0000
  F   F72       1.0  0.45357  0.70111  0.72307  1.0000
  F   F73       1.0  0.68997  0.20513  0.20847  1.0000
  F   F74       1.0  0.70782  0.22444  0.72023  1.0000
  F   F75       1.0  0.71312  0.72365  0.20885  1.0000
  F   F76       1.0  0.68936  0.69977  0.70732  1.0000
  F   F77       1.0  0.94721  0.19071  0.21874  1.0000
  F   F78       1.0  0.94360  0.20807  0.71510  1.0000
  F   F79       1.0  0.94925  0.71238  0.21245  1.0000
  F   F80       1.0  0.95133  0.70958  0.71108  1.0000
  F   F81       1.0  0.14883  0.08666  0.03173  1.0000
  F   F82       1.0  0.14933  0.10845  0.53660  1.0000
  F   F83       1.0  0.15517  0.59319  0.05001  1.0000
  F   F84       1.0  0.14763  0.59602  0.52736  1.0000
  F   F85       1.0  0.39814  0.11864  0.02766  1.0000
  F   F86       1.0  0.40322  0.08944  0.53500  1.0000
  F   F87       1.0  0.40108  0.58404  0.03663  1.0000
  F   F88       1.0  0.40196  0.57719  0.54125  1.0000
  F   F89       1.0  0.64812  0.08005  0.01950  1.0000
  F   F90       1.0  0.64369  0.11165  0.55867  1.0000
  F   F91       1.0  0.64610  0.60705  0.03633  1.0000
  F   F92       1.0  0.64922  0.56879  0.54427  1.0000
  F   F93       1.0  0.90048  0.07662  0.05364  1.0000
  F   F94       1.0  0.90929  0.08740  0.53412  1.0000
  F   F95       1.0  0.89608  0.58069  0.04215  1.0000
  F   F96       1.0  0.89902  0.59197  0.53423  1.0000
  F   F97       1.0  0.14633  0.19057  0.10547  1.0000
  F   F98       1.0  0.14712  0.20967  0.63104  1.0000
  F   F99       1.0  0.15506  0.69794  0.12933  1.0000
  F   F100      1.0  0.15020  0.69547  0.62708  1.0000
  F   F101      1.0  0.39921  0.19859  0.15156  1.0000
  F   F102      1.0  0.39682  0.19307  0.62004  1.0000
  F   F103      1.0  0.40322  0.69266  0.12786  1.0000
  F   F104      1.0  0.39984  0.70116  0.61859  1.0000
  F   F105      1.0  0.65828  0.20107  0.09496  1.0000
  F   F106      1.0  0.66012  0.20159  0.63550  1.0000
  F   F107      1.0  0.65315  0.69330  0.15107  1.0000
  F   F108      1.0  0.64678  0.70313  0.60204  1.0000
  F   F109      1.0  0.90511  0.18563  0.11165  1.0000
  F   F110      1.0  0.89829  0.18263  0.63111  1.0000
  F   F111      1.0  0.89768  0.67804  0.14548  1.0000
  F   F112      1.0  0.90376  0.68870  0.62979  1.0000
  F   F113      1.0  0.10169  0.31563  0.38397  1.0000
  F   F114      1.0  0.09900  0.32838  0.88398  1.0000
  F   F115      1.0  0.09400  0.81765  0.36775  1.0000
  F   F116      1.0  0.10084  0.80109  0.87669  1.0000
  F   F117      1.0  0.35039  0.29733  0.36892  1.0000
  F   F118      1.0  0.35263  0.30179  0.86595  1.0000
  F   F119      1.0  0.35414  0.80096  0.36973  1.0000
  F   F120      1.0  0.34665  0.81231  0.87209  1.0000
  F   F121      1.0  0.59619  0.29862  0.39354  1.0000
  F   F122      1.0  0.59526  0.29419  0.88142  1.0000
  F   F123      1.0  0.59332  0.81701  0.36572  1.0000
  F   F124      1.0  0.60042  0.79632  0.89106  1.0000
  F   F125      1.0  0.84888  0.29867  0.38459  1.0000
  F   F126      1.0  0.84321  0.30155  0.87592  1.0000
  F   F127      1.0  0.84721  0.80736  0.38809  1.0000
  F   F128      1.0  0.84289  0.79301  0.89553  1.0000
  F   F129      1.0  0.05933  0.25945  0.14513  1.0000
  F   F130      1.0  0.06530  0.25432  0.62789  1.0000
  F   F131      1.0  0.07426  0.76005  0.12324  1.0000
  F   F132      1.0  0.06062  0.73681  0.66034  1.0000
  F   F133      1.0  0.31730  0.25834  0.13354  1.0000
  F   F134      1.0  0.29835  0.25645  0.66234  1.0000
  F   F135      1.0  0.32087  0.75256  0.13882  1.0000
  F   F136      1.0  0.31271  0.75021  0.63170  1.0000
  F   F137      1.0  0.56619  0.25423  0.14117  1.0000
  F   F138      1.0  0.57327  0.24741  0.63470  1.0000
  F   F139      1.0  0.56535  0.74555  0.14988  1.0000
  F   F140      1.0  0.55304  0.75285  0.66183  1.0000
  F   F141      1.0  0.81112  0.25378  0.15038  1.0000
  F   F142      1.0  0.81114  0.25137  0.64846  1.0000
  F   F143      1.0  0.82200  0.75107  0.13077  1.0000
  F   F144      1.0  0.81632  0.74650  0.65001  1.0000
  F   F145      1.0  0.12423  0.35549  0.12330  1.0000
  F   F146      1.0  0.12599  0.38073  0.60211  1.0000
  F   F147      1.0  0.12830  0.89331  0.09394  1.0000
  F   F148      1.0  0.11735  0.86479  0.61226  1.0000
  F   F149      1.0  0.37277  0.35949  0.12358  1.0000
  F   F150      1.0  0.37358  0.35307  0.62161  1.0000
  F   F151      1.0  0.37877  0.87735  0.10161  1.0000
  F   F152      1.0  0.37288  0.88144  0.59811  1.0000
  F   F153      1.0  0.62573  0.37344  0.09579  1.0000
  F   F154      1.0  0.62415  0.39185  0.59603  1.0000
  F   F155      1.0  0.61944  0.85775  0.13460  1.0000
  F   F156      1.0  0.62299  0.86954  0.61097  1.0000
  F   F157      1.0  0.87444  0.36698  0.10829  1.0000
  F   F158      1.0  0.87747  0.35139  0.63330  1.0000
  F   F159      1.0  0.87308  0.86653  0.11444  1.0000
  F   F160      1.0  0.87353  0.85400  0.63157  1.0000
  F   F161      1.0  0.18625  0.24522  0.36013  1.0000
  F   F162      1.0  0.18276  0.25344  0.85735  1.0000
  F   F163      1.0  0.18437  0.75302  0.35151  1.0000
  F   F164      1.0  0.18109  0.75110  0.84321  1.0000
  F   F165      1.0  0.44340  0.25243  0.34220  1.0000
  F   F166      1.0  0.43554  0.24527  0.83957  1.0000
  F   F167      1.0  0.43539  0.74337  0.36979  1.0000
  F   F168      1.0  0.42495  0.73963  0.88249  1.0000
  F   F169      1.0  0.68715  0.24934  0.35856  1.0000
  F   F170      1.0  0.67677  0.24980  0.88174  1.0000
  F   F171      1.0  0.68170  0.74697  0.37274  1.0000
  F   F172      1.0  0.69445  0.74763  0.82842  1.0000
  F   F173      1.0  0.94354  0.24370  0.35417  1.0000
  F   F174      1.0  0.92515  0.23732  0.86897  1.0000
  F   F175      1.0  0.93563  0.75192  0.36285  1.0000
  F   F176      1.0  0.92967  0.73930  0.86701  1.0000
  F   F177      1.0  0.12651  0.13271  0.38148  1.0000
  F   F178      1.0  0.12832  0.16646  0.85029  1.0000
  F   F179      1.0  0.12414  0.63361  0.37851  1.0000
  F   F180      1.0  0.12575  0.61774  0.90154  1.0000
  F   F181      1.0  0.37676  0.12983  0.39261  1.0000
  F   F182      1.0  0.37548  0.12723  0.88535  1.0000
  F   F183      1.0  0.37990  0.63940  0.38656  1.0000
  F   F184      1.0  0.37628  0.63797  0.88534  1.0000
  F   F185      1.0  0.62425  0.12945  0.40358  1.0000
  F   F186      1.0  0.62688  0.13424  0.87434  1.0000
  F   F187      1.0  0.62435  0.64482  0.38414  1.0000
  F   F188      1.0  0.61699  0.61107  0.91799  1.0000
  F   F189      1.0  0.86857  0.12718  0.41734  1.0000
  F   F190      1.0  0.87318  0.09896  0.91960  1.0000
  F   F191      1.0  0.87373  0.64154  0.39083  1.0000
  F   F192      1.0  0.87274  0.60312  0.90412  1.0000
  F   F193      1.0  0.00663  0.35764  0.06708  1.0000
  F   F194      1.0  0.01397  0.37350  0.56295  1.0000
  F   F195      1.0  0.00964  0.85196  0.07048  1.0000
  F   F196      1.0  0.00346  0.85514  0.59039  1.0000
  F   F197      1.0  0.26448  0.37667  0.04667  1.0000
  F   F198      1.0  0.26252  0.36677  0.55127  1.0000
  F   F199      1.0  0.25838  0.86234  0.07917  1.0000
  F   F200      1.0  0.25474  0.87376  0.55789  1.0000
  F   F201      1.0  0.51108  0.36141  0.07331  1.0000
  F   F202      1.0  0.50812  0.35880  0.58033  1.0000
  F   F203      1.0  0.50794  0.86645  0.06986  1.0000
  F   F204      1.0  0.50159  0.86753  0.57107  1.0000
  F   F205      1.0  0.74916  0.35418  0.09300  1.0000
  F   F206      1.0  0.75683  0.38114  0.57442  1.0000
  F   F207      1.0  0.76161  0.85896  0.06488  1.0000
  F   F208      1.0  0.75346  0.84991  0.59515  1.0000
  F   F209      1.0  0.06879  0.47503  0.18377  1.0000
  F   F210      1.0  0.06832  0.49165  0.67277  1.0000
  F   F211      1.0  0.06678  0.98373  0.17979  1.0000
  F   F212      1.0  0.06512  0.97720  0.69294  1.0000
  F   F213      1.0  0.32417  0.48237  0.17120  1.0000
  F   F214      1.0  0.32017  0.48530  0.67413  1.0000
  F   F215      1.0  0.31835  0.98909  0.17046  1.0000
  F   F216      1.0  0.31429  0.98820  0.68387  1.0000
  F   F217      1.0  0.56863  0.48896  0.17988  1.0000
  F   F218      1.0  0.56385  0.48172  0.68295  1.0000
  F   F219      1.0  0.56875  0.98111  0.18915  1.0000
  F   F220      1.0  0.55996  0.98229  0.67985  1.0000
  F   F221      1.0  0.81969  0.48240  0.17935  1.0000
  F   F222      1.0  0.82215  0.48470  0.66658  1.0000
  F   F223      1.0  0.81390  0.98638  0.17785  1.0000
  F   F224      1.0  0.82822  0.97000  0.67913  1.0000
  F   F225      1.0  0.24159  0.13132  0.42435  1.0000
  F   F226      1.0  0.24073  0.15170  0.91449  1.0000
  F   F227      1.0  0.24629  0.63976  0.42504  1.0000
  F   F228      1.0  0.24692  0.65157  0.89628  1.0000
  F   F229      1.0  0.49889  0.14071  0.41050  1.0000
  F   F230      1.0  0.49222  0.14111  0.93969  1.0000
  F   F231      1.0  0.49171  0.63128  0.43358  1.0000
  F   F232      1.0  0.49496  0.63724  0.92394  1.0000
  F   F233      1.0  0.74135  0.14502  0.41972  1.0000
  F   F234      1.0  0.74135  0.14788  0.91213  1.0000
  F   F235      1.0  0.74411  0.65037  0.40855  1.0000
  F   F236      1.0  0.74336  0.62202  0.94099  1.0000
  F   F237      1.0  0.99824  0.13878  0.43422  1.0000
  F   F238      1.0  0.99136  0.13923  0.90771  1.0000
  F   F239      1.0  0.98747  0.64365  0.42367  1.0000
  F   F240      1.0  0.99203  0.62607  0.91782  1.0000
  F   F241      1.0  0.17635  0.02175  0.31332  1.0000
  F   F242      1.0  0.17670  0.01707  0.84293  1.0000
  F   F243      1.0  0.18686  0.51937  0.31111  1.0000
  F   F244      1.0  0.18595  0.52206  0.80305  1.0000
  F   F245      1.0  0.42781  0.01579  0.34654  1.0000
  F   F246      1.0  0.44080  0.02194  0.81599  1.0000
  F   F247      1.0  0.42780  0.51481  0.32883  1.0000
  F   F248      1.0  0.42987  0.51290  0.82599  1.0000
  F   F249      1.0  0.67622  0.01450  0.31837  1.0000
  F   F250      1.0  0.68492  0.01548  0.81825  1.0000
  F   F251      1.0  0.67679  0.52124  0.32846  1.0000
  F   F252      1.0  0.67027  0.50828  0.84209  1.0000
  F   F253      1.0  0.92701  0.00829  0.33756  1.0000
  F   F254      1.0  0.92764  0.02389  0.81948  1.0000
  F   F255      1.0  0.93349  0.52474  0.31845  1.0000
  F   F256      1.0  0.93132  0.51068  0.81016  1.0000
  F   F257      1.0  0.99481  0.22507  0.00809  1.0000
  F   F258      1.0  0.00147  0.24985  0.50561  1.0000
  F   F259      1.0  0.99092  0.72328  0.01559  1.0000
  F   F260      1.0  0.99557  0.74166  0.49965  1.0000
  F   F261      1.0  0.25193  0.24636  0.00157  1.0000
  F   F262      1.0  0.25070  0.23651  0.49746  1.0000
  F   F263      1.0  0.25311  0.76265  0.98975  1.0000
  F   F264      1.0  0.24800  0.74606  0.50139  1.0000
  F   F265      1.0  0.50523  0.25540  0.99494  1.0000
  F   F266      1.0  0.49950  0.25349  0.49373  1.0000
  F   F267      1.0  0.49338  0.73644  0.01078  1.0000
  F   F268      1.0  0.49651  0.74351  0.50552  1.0000
  F   F269      1.0  0.75046  0.23350  0.00802  1.0000
  F   F270      1.0  0.75494  0.25682  0.51533  1.0000
  F   F271      1.0  0.75003  0.73653  0.01627  1.0000
  F   F272      1.0  0.74794  0.74196  0.50906  1.0000
  F   F273      1.0  0.12448  0.00466  0.23204  1.0000
  F   F274      1.0  0.12772  0.00841  0.74664  1.0000
  F   F275      1.0  0.13020  0.51518  0.24475  1.0000
  F   F276      1.0  0.12832  0.51277  0.74732  1.0000
  F   F277      1.0  0.37759  0.00234  0.24341  1.0000
  F   F278      1.0  0.38736  0.00934  0.73641  1.0000
  F   F279      1.0  0.37416  0.48672  0.25186  1.0000
  F   F280      1.0  0.37350  0.48988  0.75085  1.0000
  F   F281      1.0  0.62280  0.00093  0.24972  1.0000
  F   F282      1.0  0.61254  0.98461  0.77475  1.0000
  F   F283      1.0  0.63048  0.50169  0.23933  1.0000
  F   F284      1.0  0.62779  0.49962  0.73936  1.0000
  F   F285      1.0  0.86701  0.98709  0.26753  1.0000
  F   F286      1.0  0.87894  0.99254  0.75412  1.0000
  F   F287      1.0  0.87843  0.48953  0.24622  1.0000
  F   F288      1.0  0.87072  0.49903  0.74820  1.0000
  F   F289      1.0  0.04659  0.03541  0.01747  1.0000
  F   F290      1.0  0.04607  0.01200  0.53267  1.0000
  F   F291      1.0  0.03174  0.53252  0.04218  1.0000
  F   F292      1.0  0.03935  0.53167  0.53053  1.0000
  F   F293      1.0  0.28984  0.02317  0.01961  1.0000
  F   F294      1.0  0.29208  0.02837  0.53443  1.0000
  F   F295      1.0  0.29387  0.54011  0.01165  1.0000
  F   F296      1.0  0.29954  0.52875  0.51185  1.0000
  F   F297      1.0  0.54282  0.03028  0.03230  1.0000
  F   F298      1.0  0.54914  0.02474  0.51780  1.0000
  F   F299      1.0  0.53876  0.52697  0.03755  1.0000
  F   F300      1.0  0.54586  0.53185  0.52323  1.0000
  F   F301      1.0  0.79158  0.03573  0.02367  1.0000
  F   F302      1.0  0.78967  0.03461  0.52782  1.0000
  F   F303      1.0  0.78888  0.51921  0.04219  1.0000
  F   F304      1.0  0.78923  0.54226  0.52718  1.0000
  F   F305      1.0  0.23788  0.39843  0.22582  1.0000
  F   F306      1.0  0.23476  0.42277  0.70543  1.0000
  F   F307      1.0  0.24031  0.91451  0.22953  1.0000
  F   F308      1.0  0.22938  0.91024  0.72889  1.0000
  F   F309      1.0  0.48676  0.41642  0.21949  1.0000
  F   F310      1.0  0.48347  0.41051  0.74056  1.0000
  F   F311      1.0  0.48506  0.93851  0.22740  1.0000
  F   F312      1.0  0.48174  0.89848  0.72450  1.0000
  F   F313      1.0  0.73127  0.40751  0.24326  1.0000
  F   F314      1.0  0.73602  0.40972  0.72916  1.0000
  F   F315      1.0  0.73865  0.91542  0.21362  1.0000
  F   F316      1.0  0.73613  0.92780  0.72008  1.0000
  F   F317      1.0  0.98535  0.39495  0.25241  1.0000
  F   F318      1.0  0.98947  0.38039  0.75464  1.0000
  F   F319      1.0  0.98235  0.93125  0.20852  1.0000
  F   F320      1.0  0.97542  0.92244  0.74371  1.0000
  F   F321      1.0  0.21092  0.48206  0.45971  1.0000
  F   F322      1.0  0.19770  0.48337  0.97478  1.0000
  F   F323      1.0  0.20024  0.97398  0.47409  1.0000
  F   F324      1.0  0.21809  0.96763  0.96984  1.0000
  F   F325      1.0  0.45862  0.45642  0.47612  1.0000
  F   F326      1.0  0.46251  0.46379  0.96669  1.0000
  F   F327      1.0  0.45219  0.97157  0.48986  1.0000
  F   F328      1.0  0.44792  0.98348  0.99283  1.0000
  F   F329      1.0  0.71374  0.47153  0.46064  1.0000
  F   F330      1.0  0.70267  0.47628  0.98223  1.0000
  F   F331      1.0  0.69958  0.98252  0.47020  1.0000
  F   F332      1.0  0.69997  0.95238  0.98258  1.0000
  F   F333      1.0  0.95893  0.47608  0.47758  1.0000
  F   F334      1.0  0.95187  0.45931  0.97895  1.0000
  F   F335      1.0  0.96180  0.96345  0.48398  1.0000
  F   F336      1.0  0.94906  0.96916  0.98929  1.0000
  F   F337      1.0  0.01678  0.09727  0.27259  1.0000
  F   F338      1.0  0.01423  0.07598  0.76323  1.0000
  F   F339      1.0  0.01578  0.59314  0.25620  1.0000
  F   F340      1.0  0.01497  0.58028  0.76883  1.0000
  F   F341      1.0  0.26301  0.08691  0.27031  1.0000
  F   F342      1.0  0.26610  0.09718  0.75539  1.0000
  F   F343      1.0  0.27321  0.58659  0.27854  1.0000
  F   F344      1.0  0.26837  0.57232  0.77858  1.0000
  F   F345      1.0  0.51981  0.09052  0.25814  1.0000
  F   F346      1.0  0.51260  0.08808  0.79005  1.0000
  F   F347      1.0  0.51826  0.59466  0.27138  1.0000
  F   F348      1.0  0.51657  0.57072  0.78676  1.0000
  F   F349      1.0  0.76232  0.09655  0.26168  1.0000
  F   F350      1.0  0.76539  0.07624  0.78849  1.0000
  F   F351      1.0  0.76466  0.59275  0.27232  1.0000
  F   F352      1.0  0.75708  0.60220  0.75949  1.0000
  F   F353      1.0  0.10612  0.43349  0.44846  1.0000
  F   F354      1.0  0.10595  0.42164  0.97772  1.0000
  F   F355      1.0  0.09970  0.89347  0.46173  1.0000
  F   F356      1.0  0.10301  0.91932  0.95100  1.0000
  F   F357      1.0  0.35186  0.39358  0.45906  1.0000
  F   F358      1.0  0.35562  0.40220  0.96664  1.0000
  F   F359      1.0  0.34704  0.90276  0.46122  1.0000
  F   F360      1.0  0.35448  0.92456  0.95019  1.0000
  F   F361      1.0  0.59871  0.41195  0.45835  1.0000
  F   F362      1.0  0.60085  0.39641  0.96410  1.0000
  F   F363      1.0  0.59975  0.89982  0.45996  1.0000
  F   F364      1.0  0.60248  0.92134  0.96696  1.0000
  F   F365      1.0  0.85459  0.41328  0.46777  1.0000
  F   F366      1.0  0.85341  0.40908  0.95609  1.0000
  F   F367      1.0  0.85109  0.90799  0.48430  1.0000
  F   F368      1.0  0.84816  0.90689  0.96254  1.0000
  F   F369      1.0  0.04501  0.29734  0.30303  1.0000
  F   F370      1.0  0.05976  0.28710  0.77857  1.0000
  F   F371      1.0  0.04844  0.79885  0.28444  1.0000
  F   F372      1.0  0.03112  0.79175  0.82136  1.0000
  F   F373      1.0  0.29349  0.29977  0.29415  1.0000
  F   F374      1.0  0.29580  0.30318  0.79439  1.0000
  F   F375      1.0  0.30555  0.79894  0.27832  1.0000
  F   F376      1.0  0.29388  0.80362  0.78085  1.0000
  F   F377      1.0  0.54544  0.31271  0.28710  1.0000
  F   F378      1.0  0.54646  0.28408  0.78261  1.0000
  F   F379      1.0  0.54424  0.78290  0.29303  1.0000
  F   F380      1.0  0.54774  0.80947  0.79267  1.0000
  F   F381      1.0  0.79723  0.30406  0.29853  1.0000
  F   F382      1.0  0.79126  0.29421  0.79833  1.0000
  F   F383      1.0  0.79903  0.80386  0.28209  1.0000
  F   F384      1.0  0.79548  0.79341  0.79382  1.0000
