data_image0
_chemical_formula_structural       Hf96F384
_chemical_formula_sum              "Hf96 F384"
_cell_length_a       31.0208
_cell_length_b       15.5117
_cell_length_c       15.505
_cell_angle_alpha    63.342
_cell_angle_beta     63.342
_cell_angle_gamma    80.1625

_space_group_name_H-M_alt    "P 1"
_space_group_IT_number       1

loop_
  _space_group_symop_operation_xyz
  'x, y, z'

loop_
  _atom_site_type_symbol
  _atom_site_label
  _atom_site_symmetry_multiplicity
  _atom_site_fract_x
  _atom_site_fract_y
  _atom_site_fract_z
  _atom_site_occupancy
  Hf  Hf1       1.0  0.19611  0.10214  0.37306  1.0000
  Hf  Hf2       1.0  0.19547  0.10532  0.87311  1.0000
  Hf  Hf3       1.0  0.19800  0.60560  0.36968  1.0000
  Hf  Hf4       1.0  0.19657  0.60068  0.88322  1.0000
  Hf  Hf5       1.0  0.44787  0.10919  0.37041  1.0000
  Hf  Hf6       1.0  0.44344  0.11097  0.87442  1.0000
  Hf  Hf7       1.0  0.44900  0.60723  0.36481  1.0000
  Hf  Hf8       1.0  0.44722  0.60997  0.87650  1.0000
  Hf  Hf9       1.0  0.69853  0.11313  0.37522  1.0000
  Hf  Hf10      1.0  0.69369  0.10834  0.87590  1.0000
  Hf  Hf11      1.0  0.69759  0.61183  0.37790  1.0000
  Hf  Hf12      1.0  0.69621  0.61082  0.87560  1.0000
  Hf  Hf13      1.0  0.94653  0.10513  0.37192  1.0000
  Hf  Hf14      1.0  0.94624  0.10271  0.87481  1.0000
  Hf  Hf15      1.0  0.94719  0.60531  0.37601  1.0000
  Hf  Hf16      1.0  0.94498  0.60877  0.88037  1.0000
  Hf  Hf17      1.0  0.05384  0.38666  0.12873  1.0000
  Hf  Hf18      1.0  0.05261  0.37950  0.64051  1.0000
  Hf  Hf19      1.0  0.05755  0.88753  0.12589  1.0000
  Hf  Hf20      1.0  0.05151  0.88414  0.63340  1.0000
  Hf  Hf21      1.0  0.30165  0.38507  0.13075  1.0000
  Hf  Hf22      1.0  0.30720  0.39060  0.62812  1.0000
  Hf  Hf23      1.0  0.30537  0.89618  0.12335  1.0000
  Hf  Hf24      1.0  0.30048  0.89553  0.62075  1.0000
  Hf  Hf25      1.0  0.55193  0.38955  0.13168  1.0000
  Hf  Hf26      1.0  0.55313  0.39840  0.62450  1.0000
  Hf  Hf27      1.0  0.55374  0.90195  0.11692  1.0000
  Hf  Hf28      1.0  0.55172  0.89740  0.62750  1.0000
  Hf  Hf29      1.0  0.80079  0.38852  0.12754  1.0000
  Hf  Hf30      1.0  0.80473  0.39859  0.61901  1.0000
  Hf  Hf31      1.0  0.80467  0.89510  0.11949  1.0000
  Hf  Hf32      1.0  0.80332  0.89174  0.62551  1.0000
  Hf  Hf33      1.0  0.05370  0.17619  0.42088  1.0000
  Hf  Hf34      1.0  0.05756  0.17846  0.91891  1.0000
  Hf  Hf35      1.0  0.05550  0.67928  0.42512  1.0000
  Hf  Hf36      1.0  0.05773  0.68112  0.91129  1.0000
  Hf  Hf37      1.0  0.30512  0.17663  0.41708  1.0000
  Hf  Hf38      1.0  0.30180  0.17705  0.92750  1.0000
  Hf  Hf39      1.0  0.30617  0.67977  0.41503  1.0000
  Hf  Hf40      1.0  0.30701  0.67842  0.91388  1.0000
  Hf  Hf41      1.0  0.56036  0.18403  0.41135  1.0000
  Hf  Hf42      1.0  0.55549  0.19449  0.91338  1.0000
  Hf  Hf43      1.0  0.55785  0.69439  0.40611  1.0000
  Hf  Hf44      1.0  0.55182  0.68259  0.92134  1.0000
  Hf  Hf45      1.0  0.80497  0.18464  0.42037  1.0000
  Hf  Hf46      1.0  0.80337  0.18874  0.91354  1.0000
  Hf  Hf47      1.0  0.81107  0.68471  0.41515  1.0000
  Hf  Hf48      1.0  0.80719  0.68246  0.91405  1.0000
  Hf  Hf49      1.0  0.15916  0.38922  0.33588  1.0000
  Hf  Hf50      1.0  0.15840  0.38280  0.84007  1.0000
  Hf  Hf51      1.0  0.16137  0.88358  0.33311  1.0000
  Hf  Hf52      1.0  0.16102  0.88157  0.83366  1.0000
  Hf  Hf53      1.0  0.40398  0.38683  0.33304  1.0000
  Hf  Hf54      1.0  0.40673  0.38674  0.83605  1.0000
  Hf  Hf55      1.0  0.40534  0.88969  0.33376  1.0000
  Hf  Hf56      1.0  0.40705  0.88969  0.83032  1.0000
  Hf  Hf57      1.0  0.65805  0.38886  0.33923  1.0000
  Hf  Hf58      1.0  0.65805  0.39549  0.82788  1.0000
  Hf  Hf59      1.0  0.65802  0.89353  0.33486  1.0000
  Hf  Hf60      1.0  0.65816  0.89061  0.82980  1.0000
  Hf  Hf61      1.0  0.90889  0.38939  0.33714  1.0000
  Hf  Hf62      1.0  0.90992  0.38527  0.83529  1.0000
  Hf  Hf63      1.0  0.91291  0.88935  0.32517  1.0000
  Hf  Hf64      1.0  0.90514  0.88339  0.83805  1.0000
  Hf  Hf65      1.0  0.19142  0.31393  0.09004  1.0000
  Hf  Hf66      1.0  0.19668  0.32097  0.57979  1.0000
  Hf  Hf67      1.0  0.19703  0.81510  0.07876  1.0000
  Hf  Hf68      1.0  0.19380  0.80721  0.58739  1.0000
  Hf  Hf69      1.0  0.44444  0.31394  0.08151  1.0000
  Hf  Hf70      1.0  0.44458  0.31427  0.57975  1.0000
  Hf  Hf71      1.0  0.44330  0.82119  0.08100  1.0000
  Hf  Hf72      1.0  0.44412  0.82328  0.57700  1.0000
  Hf  Hf73      1.0  0.69181  0.32491  0.08235  1.0000
  Hf  Hf74      1.0  0.69389  0.32235  0.58224  1.0000
  Hf  Hf75      1.0  0.69464  0.82118  0.08520  1.0000
  Hf  Hf76      1.0  0.69509  0.81657  0.57952  1.0000
  Hf  Hf77      1.0  0.94505  0.31954  0.07960  1.0000
  Hf  Hf78      1.0  0.94497  0.31820  0.58517  1.0000
  Hf  Hf79      1.0  0.94603  0.80965  0.08636  1.0000
  Hf  Hf80      1.0  0.94315  0.82316  0.58091  1.0000
  Hf  Hf81      1.0  0.08834  0.10448  0.17499  1.0000
  Hf  Hf82      1.0  0.09279  0.10480  0.66992  1.0000
  Hf  Hf83      1.0  0.09102  0.61354  0.17072  1.0000
  Hf  Hf84      1.0  0.09257  0.60567  0.66648  1.0000
  Hf  Hf85      1.0  0.34352  0.10863  0.16392  1.0000
  Hf  Hf86      1.0  0.33971  0.11641  0.67031  1.0000
  Hf  Hf87      1.0  0.34152  0.61067  0.16208  1.0000
  Hf  Hf88      1.0  0.34099  0.60950  0.66844  1.0000
  Hf  Hf89      1.0  0.59013  0.11390  0.16712  1.0000
  Hf  Hf90      1.0  0.58736  0.11854  0.67193  1.0000
  Hf  Hf91      1.0  0.59274  0.61647  0.16395  1.0000
  Hf  Hf92      1.0  0.59021  0.62059  0.66175  1.0000
  Hf  Hf93      1.0  0.84264  0.11499  0.15947  1.0000
  Hf  Hf94      1.0  0.84198  0.11668  0.66810  1.0000
  Hf  Hf95      1.0  0.84187  0.61563  0.16461  1.0000
  Hf  Hf96      1.0  0.84215  0.60187  0.67538  1.0000
  F   F1        1.0  0.08106  0.12969  0.30259  1.0000
  F   F2        1.0  0.08155  0.12244  0.80953  1.0000
  F   F3        1.0  0.08261  0.62329  0.31130  1.0000
  F   F4        1.0  0.07787  0.63335  0.80239  1.0000
  F   F5        1.0  0.32333  0.13225  0.30237  1.0000
  F   F6        1.0  0.32516  0.12479  0.81736  1.0000
  F   F7        1.0  0.32906  0.62355  0.30993  1.0000
  F   F8        1.0  0.32289  0.60576  0.81360  1.0000
  F   F9        1.0  0.58369  0.13813  0.29537  1.0000
  F   F10       1.0  0.57667  0.14730  0.79719  1.0000
  F   F11       1.0  0.58558  0.65167  0.28544  1.0000
  F   F12       1.0  0.58140  0.63468  0.79964  1.0000
  F   F13       1.0  0.83123  0.12251  0.29647  1.0000
  F   F14       1.0  0.83232  0.13912  0.79714  1.0000
  F   F15       1.0  0.83138  0.62438  0.30814  1.0000
  F   F16       1.0  0.82838  0.62455  0.80177  1.0000
  F   F17       1.0  0.18342  0.33442  0.45462  1.0000
  F   F18       1.0  0.19101  0.34872  0.94822  1.0000
  F   F19       1.0  0.19065  0.83168  0.44504  1.0000
  F   F20       1.0  0.18251  0.83054  0.95125  1.0000
  F   F21       1.0  0.42572  0.33894  0.45199  1.0000
  F   F22       1.0  0.43611  0.34872  0.93722  1.0000
  F   F23       1.0  0.42828  0.83623  0.44927  1.0000
  F   F24       1.0  0.42801  0.83365  0.96006  1.0000
  F   F25       1.0  0.69093  0.34632  0.43558  1.0000
  F   F26       1.0  0.68400  0.34979  0.93967  1.0000
  F   F27       1.0  0.68898  0.84632  0.43946  1.0000
  F   F28       1.0  0.68946  0.86130  0.93430  1.0000
  F   F29       1.0  0.93609  0.34040  0.44636  1.0000
  F   F30       1.0  0.93816  0.34016  0.94379  1.0000
  F   F31       1.0  0.93217  0.84213  0.44651  1.0000
  F   F32       1.0  0.93649  0.83724  0.94198  1.0000
  F   F33       1.0  0.17711  0.38934  0.18729  1.0000
  F   F34       1.0  0.16809  0.37337  0.69845  1.0000
  F   F35       1.0  0.17032  0.87605  0.18703  1.0000
  F   F36       1.0  0.17295  0.86827  0.69683  1.0000
  F   F37       1.0  0.41696  0.37308  0.19245  1.0000
  F   F38       1.0  0.42073  0.36157  0.69662  1.0000
  F   F39       1.0  0.41604  0.87009  0.20146  1.0000
  F   F40       1.0  0.41964  0.87099  0.69385  1.0000
  F   F41       1.0  0.66992  0.39291  0.18657  1.0000
  F   F42       1.0  0.67109  0.38188  0.69047  1.0000
  F   F43       1.0  0.67222  0.88790  0.19125  1.0000
  F   F44       1.0  0.67094  0.86076  0.69556  1.0000
  F   F45       1.0  0.92817  0.37197  0.18878  1.0000
  F   F46       1.0  0.92868  0.38475  0.68358  1.0000
  F   F47       1.0  0.92803  0.87152  0.19509  1.0000
  F   F48       1.0  0.92121  0.88625  0.69132  1.0000
  F   F49       1.0  0.05802  0.15690  0.06430  1.0000
  F   F50       1.0  0.06775  0.16333  0.54459  1.0000
  F   F51       1.0  0.05902  0.64575  0.06756  1.0000
  F   F52       1.0  0.06339  0.65649  0.55360  1.0000
  F   F53       1.0  0.31957  0.15700  0.05065  1.0000
  F   F54       1.0  0.31555  0.14848  0.55178  1.0000
  F   F55       1.0  0.31429  0.66058  0.04626  1.0000
  F   F56       1.0  0.31457  0.64767  0.55141  1.0000
  F   F57       1.0  0.55493  0.17124  0.06065  1.0000
  F   F58       1.0  0.55576  0.15972  0.56239  1.0000
  F   F59       1.0  0.56311  0.66417  0.05115  1.0000
  F   F60       1.0  0.56120  0.65884  0.55237  1.0000
  F   F61       1.0  0.81266  0.16233  0.04539  1.0000
  F   F62       1.0  0.81259  0.16883  0.55268  1.0000
  F   F63       1.0  0.81472  0.66378  0.04874  1.0000
  F   F64       1.0  0.81443  0.64441  0.56942  1.0000
  F   F65       1.0  0.19845  0.19488  0.22088  1.0000
  F   F66       1.0  0.21835  0.20399  0.71069  1.0000
  F   F67       1.0  0.20716  0.69600  0.21496  1.0000
  F   F68       1.0  0.19800  0.69986  0.71593  1.0000
  F   F69       1.0  0.45334  0.19232  0.21287  1.0000
  F   F70       1.0  0.45386  0.19969  0.71861  1.0000
  F   F71       1.0  0.45619  0.70274  0.20238  1.0000
  F   F72       1.0  0.45369  0.70018  0.70316  1.0000
  F   F73       1.0  0.70020  0.20982  0.21095  1.0000
  F   F74       1.0  0.70297  0.20555  0.70578  1.0000
  F   F75       1.0  0.69850  0.70086  0.22100  1.0000
  F   F76       1.0  0.70294  0.69446  0.71407  1.0000
  F   F77       1.0  0.95656  0.20093  0.20583  1.0000
  F   F78       1.0  0.95506  0.20079  0.69947  1.0000
  F   F79       1.0  0.95165  0.68510  0.21237  1.0000
  F   F80       1.0  0.94543  0.71092  0.70425  1.0000
  F   F81       1.0  0.14388  0.08297  0.04425  1.0000
  F   F82       1.0  0.15321  0.09210  0.55209  1.0000
  F   F83       1.0  0.14827  0.57709  0.06042  1.0000
  F   F84       1.0  0.14704  0.57927  0.54694  1.0000
  F   F85       1.0  0.39551  0.08284  0.04120  1.0000
  F   F86       1.0  0.40195  0.10729  0.54592  1.0000
  F   F87       1.0  0.39739  0.59615  0.02414  1.0000
  F   F88       1.0  0.39866  0.59359  0.54453  1.0000
  F   F89       1.0  0.64466  0.08854  0.04374  1.0000
  F   F90       1.0  0.63991  0.10154  0.54421  1.0000
  F   F91       1.0  0.64986  0.59111  0.03984  1.0000
  F   F92       1.0  0.64801  0.59342  0.54448  1.0000
  F   F93       1.0  0.90040  0.10330  0.03421  1.0000
  F   F94       1.0  0.89239  0.07472  0.54727  1.0000
  F   F95       1.0  0.89814  0.59984  0.03209  1.0000
  F   F96       1.0  0.90434  0.57460  0.53689  1.0000
  F   F97       1.0  0.15280  0.19345  0.11847  1.0000
  F   F98       1.0  0.15838  0.19299  0.64317  1.0000
  F   F99       1.0  0.15075  0.69446  0.12211  1.0000
  F   F100      1.0  0.15394  0.67924  0.62934  1.0000
  F   F101      1.0  0.40713  0.19563  0.11993  1.0000
  F   F102      1.0  0.39939  0.19692  0.63394  1.0000
  F   F103      1.0  0.40074  0.69393  0.12536  1.0000
  F   F104      1.0  0.39878  0.70730  0.62485  1.0000
  F   F105      1.0  0.65171  0.19832  0.12191  1.0000
  F   F106      1.0  0.65135  0.20994  0.61828  1.0000
  F   F107      1.0  0.65111  0.70128  0.11595  1.0000
  F   F108      1.0  0.65909  0.70397  0.60344  1.0000
  F   F109      1.0  0.90506  0.19573  0.13083  1.0000
  F   F110      1.0  0.89916  0.20096  0.62871  1.0000
  F   F111      1.0  0.90886  0.69703  0.11417  1.0000
  F   F112      1.0  0.90265  0.70459  0.60445  1.0000
  F   F113      1.0  0.10064  0.30375  0.35778  1.0000
  F   F114      1.0  0.09921  0.30107  0.88359  1.0000
  F   F115      1.0  0.10344  0.79343  0.36536  1.0000
  F   F116      1.0  0.09701  0.79494  0.86886  1.0000
  F   F117      1.0  0.34562  0.30171  0.37415  1.0000
  F   F118      1.0  0.34838  0.29806  0.87659  1.0000
  F   F119      1.0  0.34293  0.80572  0.36615  1.0000
  F   F120      1.0  0.34419  0.80205  0.90492  1.0000
  F   F121      1.0  0.60444  0.29676  0.36918  1.0000
  F   F122      1.0  0.59120  0.31643  0.86983  1.0000
  F   F123      1.0  0.59755  0.80645  0.37695  1.0000
  F   F124      1.0  0.59721  0.81459  0.86490  1.0000
  F   F125      1.0  0.85539  0.31377  0.36625  1.0000
  F   F126      1.0  0.84790  0.30492  0.85650  1.0000
  F   F127      1.0  0.85500  0.79728  0.38792  1.0000
  F   F128      1.0  0.84825  0.80221  0.88502  1.0000
  F   F129      1.0  0.07387  0.25604  0.12449  1.0000
  F   F130      1.0  0.07251  0.24175  0.64770  1.0000
  F   F131      1.0  0.05871  0.74785  0.14020  1.0000
  F   F132      1.0  0.06771  0.75216  0.63978  1.0000
  F   F133      1.0  0.32532  0.25349  0.12894  1.0000
  F   F134      1.0  0.30997  0.25461  0.63956  1.0000
  F   F135      1.0  0.31818  0.73980  0.13938  1.0000
  F   F136      1.0  0.30993  0.75285  0.63869  1.0000
  F   F137      1.0  0.56346  0.25091  0.14951  1.0000
  F   F138      1.0  0.56324  0.25858  0.64233  1.0000
  F   F139      1.0  0.56807  0.75183  0.13666  1.0000
  F   F140      1.0  0.56954  0.75442  0.63190  1.0000
  F   F141      1.0  0.81517  0.24971  0.13606  1.0000
  F   F142      1.0  0.81838  0.26408  0.63034  1.0000
  F   F143      1.0  0.81783  0.75044  0.14013  1.0000
  F   F144      1.0  0.81372  0.74771  0.64966  1.0000
  F   F145      1.0  0.12360  0.35083  0.13541  1.0000
  F   F146      1.0  0.12293  0.38680  0.60625  1.0000
  F   F147      1.0  0.12678  0.87102  0.09845  1.0000
  F   F148      1.0  0.12548  0.85652  0.61086  1.0000
  F   F149      1.0  0.37638  0.38061  0.08889  1.0000
  F   F150      1.0  0.37665  0.38194  0.59995  1.0000
  F   F151      1.0  0.37044  0.84141  0.13600  1.0000
  F   F152      1.0  0.37625  0.88469  0.59393  1.0000
  F   F153      1.0  0.62533  0.37765  0.10286  1.0000
  F   F154      1.0  0.62639  0.38035  0.59712  1.0000
  F   F155      1.0  0.62551  0.87384  0.10720  1.0000
  F   F156      1.0  0.62214  0.87369  0.60136  1.0000
  F   F157      1.0  0.87288  0.37361  0.11680  1.0000
  F   F158      1.0  0.87560  0.37259  0.61015  1.0000
  F   F159      1.0  0.87381  0.85927  0.11765  1.0000
  F   F160      1.0  0.87335  0.88436  0.60775  1.0000
  F   F161      1.0  0.18198  0.23930  0.36465  1.0000
  F   F162      1.0  0.18637  0.24859  0.87078  1.0000
  F   F163      1.0  0.18336  0.74209  0.36144  1.0000
  F   F164      1.0  0.18562  0.74597  0.85238  1.0000
  F   F165      1.0  0.43061  0.25284  0.34476  1.0000
  F   F166      1.0  0.43174  0.24974  0.86802  1.0000
  F   F167      1.0  0.42714  0.74332  0.36970  1.0000
  F   F168      1.0  0.44278  0.75460  0.84571  1.0000
  F   F169      1.0  0.69003  0.25525  0.34906  1.0000
  F   F170      1.0  0.69119  0.25425  0.84211  1.0000
  F   F171      1.0  0.68843  0.75283  0.35679  1.0000
  F   F172      1.0  0.69328  0.75278  0.85754  1.0000
  F   F173      1.0  0.93608  0.24559  0.35966  1.0000
  F   F174      1.0  0.93472  0.25229  0.84825  1.0000
  F   F175      1.0  0.94720  0.74555  0.33961  1.0000
  F   F176      1.0  0.93463  0.74883  0.85933  1.0000
  F   F177      1.0  0.12370  0.10710  0.40574  1.0000
  F   F178      1.0  0.13344  0.15300  0.86979  1.0000
  F   F179      1.0  0.12633  0.61587  0.40313  1.0000
  F   F180      1.0  0.12148  0.61123  0.91269  1.0000
  F   F181      1.0  0.37337  0.10112  0.40651  1.0000
  F   F182      1.0  0.37246  0.11136  0.90693  1.0000
  F   F183      1.0  0.37894  0.62617  0.38870  1.0000
  F   F184      1.0  0.37425  0.64636  0.87855  1.0000
  F   F185      1.0  0.63233  0.12337  0.38947  1.0000
  F   F186      1.0  0.62661  0.14483  0.89118  1.0000
  F   F187      1.0  0.62392  0.63479  0.40122  1.0000
  F   F188      1.0  0.62426  0.64903  0.89381  1.0000
  F   F189      1.0  0.87320  0.13660  0.38118  1.0000
  F   F190      1.0  0.87825  0.12307  0.89499  1.0000
  F   F191      1.0  0.87406  0.61752  0.40307  1.0000
  F   F192      1.0  0.87595  0.64444  0.88761  1.0000
  F   F193      1.0  0.01476  0.34780  0.06640  1.0000
  F   F194      1.0  0.00813  0.34189  0.59994  1.0000
  F   F195      1.0  0.00781  0.86283  0.07231  1.0000
  F   F196      1.0  0.00804  0.87368  0.57499  1.0000
  F   F197      1.0  0.25759  0.34646  0.08708  1.0000
  F   F198      1.0  0.25696  0.36974  0.57392  1.0000
  F   F199      1.0  0.26150  0.85775  0.07332  1.0000
  F   F200      1.0  0.25709  0.86481  0.56580  1.0000
  F   F201      1.0  0.50380  0.36645  0.07713  1.0000
  F   F202      1.0  0.50783  0.36865  0.57063  1.0000
  F   F203      1.0  0.50780  0.86813  0.06991  1.0000
  F   F204      1.0  0.50719  0.87640  0.56869  1.0000
  F   F205      1.0  0.75415  0.34667  0.09492  1.0000
  F   F206      1.0  0.75794  0.37011  0.56278  1.0000
  F   F207      1.0  0.75868  0.85308  0.07480  1.0000
  F   F208      1.0  0.75890  0.86730  0.56519  1.0000
  F   F209      1.0  0.07019  0.47404  0.17681  1.0000
  F   F210      1.0  0.06127  0.49076  0.69160  1.0000
  F   F211      1.0  0.06356  0.98379  0.18117  1.0000
  F   F212      1.0  0.07496  0.97458  0.66907  1.0000
  F   F213      1.0  0.31807  0.47921  0.17408  1.0000
  F   F214      1.0  0.31751  0.47601  0.69633  1.0000
  F   F215      1.0  0.32037  0.98027  0.17510  1.0000
  F   F216      1.0  0.32036  0.97560  0.67836  1.0000
  F   F217      1.0  0.56868  0.49180  0.16072  1.0000
  F   F218      1.0  0.56349  0.48415  0.69138  1.0000
  F   F219      1.0  0.56604  0.99260  0.16741  1.0000
  F   F220      1.0  0.56683  0.99414  0.67623  1.0000
  F   F221      1.0  0.81824  0.49404  0.17254  1.0000
  F   F222      1.0  0.82028  0.47295  0.69653  1.0000
  F   F223      1.0  0.81994  0.99770  0.16538  1.0000
  F   F224      1.0  0.80952  0.99463  0.67839  1.0000
  F   F225      1.0  0.24108  0.11748  0.44252  1.0000
  F   F226      1.0  0.23983  0.12518  0.92995  1.0000
  F   F227      1.0  0.24667  0.63304  0.42282  1.0000
  F   F228      1.0  0.24042  0.62329  0.93473  1.0000
  F   F229      1.0  0.49420  0.14497  0.41120  1.0000
  F   F230      1.0  0.48508  0.13481  0.92841  1.0000
  F   F231      1.0  0.49184  0.64851  0.41432  1.0000
  F   F232      1.0  0.48905  0.63694  0.93528  1.0000
  F   F233      1.0  0.74050  0.14458  0.43179  1.0000
  F   F234      1.0  0.74245  0.13604  0.93566  1.0000
  F   F235      1.0  0.74844  0.64736  0.41027  1.0000
  F   F236      1.0  0.74860  0.63264  0.91893  1.0000
  F   F237      1.0  0.98835  0.12492  0.44335  1.0000
  F   F238      1.0  0.99205  0.13557  0.92238  1.0000
  F   F239      1.0  0.99491  0.63440  0.43774  1.0000
  F   F240      1.0  0.99121  0.63630  0.92946  1.0000
  F   F241      1.0  0.18559  0.00513  0.31437  1.0000
  F   F242      1.0  0.17336  0.00894  0.83128  1.0000
  F   F243      1.0  0.18131  0.51484  0.32231  1.0000
  F   F244      1.0  0.18347  0.51097  0.82542  1.0000
  F   F245      1.0  0.43300  0.00450  0.32703  1.0000
  F   F246      1.0  0.42906  0.01151  0.83375  1.0000
  F   F247      1.0  0.43666  0.51461  0.31636  1.0000
  F   F248      1.0  0.42852  0.51580  0.83095  1.0000
  F   F249      1.0  0.68512  0.00958  0.31774  1.0000
  F   F250      1.0  0.68042  0.02279  0.82479  1.0000
  F   F251      1.0  0.67929  0.52531  0.31318  1.0000
  F   F252      1.0  0.67333  0.51120  0.83706  1.0000
  F   F253      1.0  0.93560  0.01347  0.32982  1.0000
  F   F254      1.0  0.93233  0.01157  0.81924  1.0000
  F   F255      1.0  0.93221  0.51227  0.32831  1.0000
  F   F256      1.0  0.93057  0.51268  0.82944  1.0000
  F   F257      1.0  0.99853  0.24604  0.98765  1.0000
  F   F258      1.0  0.00170  0.25687  0.50370  1.0000
  F   F259      1.0  0.00223  0.75517  0.99541  1.0000
  F   F260      1.0  0.00213  0.78128  0.47897  1.0000
  F   F261      1.0  0.24638  0.24402  0.00662  1.0000
  F   F262      1.0  0.25372  0.25373  0.49348  1.0000
  F   F263      1.0  0.25133  0.74934  0.99731  1.0000
  F   F264      1.0  0.24939  0.73306  0.50534  1.0000
  F   F265      1.0  0.50117  0.27146  0.98110  1.0000
  F   F266      1.0  0.50230  0.26003  0.48493  1.0000
  F   F267      1.0  0.50128  0.76769  0.98366  1.0000
  F   F268      1.0  0.50201  0.77793  0.47753  1.0000
  F   F269      1.0  0.74562  0.26027  0.00065  1.0000
  F   F270      1.0  0.75024  0.25344  0.50161  1.0000
  F   F271      1.0  0.74664  0.74460  0.01105  1.0000
  F   F272      1.0  0.75213  0.75832  0.49055  1.0000
  F   F273      1.0  0.12470  0.99343  0.25367  1.0000
  F   F274      1.0  0.11901  0.98922  0.75969  1.0000
  F   F275      1.0  0.12703  0.50236  0.25500  1.0000
  F   F276      1.0  0.12097  0.49135  0.77043  1.0000
  F   F277      1.0  0.37364  0.00687  0.25375  1.0000
  F   F278      1.0  0.37069  0.99959  0.75626  1.0000
  F   F279      1.0  0.37656  0.49934  0.24470  1.0000
  F   F280      1.0  0.38652  0.51199  0.73029  1.0000
  F   F281      1.0  0.61249  0.99101  0.26506  1.0000
  F   F282      1.0  0.62155  0.00670  0.75512  1.0000
  F   F283      1.0  0.61237  0.50234  0.26385  1.0000
  F   F284      1.0  0.62111  0.49904  0.75585  1.0000
  F   F285      1.0  0.88437  0.00448  0.22925  1.0000
  F   F286      1.0  0.86834  0.99692  0.75105  1.0000
  F   F287      1.0  0.88333  0.50240  0.23818  1.0000
  F   F288      1.0  0.87935  0.50047  0.75587  1.0000
  F   F289      1.0  0.05215  0.02631  0.02175  1.0000
  F   F290      1.0  0.04282  0.02135  0.52936  1.0000
  F   F291      1.0  0.03613  0.52045  0.02280  1.0000
  F   F292      1.0  0.04365  0.52058  0.52843  1.0000
  F   F293      1.0  0.28729  0.03470  0.03387  1.0000
  F   F294      1.0  0.28574  0.03081  0.53164  1.0000
  F   F295      1.0  0.28924  0.52750  0.02502  1.0000
  F   F296      1.0  0.29507  0.52547  0.53127  1.0000
  F   F297      1.0  0.54234  0.04324  0.02290  1.0000
  F   F298      1.0  0.54320  0.04807  0.51472  1.0000
  F   F299      1.0  0.55211  0.52178  0.00671  1.0000
  F   F300      1.0  0.54042  0.53166  0.52361  1.0000
  F   F301      1.0  0.79227  0.03219  0.00989  1.0000
  F   F302      1.0  0.79490  0.03753  0.51053  1.0000
  F   F303      1.0  0.79654  0.52844  0.02011  1.0000
  F   F304      1.0  0.79215  0.53746  0.51924  1.0000
  F   F305      1.0  0.23538  0.40514  0.24790  1.0000
  F   F306      1.0  0.23781  0.39596  0.73351  1.0000
  F   F307      1.0  0.23362  0.91601  0.22155  1.0000
  F   F308      1.0  0.23739  0.90923  0.73881  1.0000
  F   F309      1.0  0.48505  0.41821  0.21910  1.0000
  F   F310      1.0  0.48125  0.41397  0.72357  1.0000
  F   F311      1.0  0.48112  0.90284  0.22701  1.0000
  F   F312      1.0  0.48019  0.92615  0.71964  1.0000
  F   F313      1.0  0.73683  0.42383  0.23157  1.0000
  F   F314      1.0  0.73353  0.42843  0.71846  1.0000
  F   F315      1.0  0.73911  0.92022  0.21334  1.0000
  F   F316      1.0  0.73323  0.91509  0.72329  1.0000
  F   F317      1.0  0.98603  0.41229  0.21899  1.0000
  F   F318      1.0  0.98164  0.41130  0.73226  1.0000
  F   F319      1.0  0.98885  0.92236  0.22510  1.0000
  F   F320      1.0  0.98631  0.91169  0.72608  1.0000
  F   F321      1.0  0.20669  0.47414  0.47793  1.0000
  F   F322      1.0  0.20253  0.47127  0.99055  1.0000
  F   F323      1.0  0.20399  0.97108  0.47341  1.0000
  F   F324      1.0  0.21287  0.96821  0.96591  1.0000
  F   F325      1.0  0.45702  0.47340  0.47469  1.0000
  F   F326      1.0  0.46378  0.46512  0.97194  1.0000
  F   F327      1.0  0.45733  0.97258  0.47960  1.0000
  F   F328      1.0  0.45484  0.96657  0.98763  1.0000
  F   F329      1.0  0.70801  0.48034  0.47129  1.0000
  F   F330      1.0  0.71110  0.46857  0.96373  1.0000
  F   F331      1.0  0.70728  0.96988  0.47707  1.0000
  F   F332      1.0  0.70771  0.97629  0.98018  1.0000
  F   F333      1.0  0.96413  0.45744  0.47854  1.0000
  F   F334      1.0  0.96004  0.47654  0.97153  1.0000
  F   F335      1.0  0.95592  0.96471  0.47012  1.0000
  F   F336      1.0  0.95364  0.96581  0.97609  1.0000
  F   F337      1.0  0.02016  0.08731  0.27469  1.0000
  F   F338      1.0  0.01833  0.07738  0.76986  1.0000
  F   F339      1.0  0.01394  0.57854  0.28576  1.0000
  F   F340      1.0  0.01297  0.61496  0.76475  1.0000
  F   F341      1.0  0.26344  0.08464  0.27174  1.0000
  F   F342      1.0  0.26199  0.06894  0.77127  1.0000
  F   F343      1.0  0.26503  0.58213  0.26393  1.0000
  F   F344      1.0  0.26312  0.59329  0.76759  1.0000
  F   F345      1.0  0.51528  0.07930  0.27013  1.0000
  F   F346      1.0  0.51255  0.07862  0.78444  1.0000
  F   F347      1.0  0.51912  0.58834  0.26521  1.0000
  F   F348      1.0  0.51531  0.58929  0.78239  1.0000
  F   F349      1.0  0.76340  0.08951  0.26950  1.0000
  F   F350      1.0  0.76625  0.10336  0.77104  1.0000
  F   F351      1.0  0.76343  0.60339  0.26130  1.0000
  F   F352      1.0  0.76257  0.58916  0.77059  1.0000
  F   F353      1.0  0.10048  0.39989  0.46927  1.0000
  F   F354      1.0  0.10190  0.40911  0.96101  1.0000
  F   F355      1.0  0.10267  0.90283  0.44852  1.0000
  F   F356      1.0  0.10053  0.88623  0.96288  1.0000
  F   F357      1.0  0.34829  0.41004  0.45417  1.0000
  F   F358      1.0  0.34919  0.41448  0.94973  1.0000
  F   F359      1.0  0.34669  0.91562  0.45778  1.0000
  F   F360      1.0  0.35244  0.91527  0.97687  1.0000
  F   F361      1.0  0.59911  0.41154  0.45557  1.0000
  F   F362      1.0  0.59483  0.38889  0.97433  1.0000
  F   F363      1.0  0.60324  0.91485  0.45356  1.0000
  F   F364      1.0  0.60053  0.91453  0.95793  1.0000
  F   F365      1.0  0.84879  0.41782  0.46026  1.0000
  F   F366      1.0  0.85096  0.39582  0.97306  1.0000
  F   F367      1.0  0.85163  0.90245  0.47031  1.0000
  F   F368      1.0  0.85334  0.90894  0.96279  1.0000
  F   F369      1.0  0.03903  0.28500  0.29219  1.0000
  F   F370      1.0  0.05093  0.29504  0.78983  1.0000
  F   F371      1.0  0.05241  0.79089  0.28661  1.0000
  F   F372      1.0  0.04022  0.79388  0.79680  1.0000
  F   F373      1.0  0.29594  0.29786  0.28434  1.0000
  F   F374      1.0  0.30074  0.29579  0.78711  1.0000
  F   F375      1.0  0.28538  0.78688  0.29038  1.0000
  F   F376      1.0  0.30173  0.80469  0.78659  1.0000
  F   F377      1.0  0.55054  0.31108  0.28406  1.0000
  F   F378      1.0  0.54035  0.30504  0.78915  1.0000
  F   F379      1.0  0.55086  0.80947  0.28079  1.0000
  F   F380      1.0  0.54151  0.79665  0.77404  1.0000
  F   F381      1.0  0.79678  0.29517  0.29583  1.0000
  F   F382      1.0  0.79255  0.29494  0.78599  1.0000
  F   F383      1.0  0.80687  0.80335  0.28884  1.0000
  F   F384      1.0  0.80486  0.80087  0.78318  1.0000
