data_image0
_chemical_formula_structural       Hf96F384
_chemical_formula_sum              "Hf96 F384"
_cell_length_a       31.0283
_cell_length_b       15.5158
_cell_length_c       15.5089
_cell_angle_alpha    63.342
_cell_angle_beta     63.342
_cell_angle_gamma    80.1625

_space_group_name_H-M_alt    "P 1"
_space_group_IT_number       1

loop_
  _space_group_symop_operation_xyz
  'x, y, z'

loop_
  _atom_site_type_symbol
  _atom_site_label
  _atom_site_symmetry_multiplicity
  _atom_site_fract_x
  _atom_site_fract_y
  _atom_site_fract_z
  _atom_site_occupancy
  Hf  Hf1       1.0  0.19397  0.11206  0.37402  1.0000
  Hf  Hf2       1.0  0.19754  0.09876  0.87549  1.0000
  Hf  Hf3       1.0  0.19596  0.60333  0.37973  1.0000
  Hf  Hf4       1.0  0.19584  0.60897  0.87763  1.0000
  Hf  Hf5       1.0  0.44701  0.10466  0.37643  1.0000
  Hf  Hf6       1.0  0.44543  0.10326  0.88549  1.0000
  Hf  Hf7       1.0  0.44548  0.60698  0.37959  1.0000
  Hf  Hf8       1.0  0.44750  0.61056  0.87453  1.0000
  Hf  Hf9       1.0  0.69629  0.11617  0.37028  1.0000
  Hf  Hf10      1.0  0.69956  0.11135  0.87369  1.0000
  Hf  Hf11      1.0  0.69612  0.59969  0.38167  1.0000
  Hf  Hf12      1.0  0.69609  0.61524  0.87258  1.0000
  Hf  Hf13      1.0  0.94883  0.10266  0.36616  1.0000
  Hf  Hf14      1.0  0.94891  0.10485  0.87258  1.0000
  Hf  Hf15      1.0  0.94276  0.60241  0.37903  1.0000
  Hf  Hf16      1.0  0.94672  0.60948  0.86423  1.0000
  Hf  Hf17      1.0  0.05489  0.38717  0.12267  1.0000
  Hf  Hf18      1.0  0.05759  0.40378  0.61133  1.0000
  Hf  Hf19      1.0  0.05700  0.89330  0.11993  1.0000
  Hf  Hf20      1.0  0.05079  0.89486  0.62680  1.0000
  Hf  Hf21      1.0  0.30125  0.38900  0.12488  1.0000
  Hf  Hf22      1.0  0.30404  0.39004  0.62707  1.0000
  Hf  Hf23      1.0  0.30057  0.89365  0.12894  1.0000
  Hf  Hf24      1.0  0.30105  0.89130  0.63259  1.0000
  Hf  Hf25      1.0  0.55440  0.40532  0.11712  1.0000
  Hf  Hf26      1.0  0.55198  0.40481  0.62176  1.0000
  Hf  Hf27      1.0  0.55400  0.90098  0.12162  1.0000
  Hf  Hf28      1.0  0.55112  0.89606  0.62950  1.0000
  Hf  Hf29      1.0  0.80567  0.39043  0.12696  1.0000
  Hf  Hf30      1.0  0.80583  0.38552  0.62381  1.0000
  Hf  Hf31      1.0  0.80476  0.89484  0.12182  1.0000
  Hf  Hf32      1.0  0.80396  0.88496  0.62590  1.0000
  Hf  Hf33      1.0  0.05326  0.17889  0.41598  1.0000
  Hf  Hf34      1.0  0.05561  0.18905  0.90646  1.0000
  Hf  Hf35      1.0  0.05631  0.68758  0.41079  1.0000
  Hf  Hf36      1.0  0.05541  0.67700  0.92088  1.0000
  Hf  Hf37      1.0  0.30235  0.18016  0.42262  1.0000
  Hf  Hf38      1.0  0.30553  0.19056  0.91231  1.0000
  Hf  Hf39      1.0  0.30596  0.67494  0.42093  1.0000
  Hf  Hf40      1.0  0.30451  0.68165  0.91709  1.0000
  Hf  Hf41      1.0  0.55188  0.17949  0.42733  1.0000
  Hf  Hf42      1.0  0.55780  0.18882  0.91889  1.0000
  Hf  Hf43      1.0  0.55534  0.68811  0.41107  1.0000
  Hf  Hf44      1.0  0.55529  0.68786  0.91666  1.0000
  Hf  Hf45      1.0  0.80731  0.18214  0.41786  1.0000
  Hf  Hf46      1.0  0.80704  0.17586  0.92009  1.0000
  Hf  Hf47      1.0  0.80497  0.67943  0.42291  1.0000
  Hf  Hf48      1.0  0.80767  0.67674  0.92434  1.0000
  Hf  Hf49      1.0  0.15996  0.39115  0.32480  1.0000
  Hf  Hf50      1.0  0.16273  0.39163  0.82899  1.0000
  Hf  Hf51      1.0  0.15782  0.88193  0.33982  1.0000
  Hf  Hf52      1.0  0.15692  0.88314  0.84135  1.0000
  Hf  Hf53      1.0  0.40636  0.38580  0.33575  1.0000
  Hf  Hf54      1.0  0.40928  0.38232  0.83964  1.0000
  Hf  Hf55      1.0  0.40786  0.88184  0.34166  1.0000
  Hf  Hf56      1.0  0.40651  0.89024  0.83203  1.0000
  Hf  Hf57      1.0  0.65803  0.39505  0.33383  1.0000
  Hf  Hf58      1.0  0.65939  0.38646  0.83501  1.0000
  Hf  Hf59      1.0  0.66410  0.88395  0.33082  1.0000
  Hf  Hf60      1.0  0.65662  0.89596  0.82889  1.0000
  Hf  Hf61      1.0  0.91008  0.38578  0.33135  1.0000
  Hf  Hf62      1.0  0.91241  0.38452  0.83031  1.0000
  Hf  Hf63      1.0  0.91088  0.88658  0.32946  1.0000
  Hf  Hf64      1.0  0.90654  0.88762  0.83330  1.0000
  Hf  Hf65      1.0  0.19492  0.32536  0.07864  1.0000
  Hf  Hf66      1.0  0.19316  0.32068  0.58278  1.0000
  Hf  Hf67      1.0  0.19045  0.80622  0.09555  1.0000
  Hf  Hf68      1.0  0.19057  0.81894  0.58912  1.0000
  Hf  Hf69      1.0  0.44438  0.31647  0.08742  1.0000
  Hf  Hf70      1.0  0.44459  0.31768  0.58337  1.0000
  Hf  Hf71      1.0  0.44617  0.81866  0.07866  1.0000
  Hf  Hf72      1.0  0.44263  0.81692  0.58484  1.0000
  Hf  Hf73      1.0  0.69633  0.32366  0.07796  1.0000
  Hf  Hf74      1.0  0.69558  0.31410  0.58291  1.0000
  Hf  Hf75      1.0  0.69431  0.81764  0.07930  1.0000
  Hf  Hf76      1.0  0.69415  0.82331  0.57537  1.0000
  Hf  Hf77      1.0  0.94713  0.31283  0.07784  1.0000
  Hf  Hf78      1.0  0.94539  0.31097  0.57981  1.0000
  Hf  Hf79      1.0  0.94568  0.81508  0.08274  1.0000
  Hf  Hf80      1.0  0.94519  0.81819  0.57596  1.0000
  Hf  Hf81      1.0  0.09096  0.11126  0.16179  1.0000
  Hf  Hf82      1.0  0.09266  0.11227  0.66689  1.0000
  Hf  Hf83      1.0  0.08531  0.60879  0.17448  1.0000
  Hf  Hf84      1.0  0.09217  0.61846  0.66513  1.0000
  Hf  Hf85      1.0  0.34010  0.10730  0.17062  1.0000
  Hf  Hf86      1.0  0.34431  0.11506  0.65880  1.0000
  Hf  Hf87      1.0  0.34257  0.61441  0.16375  1.0000
  Hf  Hf88      1.0  0.34210  0.60988  0.66643  1.0000
  Hf  Hf89      1.0  0.59475  0.12445  0.15980  1.0000
  Hf  Hf90      1.0  0.59024  0.11974  0.66427  1.0000
  Hf  Hf91      1.0  0.58985  0.61821  0.16235  1.0000
  Hf  Hf92      1.0  0.59056  0.61732  0.66527  1.0000
  Hf  Hf93      1.0  0.84481  0.10735  0.16193  1.0000
  Hf  Hf94      1.0  0.84390  0.11407  0.66043  1.0000
  Hf  Hf95      1.0  0.84632  0.60963  0.16154  1.0000
  Hf  Hf96      1.0  0.84232  0.60626  0.67031  1.0000
  F   F1        1.0  0.07197  0.12653  0.30095  1.0000
  F   F2        1.0  0.07541  0.13267  0.80046  1.0000
  F   F3        1.0  0.07212  0.62547  0.31651  1.0000
  F   F4        1.0  0.08147  0.63461  0.80720  1.0000
  F   F5        1.0  0.32130  0.13227  0.31105  1.0000
  F   F6        1.0  0.33098  0.15368  0.77937  1.0000
  F   F7        1.0  0.33174  0.63051  0.30307  1.0000
  F   F8        1.0  0.33356  0.62432  0.80359  1.0000
  F   F9        1.0  0.57951  0.13932  0.29658  1.0000
  F   F10       1.0  0.57790  0.13258  0.81647  1.0000
  F   F11       1.0  0.58096  0.63931  0.29728  1.0000
  F   F12       1.0  0.58361  0.64967  0.78453  1.0000
  F   F13       1.0  0.83277  0.13609  0.30415  1.0000
  F   F14       1.0  0.83503  0.14367  0.78757  1.0000
  F   F15       1.0  0.83053  0.62956  0.30486  1.0000
  F   F16       1.0  0.82791  0.60163  0.81596  1.0000
  F   F17       1.0  0.18882  0.34225  0.43533  1.0000
  F   F18       1.0  0.18438  0.33361  0.95013  1.0000
  F   F19       1.0  0.18833  0.84407  0.45154  1.0000
  F   F20       1.0  0.18199  0.83171  0.95541  1.0000
  F   F21       1.0  0.44259  0.33963  0.43738  1.0000
  F   F22       1.0  0.43923  0.33677  0.94904  1.0000
  F   F23       1.0  0.43788  0.83625  0.45200  1.0000
  F   F24       1.0  0.43340  0.83173  0.95125  1.0000
  F   F25       1.0  0.68392  0.33492  0.45122  1.0000
  F   F26       1.0  0.69395  0.35054  0.93188  1.0000
  F   F27       1.0  0.70000  0.85284  0.43053  1.0000
  F   F28       1.0  0.68637  0.84191  0.94282  1.0000
  F   F29       1.0  0.93610  0.34000  0.44502  1.0000
  F   F30       1.0  0.94537  0.34421  0.93003  1.0000
  F   F31       1.0  0.94554  0.86443  0.41470  1.0000
  F   F32       1.0  0.93763  0.83335  0.94085  1.0000
  F   F33       1.0  0.16807  0.37399  0.19619  1.0000
  F   F34       1.0  0.17394  0.37964  0.69298  1.0000
  F   F35       1.0  0.16707  0.87563  0.19023  1.0000
  F   F36       1.0  0.17206  0.87717  0.69675  1.0000
  F   F37       1.0  0.41389  0.35374  0.22302  1.0000
  F   F38       1.0  0.42563  0.36847  0.69971  1.0000
  F   F39       1.0  0.42734  0.86627  0.19709  1.0000
  F   F40       1.0  0.41948  0.86986  0.70357  1.0000
  F   F41       1.0  0.66633  0.37156  0.19793  1.0000
  F   F42       1.0  0.67000  0.35989  0.70664  1.0000
  F   F43       1.0  0.67431  0.88702  0.18199  1.0000
  F   F44       1.0  0.66993  0.88962  0.68885  1.0000
  F   F45       1.0  0.92574  0.36292  0.19695  1.0000
  F   F46       1.0  0.92039  0.35130  0.70118  1.0000
  F   F47       1.0  0.91630  0.86447  0.19736  1.0000
  F   F48       1.0  0.91606  0.86515  0.69878  1.0000
  F   F49       1.0  0.06435  0.15136  0.04550  1.0000
  F   F50       1.0  0.06156  0.14939  0.54889  1.0000
  F   F51       1.0  0.05862  0.65456  0.05698  1.0000
  F   F52       1.0  0.06467  0.67151  0.54172  1.0000
  F   F53       1.0  0.30910  0.15452  0.06619  1.0000
  F   F54       1.0  0.30740  0.14458  0.56830  1.0000
  F   F55       1.0  0.30395  0.64913  0.06148  1.0000
  F   F56       1.0  0.31842  0.65464  0.55046  1.0000
  F   F57       1.0  0.57239  0.18646  0.05109  1.0000
  F   F58       1.0  0.55896  0.15467  0.56001  1.0000
  F   F59       1.0  0.56131  0.66126  0.05470  1.0000
  F   F60       1.0  0.57160  0.67584  0.53991  1.0000
  F   F61       1.0  0.81179  0.15942  0.06111  1.0000
  F   F62       1.0  0.81254  0.15920  0.56130  1.0000
  F   F63       1.0  0.81609  0.65635  0.05037  1.0000
  F   F64       1.0  0.81727  0.65117  0.55781  1.0000
  F   F65       1.0  0.20740  0.20145  0.21483  1.0000
  F   F66       1.0  0.20241  0.20170  0.72441  1.0000
  F   F67       1.0  0.20845  0.69851  0.21741  1.0000
  F   F68       1.0  0.19751  0.70184  0.72184  1.0000
  F   F69       1.0  0.45041  0.19924  0.21608  1.0000
  F   F70       1.0  0.45376  0.20132  0.70425  1.0000
  F   F71       1.0  0.44967  0.70100  0.21643  1.0000
  F   F72       1.0  0.45262  0.69524  0.71304  1.0000
  F   F73       1.0  0.69852  0.20491  0.21508  1.0000
  F   F74       1.0  0.70708  0.20354  0.71438  1.0000
  F   F75       1.0  0.70597  0.70046  0.21343  1.0000
  F   F76       1.0  0.70552  0.71055  0.71561  1.0000
  F   F77       1.0  0.94830  0.18989  0.21917  1.0000
  F   F78       1.0  0.94858  0.19623  0.71901  1.0000
  F   F79       1.0  0.95550  0.70373  0.21802  1.0000
  F   F80       1.0  0.95520  0.69978  0.70187  1.0000
  F   F81       1.0  0.15164  0.08971  0.03356  1.0000
  F   F82       1.0  0.14706  0.09935  0.52887  1.0000
  F   F83       1.0  0.14808  0.60493  0.03885  1.0000
  F   F84       1.0  0.14636  0.60566  0.53684  1.0000
  F   F85       1.0  0.39179  0.08075  0.04939  1.0000
  F   F86       1.0  0.39817  0.08182  0.54226  1.0000
  F   F87       1.0  0.39714  0.61159  0.02570  1.0000
  F   F88       1.0  0.40046  0.57930  0.55055  1.0000
  F   F89       1.0  0.64860  0.09522  0.04225  1.0000
  F   F90       1.0  0.64733  0.10674  0.54562  1.0000
  F   F91       1.0  0.64483  0.59990  0.04654  1.0000
  F   F92       1.0  0.65367  0.59000  0.53720  1.0000
  F   F93       1.0  0.90555  0.07651  0.03602  1.0000
  F   F94       1.0  0.90287  0.09171  0.53213  1.0000
  F   F95       1.0  0.90055  0.58124  0.04503  1.0000
  F   F96       1.0  0.90053  0.59061  0.54271  1.0000
  F   F97       1.0  0.15175  0.18689  0.12739  1.0000
  F   F98       1.0  0.15800  0.19878  0.63000  1.0000
  F   F99       1.0  0.14580  0.68704  0.15883  1.0000
  F   F100      1.0  0.14939  0.69275  0.63204  1.0000
  F   F101      1.0  0.40203  0.18085  0.13319  1.0000
  F   F102      1.0  0.40512  0.19269  0.61423  1.0000
  F   F103      1.0  0.40421  0.68867  0.12294  1.0000
  F   F104      1.0  0.39761  0.69553  0.62339  1.0000
  F   F105      1.0  0.65137  0.21804  0.10704  1.0000
  F   F106      1.0  0.64943  0.19585  0.63876  1.0000
  F   F107      1.0  0.65828  0.69699  0.12960  1.0000
  F   F108      1.0  0.65308  0.70793  0.60707  1.0000
  F   F109      1.0  0.90646  0.19971  0.08385  1.0000
  F   F110      1.0  0.90549  0.19181  0.60899  1.0000
  F   F111      1.0  0.90332  0.68411  0.13657  1.0000
  F   F112      1.0  0.90296  0.71753  0.60079  1.0000
  F   F113      1.0  0.10155  0.31472  0.37845  1.0000
  F   F114      1.0  0.08909  0.30508  0.87743  1.0000
  F   F115      1.0  0.09960  0.81499  0.35540  1.0000
  F   F116      1.0  0.09565  0.80516  0.87833  1.0000
  F   F117      1.0  0.34397  0.30347  0.39247  1.0000
  F   F118      1.0  0.35228  0.30398  0.86035  1.0000
  F   F119      1.0  0.34789  0.80068  0.36838  1.0000
  F   F120      1.0  0.33877  0.81548  0.89307  1.0000
  F   F121      1.0  0.60082  0.30592  0.39904  1.0000
  F   F122      1.0  0.59470  0.31115  0.86230  1.0000
  F   F123      1.0  0.60004  0.80295  0.35949  1.0000
  F   F124      1.0  0.59901  0.80429  0.86344  1.0000
  F   F125      1.0  0.84657  0.30552  0.37805  1.0000
  F   F126      1.0  0.84767  0.30681  0.88526  1.0000
  F   F127      1.0  0.84986  0.80236  0.36874  1.0000
  F   F128      1.0  0.84480  0.80322  0.87658  1.0000
  F   F129      1.0  0.06842  0.24630  0.13577  1.0000
  F   F130      1.0  0.08354  0.26723  0.60157  1.0000
  F   F131      1.0  0.06728  0.74896  0.12907  1.0000
  F   F132      1.0  0.05746  0.74892  0.65538  1.0000
  F   F133      1.0  0.31742  0.25175  0.14425  1.0000
  F   F134      1.0  0.30897  0.25172  0.64159  1.0000
  F   F135      1.0  0.31806  0.75009  0.12664  1.0000
  F   F136      1.0  0.31080  0.75147  0.65414  1.0000
  F   F137      1.0  0.54887  0.26344  0.16957  1.0000
  F   F138      1.0  0.56418  0.25598  0.63334  1.0000
  F   F139      1.0  0.57106  0.75970  0.13519  1.0000
  F   F140      1.0  0.55386  0.74761  0.65054  1.0000
  F   F141      1.0  0.80252  0.25264  0.15926  1.0000
  F   F142      1.0  0.80986  0.24406  0.64859  1.0000
  F   F143      1.0  0.82031  0.74828  0.13101  1.0000
  F   F144      1.0  0.80835  0.74664  0.64915  1.0000
  F   F145      1.0  0.12459  0.35523  0.11711  1.0000
  F   F146      1.0  0.12907  0.37973  0.60334  1.0000
  F   F147      1.0  0.12159  0.85198  0.11805  1.0000
  F   F148      1.0  0.11919  0.86238  0.62218  1.0000
  F   F149      1.0  0.37435  0.36746  0.10665  1.0000
  F   F150      1.0  0.37447  0.35663  0.61051  1.0000
  F   F151      1.0  0.37563  0.84975  0.12715  1.0000
  F   F152      1.0  0.37179  0.86667  0.60620  1.0000
  F   F153      1.0  0.62392  0.38256  0.09517  1.0000
  F   F154      1.0  0.62317  0.37218  0.61457  1.0000
  F   F155      1.0  0.62516  0.87395  0.11197  1.0000
  F   F156      1.0  0.62255  0.86582  0.62277  1.0000
  F   F157      1.0  0.87045  0.32725  0.13683  1.0000
  F   F158      1.0  0.87850  0.36201  0.60896  1.0000
  F   F159      1.0  0.87666  0.88585  0.09232  1.0000
  F   F160      1.0  0.87397  0.86820  0.60396  1.0000
  F   F161      1.0  0.18318  0.24884  0.35880  1.0000
  F   F162      1.0  0.17605  0.25052  0.86482  1.0000
  F   F163      1.0  0.17947  0.74755  0.36546  1.0000
  F   F164      1.0  0.17588  0.74558  0.86080  1.0000
  F   F165      1.0  0.42781  0.24317  0.38004  1.0000
  F   F166      1.0  0.43856  0.24561  0.85712  1.0000
  F   F167      1.0  0.42549  0.73510  0.39011  1.0000
  F   F168      1.0  0.43626  0.75516  0.84896  1.0000
  F   F169      1.0  0.68911  0.25154  0.35142  1.0000
  F   F170      1.0  0.68370  0.24932  0.86962  1.0000
  F   F171      1.0  0.68122  0.74666  0.37096  1.0000
  F   F172      1.0  0.68648  0.76259  0.85406  1.0000
  F   F173      1.0  0.93848  0.25234  0.35079  1.0000
  F   F174      1.0  0.92909  0.24140  0.85731  1.0000
  F   F175      1.0  0.92721  0.74154  0.38190  1.0000
  F   F176      1.0  0.93820  0.74226  0.85511  1.0000
  F   F177      1.0  0.12231  0.15006  0.37328  1.0000
  F   F178      1.0  0.12442  0.13353  0.87908  1.0000
  F   F179      1.0  0.12363  0.61687  0.39715  1.0000
  F   F180      1.0  0.12327  0.61077  0.91309  1.0000
  F   F181      1.0  0.37250  0.12385  0.39493  1.0000
  F   F182      1.0  0.37389  0.13883  0.88677  1.0000
  F   F183      1.0  0.37436  0.61297  0.41127  1.0000
  F   F184      1.0  0.37404  0.63641  0.88878  1.0000
  F   F185      1.0  0.62643  0.13388  0.39032  1.0000
  F   F186      1.0  0.62710  0.13873  0.89646  1.0000
  F   F187      1.0  0.63044  0.63432  0.37785  1.0000
  F   F188      1.0  0.62699  0.63248  0.89028  1.0000
  F   F189      1.0  0.87202  0.12292  0.40942  1.0000
  F   F190      1.0  0.87276  0.11178  0.90296  1.0000
  F   F191      1.0  0.87181  0.61926  0.40165  1.0000
  F   F192      1.0  0.87600  0.63437  0.87687  1.0000
  F   F193      1.0  0.00900  0.34409  0.07771  1.0000
  F   F194      1.0  0.01213  0.36187  0.56909  1.0000
  F   F195      1.0  0.00875  0.85816  0.08156  1.0000
  F   F196      1.0  0.00699  0.85248  0.57900  1.0000
  F   F197      1.0  0.25691  0.36423  0.06564  1.0000
  F   F198      1.0  0.25808  0.36323  0.56955  1.0000
  F   F199      1.0  0.25376  0.86642  0.08735  1.0000
  F   F200      1.0  0.25778  0.86646  0.57325  1.0000
  F   F201      1.0  0.50541  0.37228  0.06509  1.0000
  F   F202      1.0  0.50961  0.37437  0.55799  1.0000
  F   F203      1.0  0.51085  0.86965  0.07011  1.0000
  F   F204      1.0  0.50594  0.85982  0.57187  1.0000
  F   F205      1.0  0.75791  0.37103  0.06222  1.0000
  F   F206      1.0  0.75303  0.36394  0.58163  1.0000
  F   F207      1.0  0.76187  0.86562  0.06708  1.0000
  F   F208      1.0  0.75655  0.85837  0.57449  1.0000
  F   F209      1.0  0.07030  0.48731  0.16718  1.0000
  F   F210      1.0  0.07085  0.48405  0.67760  1.0000
  F   F211      1.0  0.06995  0.97146  0.18268  1.0000
  F   F212      1.0  0.07274  0.99151  0.66486  1.0000
  F   F213      1.0  0.31267  0.48710  0.17826  1.0000
  F   F214      1.0  0.31592  0.47623  0.68653  1.0000
  F   F215      1.0  0.31809  0.97569  0.18039  1.0000
  F   F216      1.0  0.31848  0.97807  0.69058  1.0000
  F   F217      1.0  0.57207  0.48734  0.17050  1.0000
  F   F218      1.0  0.56623  0.49864  0.66133  1.0000
  F   F219      1.0  0.57140  0.99366  0.17432  1.0000
  F   F220      1.0  0.56386  0.99148  0.67573  1.0000
  F   F221      1.0  0.81829  0.47649  0.17820  1.0000
  F   F222      1.0  0.82439  0.47924  0.67840  1.0000
  F   F223      1.0  0.81887  0.98258  0.17709  1.0000
  F   F224      1.0  0.81932  0.98227  0.67696  1.0000
  F   F225      1.0  0.23930  0.14925  0.42970  1.0000
  F   F226      1.0  0.23959  0.12958  0.93104  1.0000
  F   F227      1.0  0.24251  0.62910  0.43454  1.0000
  F   F228      1.0  0.24479  0.65244  0.91146  1.0000
  F   F229      1.0  0.49355  0.14024  0.42893  1.0000
  F   F230      1.0  0.49460  0.13370  0.93600  1.0000
  F   F231      1.0  0.49261  0.64989  0.40697  1.0000
  F   F232      1.0  0.49473  0.64274  0.91259  1.0000
  F   F233      1.0  0.74472  0.14669  0.42694  1.0000
  F   F234      1.0  0.74733  0.12982  0.92233  1.0000
  F   F235      1.0  0.74332  0.63946  0.42750  1.0000
  F   F236      1.0  0.74001  0.64638  0.92887  1.0000
  F   F237      1.0  0.99461  0.14639  0.40079  1.0000
  F   F238      1.0  0.99369  0.13299  0.91913  1.0000
  F   F239      1.0  0.98834  0.63480  0.42969  1.0000
  F   F240      1.0  0.99468  0.63535  0.92121  1.0000
  F   F241      1.0  0.18423  0.01974  0.32873  1.0000
  F   F242      1.0  0.17982  0.01126  0.82502  1.0000
  F   F243      1.0  0.18454  0.51877  0.32230  1.0000
  F   F244      1.0  0.18164  0.51557  0.83280  1.0000
  F   F245      1.0  0.43453  0.00595  0.33451  1.0000
  F   F246      1.0  0.43514  0.00743  0.83078  1.0000
  F   F247      1.0  0.43156  0.51465  0.32298  1.0000
  F   F248      1.0  0.42989  0.50814  0.84244  1.0000
  F   F249      1.0  0.67878  0.00689  0.32875  1.0000
  F   F250      1.0  0.67700  0.02779  0.81361  1.0000
  F   F251      1.0  0.68675  0.50919  0.32320  1.0000
  F   F252      1.0  0.68481  0.51359  0.81550  1.0000
  F   F253      1.0  0.92193  0.02001  0.32828  1.0000
  F   F254      1.0  0.93743  0.00999  0.82416  1.0000
  F   F255      1.0  0.92955  0.51474  0.32745  1.0000
  F   F256      1.0  0.93077  0.52330  0.81547  1.0000
  F   F257      1.0  0.99438  0.23575  0.01002  1.0000
  F   F258      1.0  0.00084  0.25083  0.49535  1.0000
  F   F259      1.0  0.00052  0.74656  0.00267  1.0000
  F   F260      1.0  0.00048  0.75787  0.48411  1.0000
  F   F261      1.0  0.25312  0.25371  0.99136  1.0000
  F   F262      1.0  0.24851  0.25462  0.50146  1.0000
  F   F263      1.0  0.24353  0.74347  0.00789  1.0000
  F   F264      1.0  0.24904  0.73553  0.51285  1.0000
  F   F265      1.0  0.49821  0.24557  0.01642  1.0000
  F   F266      1.0  0.50113  0.25761  0.50259  1.0000
  F   F267      1.0  0.49680  0.74740  0.00292  1.0000
  F   F268      1.0  0.49488  0.72408  0.51056  1.0000
  F   F269      1.0  0.74929  0.23564  0.01073  1.0000
  F   F270      1.0  0.74947  0.24426  0.51573  1.0000
  F   F271      1.0  0.75276  0.75047  0.99298  1.0000
  F   F272      1.0  0.75274  0.73525  0.52055  1.0000
  F   F273      1.0  0.12840  0.99789  0.24797  1.0000
  F   F274      1.0  0.12134  0.00293  0.75686  1.0000
  F   F275      1.0  0.11534  0.50399  0.25727  1.0000
  F   F276      1.0  0.12184  0.50098  0.76592  1.0000
  F   F277      1.0  0.37301  0.00120  0.25429  1.0000
  F   F278      1.0  0.38313  0.01494  0.73867  1.0000
  F   F279      1.0  0.36769  0.49078  0.26093  1.0000
  F   F280      1.0  0.37584  0.48719  0.75591  1.0000
  F   F281      1.0  0.62821  0.00006  0.24932  1.0000
  F   F282      1.0  0.60702  0.99386  0.77398  1.0000
  F   F283      1.0  0.62576  0.50883  0.25431  1.0000
  F   F284      1.0  0.62484  0.50249  0.73894  1.0000
  F   F285      1.0  0.87633  0.00052  0.24540  1.0000
  F   F286      1.0  0.88542  0.00725  0.74403  1.0000
  F   F287      1.0  0.88103  0.49517  0.23830  1.0000
  F   F288      1.0  0.88209  0.50187  0.73615  1.0000
  F   F289      1.0  0.04160  0.02956  0.02291  1.0000
  F   F290      1.0  0.04179  0.02346  0.52484  1.0000
  F   F291      1.0  0.03865  0.51935  0.02735  1.0000
  F   F292      1.0  0.03949  0.53509  0.53955  1.0000
  F   F293      1.0  0.28791  0.03901  0.03189  1.0000
  F   F294      1.0  0.28930  0.02742  0.52455  1.0000
  F   F295      1.0  0.29062  0.52184  0.01794  1.0000
  F   F296      1.0  0.29076  0.52986  0.52378  1.0000
  F   F297      1.0  0.53910  0.04190  0.03896  1.0000
  F   F298      1.0  0.54297  0.03220  0.50716  1.0000
  F   F299      1.0  0.54271  0.53497  0.02055  1.0000
  F   F300      1.0  0.54023  0.54163  0.52495  1.0000
  F   F301      1.0  0.78767  0.02888  0.02943  1.0000
  F   F302      1.0  0.80403  0.02020  0.51236  1.0000
  F   F303      1.0  0.78677  0.53912  0.02846  1.0000
  F   F304      1.0  0.79071  0.52591  0.53511  1.0000
  F   F305      1.0  0.23460  0.41512  0.21278  1.0000
  F   F306      1.0  0.23579  0.42054  0.72472  1.0000
  F   F307      1.0  0.22823  0.91744  0.23560  1.0000
  F   F308      1.0  0.23561  0.89830  0.74650  1.0000
  F   F309      1.0  0.48540  0.41088  0.22632  1.0000
  F   F310      1.0  0.48083  0.41943  0.73191  1.0000
  F   F311      1.0  0.48190  0.90110  0.23610  1.0000
  F   F312      1.0  0.48170  0.91594  0.72812  1.0000
  F   F313      1.0  0.73269  0.40219  0.22691  1.0000
  F   F314      1.0  0.73718  0.41183  0.71920  1.0000
  F   F315      1.0  0.73709  0.90908  0.22125  1.0000
  F   F316      1.0  0.74006  0.92033  0.72017  1.0000
  F   F317      1.0  0.98690  0.40858  0.22105  1.0000
  F   F318      1.0  0.98288  0.40271  0.72567  1.0000
  F   F319      1.0  0.98527  0.90645  0.23229  1.0000
  F   F320      1.0  0.98204  0.92016  0.72118  1.0000
  F   F321      1.0  0.19926  0.46972  0.48345  1.0000
  F   F322      1.0  0.19802  0.47954  0.99328  1.0000
  F   F323      1.0  0.19675  0.96596  0.49616  1.0000
  F   F324      1.0  0.20455  0.95732  0.97530  1.0000
  F   F325      1.0  0.45293  0.47359  0.49387  1.0000
  F   F326      1.0  0.44727  0.47142  0.99673  1.0000
  F   F327      1.0  0.45542  0.97013  0.47232  1.0000
  F   F328      1.0  0.45752  0.96159  0.98369  1.0000
  F   F329      1.0  0.70889  0.46876  0.46974  1.0000
  F   F330      1.0  0.70421  0.47178  0.98864  1.0000
  F   F331      1.0  0.70106  0.98391  0.48711  1.0000
  F   F332      1.0  0.70183  0.96934  0.97511  1.0000
  F   F333      1.0  0.95012  0.46873  0.47919  1.0000
  F   F334      1.0  0.96106  0.46625  0.96709  1.0000
  F   F335      1.0  0.96640  0.97303  0.47116  1.0000
  F   F336      1.0  0.96565  0.96646  0.96173  1.0000
  F   F337      1.0  0.01290  0.07912  0.26587  1.0000
  F   F338      1.0  0.01840  0.10413  0.74855  1.0000
  F   F339      1.0  0.01064  0.57891  0.28048  1.0000
  F   F340      1.0  0.01847  0.59204  0.76407  1.0000
  F   F341      1.0  0.26359  0.07207  0.29039  1.0000
  F   F342      1.0  0.26726  0.07426  0.78383  1.0000
  F   F343      1.0  0.26725  0.58481  0.27834  1.0000
  F   F344      1.0  0.26762  0.57533  0.77288  1.0000
  F   F345      1.0  0.51679  0.09144  0.26082  1.0000
  F   F346      1.0  0.51418  0.09258  0.78062  1.0000
  F   F347      1.0  0.51737  0.58505  0.27751  1.0000
  F   F348      1.0  0.51459  0.58291  0.77892  1.0000
  F   F349      1.0  0.76428  0.08875  0.27929  1.0000
  F   F350      1.0  0.76496  0.07816  0.78056  1.0000
  F   F351      1.0  0.76748  0.58070  0.27020  1.0000
  F   F352      1.0  0.76026  0.58213  0.77327  1.0000
  F   F353      1.0  0.09921  0.42632  0.46353  1.0000
  F   F354      1.0  0.10136  0.41500  0.96956  1.0000
  F   F355      1.0  0.10520  0.90223  0.46373  1.0000
  F   F356      1.0  0.10351  0.89317  0.96817  1.0000
  F   F357      1.0  0.34779  0.42094  0.46354  1.0000
  F   F358      1.0  0.35086  0.39034  0.96672  1.0000
  F   F359      1.0  0.35372  0.89098  0.46347  1.0000
  F   F360      1.0  0.34864  0.91296  0.97162  1.0000
  F   F361      1.0  0.60217  0.43094  0.45891  1.0000
  F   F362      1.0  0.59934  0.40069  0.96076  1.0000
  F   F363      1.0  0.60511  0.87913  0.47141  1.0000
  F   F364      1.0  0.60137  0.90908  0.95671  1.0000
  F   F365      1.0  0.84989  0.40987  0.45857  1.0000
  F   F366      1.0  0.85291  0.41802  0.97153  1.0000
  F   F367      1.0  0.85113  0.90413  0.45475  1.0000
  F   F368      1.0  0.84996  0.91839  0.95516  1.0000
  F   F369      1.0  0.04677  0.30177  0.29921  1.0000
  F   F370      1.0  0.04116  0.29288  0.78285  1.0000
  F   F371      1.0  0.04667  0.78833  0.28717  1.0000
  F   F372      1.0  0.04742  0.80209  0.79288  1.0000
  F   F373      1.0  0.29798  0.30354  0.29025  1.0000
  F   F374      1.0  0.29027  0.29721  0.79450  1.0000
  F   F375      1.0  0.29209  0.79142  0.28101  1.0000
  F   F376      1.0  0.30177  0.80166  0.79299  1.0000
  F   F377      1.0  0.55045  0.29959  0.30471  1.0000
  F   F378      1.0  0.53846  0.30481  0.79345  1.0000
  F   F379      1.0  0.54224  0.80929  0.29260  1.0000
  F   F380      1.0  0.54363  0.80064  0.79043  1.0000
  F   F381      1.0  0.79248  0.30456  0.31006  1.0000
  F   F382      1.0  0.79279  0.28878  0.79484  1.0000
  F   F383      1.0  0.79382  0.79099  0.28471  1.0000
  F   F384      1.0  0.80071  0.78469  0.79401  1.0000
