data_image0
_chemical_formula_structural       Hf96F384
_chemical_formula_sum              "Hf96 F384"
_cell_length_a       31.0578
_cell_length_b       15.5226
_cell_length_c       15.5166
_cell_angle_alpha    63.342
_cell_angle_beta     63.342
_cell_angle_gamma    80.1625

_space_group_name_H-M_alt    "P 1"
_space_group_IT_number       1

loop_
  _space_group_symop_operation_xyz
  'x, y, z'

loop_
  _atom_site_type_symbol
  _atom_site_label
  _atom_site_symmetry_multiplicity
  _atom_site_fract_x
  _atom_site_fract_y
  _atom_site_fract_z
  _atom_site_occupancy
  Hf  Hf1       1.0  0.19905  0.10672  0.37501  1.0000
  Hf  Hf2       1.0  0.19405  0.10862  0.88642  1.0000
  Hf  Hf3       1.0  0.19667  0.60397  0.37052  1.0000
  Hf  Hf4       1.0  0.19637  0.61230  0.87391  1.0000
  Hf  Hf5       1.0  0.44405  0.10367  0.39026  1.0000
  Hf  Hf6       1.0  0.44656  0.12427  0.87041  1.0000
  Hf  Hf7       1.0  0.44575  0.61548  0.37259  1.0000
  Hf  Hf8       1.0  0.44774  0.62049  0.86319  1.0000
  Hf  Hf9       1.0  0.69655  0.10480  0.37559  1.0000
  Hf  Hf10      1.0  0.69562  0.10580  0.88398  1.0000
  Hf  Hf11      1.0  0.69615  0.59670  0.38646  1.0000
  Hf  Hf12      1.0  0.69444  0.60679  0.87658  1.0000
  Hf  Hf13      1.0  0.94797  0.10587  0.37161  1.0000
  Hf  Hf14      1.0  0.94059  0.10312  0.88632  1.0000
  Hf  Hf15      1.0  0.94647  0.60000  0.38039  1.0000
  Hf  Hf16      1.0  0.94914  0.61068  0.86033  1.0000
  Hf  Hf17      1.0  0.05046  0.39307  0.12839  1.0000
  Hf  Hf18      1.0  0.05536  0.38427  0.62747  1.0000
  Hf  Hf19      1.0  0.05127  0.89353  0.13339  1.0000
  Hf  Hf20      1.0  0.05289  0.88493  0.62027  1.0000
  Hf  Hf21      1.0  0.30259  0.39656  0.12374  1.0000
  Hf  Hf22      1.0  0.30463  0.39838  0.63322  1.0000
  Hf  Hf23      1.0  0.30351  0.89609  0.12521  1.0000
  Hf  Hf24      1.0  0.30438  0.89791  0.62150  1.0000
  Hf  Hf25      1.0  0.55277  0.39413  0.12475  1.0000
  Hf  Hf26      1.0  0.54809  0.38312  0.62995  1.0000
  Hf  Hf27      1.0  0.55751  0.89592  0.11458  1.0000
  Hf  Hf28      1.0  0.55784  0.89240  0.62003  1.0000
  Hf  Hf29      1.0  0.79667  0.38753  0.13846  1.0000
  Hf  Hf30      1.0  0.80479  0.38756  0.62894  1.0000
  Hf  Hf31      1.0  0.80247  0.88854  0.12629  1.0000
  Hf  Hf32      1.0  0.80300  0.88059  0.63193  1.0000
  Hf  Hf33      1.0  0.05651  0.18143  0.40720  1.0000
  Hf  Hf34      1.0  0.05669  0.18623  0.90756  1.0000
  Hf  Hf35      1.0  0.05650  0.67221  0.41955  1.0000
  Hf  Hf36      1.0  0.05887  0.68519  0.90879  1.0000
  Hf  Hf37      1.0  0.30657  0.18145  0.41470  1.0000
  Hf  Hf38      1.0  0.30559  0.18590  0.91943  1.0000
  Hf  Hf39      1.0  0.30537  0.68092  0.41804  1.0000
  Hf  Hf40      1.0  0.30586  0.68918  0.91973  1.0000
  Hf  Hf41      1.0  0.55430  0.18588  0.41769  1.0000
  Hf  Hf42      1.0  0.55663  0.17765  0.91871  1.0000
  Hf  Hf43      1.0  0.55653  0.68036  0.41745  1.0000
  Hf  Hf44      1.0  0.55746  0.68768  0.91559  1.0000
  Hf  Hf45      1.0  0.80611  0.17912  0.41538  1.0000
  Hf  Hf46      1.0  0.80282  0.18192  0.92356  1.0000
  Hf  Hf47      1.0  0.79968  0.68185  0.42023  1.0000
  Hf  Hf48      1.0  0.80787  0.67411  0.91719  1.0000
  Hf  Hf49      1.0  0.15787  0.38549  0.33197  1.0000
  Hf  Hf50      1.0  0.16021  0.39161  0.82465  1.0000
  Hf  Hf51      1.0  0.16263  0.89370  0.31791  1.0000
  Hf  Hf52      1.0  0.15908  0.88776  0.83308  1.0000
  Hf  Hf53      1.0  0.40632  0.38930  0.33059  1.0000
  Hf  Hf54      1.0  0.40887  0.39362  0.83931  1.0000
  Hf  Hf55      1.0  0.41417  0.89485  0.32401  1.0000
  Hf  Hf56      1.0  0.41065  0.89869  0.82519  1.0000
  Hf  Hf57      1.0  0.65695  0.39413  0.33050  1.0000
  Hf  Hf58      1.0  0.66223  0.38955  0.83342  1.0000
  Hf  Hf59      1.0  0.65501  0.88223  0.33307  1.0000
  Hf  Hf60      1.0  0.65834  0.89205  0.83673  1.0000
  Hf  Hf61      1.0  0.90417  0.37886  0.34057  1.0000
  Hf  Hf62      1.0  0.90954  0.37865  0.83618  1.0000
  Hf  Hf63      1.0  0.90927  0.87993  0.33704  1.0000
  Hf  Hf64      1.0  0.90582  0.88075  0.84319  1.0000
  Hf  Hf65      1.0  0.18989  0.31787  0.09025  1.0000
  Hf  Hf66      1.0  0.19674  0.32232  0.56995  1.0000
  Hf  Hf67      1.0  0.19370  0.82326  0.07378  1.0000
  Hf  Hf68      1.0  0.19674  0.82037  0.57591  1.0000
  Hf  Hf69      1.0  0.44629  0.31795  0.08091  1.0000
  Hf  Hf70      1.0  0.44083  0.32833  0.57791  1.0000
  Hf  Hf71      1.0  0.44288  0.82385  0.08281  1.0000
  Hf  Hf72      1.0  0.44636  0.81592  0.57572  1.0000
  Hf  Hf73      1.0  0.69351  0.31631  0.08998  1.0000
  Hf  Hf74      1.0  0.69340  0.30782  0.59233  1.0000
  Hf  Hf75      1.0  0.69507  0.81407  0.08690  1.0000
  Hf  Hf76      1.0  0.69470  0.83024  0.58312  1.0000
  Hf  Hf77      1.0  0.94488  0.31880  0.07447  1.0000
  Hf  Hf78      1.0  0.94639  0.31717  0.58262  1.0000
  Hf  Hf79      1.0  0.94409  0.80445  0.08717  1.0000
  Hf  Hf80      1.0  0.94359  0.81571  0.58225  1.0000
  Hf  Hf81      1.0  0.09119  0.11057  0.16260  1.0000
  Hf  Hf82      1.0  0.08819  0.11724  0.66805  1.0000
  Hf  Hf83      1.0  0.09114  0.61387  0.16831  1.0000
  Hf  Hf84      1.0  0.09452  0.61913  0.66072  1.0000
  Hf  Hf85      1.0  0.34762  0.11507  0.16420  1.0000
  Hf  Hf86      1.0  0.33562  0.11517  0.67245  1.0000
  Hf  Hf87      1.0  0.34337  0.62572  0.15667  1.0000
  Hf  Hf88      1.0  0.33860  0.60857  0.67497  1.0000
  Hf  Hf89      1.0  0.58862  0.11015  0.17490  1.0000
  Hf  Hf90      1.0  0.59489  0.11551  0.64968  1.0000
  Hf  Hf91      1.0  0.59103  0.61673  0.16186  1.0000
  Hf  Hf92      1.0  0.58954  0.61502  0.67016  1.0000
  Hf  Hf93      1.0  0.84014  0.10378  0.17174  1.0000
  Hf  Hf94      1.0  0.83874  0.10273  0.66941  1.0000
  Hf  Hf95      1.0  0.84225  0.61220  0.16022  1.0000
  Hf  Hf96      1.0  0.84353  0.61249  0.66762  1.0000
  F   F1        1.0  0.07067  0.10576  0.30949  1.0000
  F   F2        1.0  0.08178  0.12115  0.80263  1.0000
  F   F3        1.0  0.07620  0.63392  0.30332  1.0000
  F   F4        1.0  0.08609  0.63838  0.79368  1.0000
  F   F5        1.0  0.33301  0.14795  0.29434  1.0000
  F   F6        1.0  0.33407  0.13853  0.79708  1.0000
  F   F7        1.0  0.33310  0.63187  0.29887  1.0000
  F   F8        1.0  0.32827  0.63936  0.80196  1.0000
  F   F9        1.0  0.57739  0.13008  0.29867  1.0000
  F   F10       1.0  0.58968  0.14513  0.79009  1.0000
  F   F11       1.0  0.58394  0.63019  0.29283  1.0000
  F   F12       1.0  0.57824  0.62770  0.80853  1.0000
  F   F13       1.0  0.82791  0.12117  0.30492  1.0000
  F   F14       1.0  0.82864  0.13195  0.80430  1.0000
  F   F15       1.0  0.82981  0.64160  0.30287  1.0000
  F   F16       1.0  0.82278  0.62984  0.81071  1.0000
  F   F17       1.0  0.18938  0.35169  0.43720  1.0000
  F   F18       1.0  0.17731  0.33336  0.95328  1.0000
  F   F19       1.0  0.19071  0.83581  0.43876  1.0000
  F   F20       1.0  0.19120  0.85101  0.93092  1.0000
  F   F21       1.0  0.43569  0.35538  0.44188  1.0000
  F   F22       1.0  0.44298  0.33966  0.94084  1.0000
  F   F23       1.0  0.44408  0.86068  0.43264  1.0000
  F   F24       1.0  0.43586  0.83784  0.93726  1.0000
  F   F25       1.0  0.67481  0.34788  0.45362  1.0000
  F   F26       1.0  0.69237  0.35330  0.94336  1.0000
  F   F27       1.0  0.68459  0.83568  0.45702  1.0000
  F   F28       1.0  0.68124  0.83553  0.95028  1.0000
  F   F29       1.0  0.93147  0.33215  0.44817  1.0000
  F   F30       1.0  0.94385  0.35111  0.93384  1.0000
  F   F31       1.0  0.93466  0.82926  0.45498  1.0000
  F   F32       1.0  0.92672  0.81874  0.96974  1.0000
  F   F33       1.0  0.16560  0.37651  0.20115  1.0000
  F   F34       1.0  0.16657  0.38115  0.69403  1.0000
  F   F35       1.0  0.16323  0.86596  0.20061  1.0000
  F   F36       1.0  0.16631  0.87902  0.69290  1.0000
  F   F37       1.0  0.42385  0.38367  0.18964  1.0000
  F   F38       1.0  0.41999  0.37030  0.70184  1.0000
  F   F39       1.0  0.42933  0.88464  0.18481  1.0000
  F   F40       1.0  0.41233  0.85975  0.70165  1.0000
  F   F41       1.0  0.67306  0.37547  0.19356  1.0000
  F   F42       1.0  0.66968  0.36009  0.70690  1.0000
  F   F43       1.0  0.66634  0.86083  0.20229  1.0000
  F   F44       1.0  0.67377  0.88338  0.70248  1.0000
  F   F45       1.0  0.91598  0.35850  0.20477  1.0000
  F   F46       1.0  0.92504  0.39584  0.68044  1.0000
  F   F47       1.0  0.92177  0.87206  0.18905  1.0000
  F   F48       1.0  0.91355  0.86693  0.69804  1.0000
  F   F49       1.0  0.06525  0.16644  0.04398  1.0000
  F   F50       1.0  0.08084  0.17083  0.53528  1.0000
  F   F51       1.0  0.06128  0.65914  0.05863  1.0000
  F   F52       1.0  0.06279  0.64403  0.56267  1.0000
  F   F53       1.0  0.31800  0.16226  0.04966  1.0000
  F   F54       1.0  0.31008  0.15251  0.56638  1.0000
  F   F55       1.0  0.31283  0.65558  0.05816  1.0000
  F   F56       1.0  0.31593  0.65743  0.55879  1.0000
  F   F57       1.0  0.56684  0.15728  0.05196  1.0000
  F   F58       1.0  0.55925  0.14446  0.55473  1.0000
  F   F59       1.0  0.55512  0.64973  0.06914  1.0000
  F   F60       1.0  0.56250  0.66193  0.55740  1.0000
  F   F61       1.0  0.81924  0.16851  0.04781  1.0000
  F   F62       1.0  0.81039  0.13476  0.56251  1.0000
  F   F63       1.0  0.80510  0.63413  0.07327  1.0000
  F   F64       1.0  0.81457  0.65853  0.55403  1.0000
  F   F65       1.0  0.21427  0.21745  0.20620  1.0000
  F   F66       1.0  0.19498  0.20240  0.69679  1.0000
  F   F67       1.0  0.20639  0.69797  0.20696  1.0000
  F   F68       1.0  0.20566  0.70052  0.71643  1.0000
  F   F69       1.0  0.45661  0.21497  0.21005  1.0000
  F   F70       1.0  0.46475  0.21761  0.71419  1.0000
  F   F71       1.0  0.44612  0.71674  0.22492  1.0000
  F   F72       1.0  0.46494  0.70458  0.68979  1.0000
  F   F73       1.0  0.71609  0.19418  0.21620  1.0000
  F   F74       1.0  0.70440  0.19906  0.71074  1.0000
  F   F75       1.0  0.70729  0.70023  0.21506  1.0000
  F   F76       1.0  0.69458  0.70017  0.71321  1.0000
  F   F77       1.0  0.94834  0.19311  0.20286  1.0000
  F   F78       1.0  0.95993  0.21303  0.71802  1.0000
  F   F79       1.0  0.94929  0.68732  0.22004  1.0000
  F   F80       1.0  0.96154  0.69970  0.69930  1.0000
  F   F81       1.0  0.15169  0.09574  0.04045  1.0000
  F   F82       1.0  0.15109  0.06066  0.51619  1.0000
  F   F83       1.0  0.15065  0.59012  0.03272  1.0000
  F   F84       1.0  0.14736  0.59253  0.53934  1.0000
  F   F85       1.0  0.40395  0.09518  0.03003  1.0000
  F   F86       1.0  0.39586  0.10622  0.54641  1.0000
  F   F87       1.0  0.39863  0.60785  0.01193  1.0000
  F   F88       1.0  0.39868  0.58362  0.56280  1.0000
  F   F89       1.0  0.64961  0.09346  0.04420  1.0000
  F   F90       1.0  0.64819  0.08570  0.52846  1.0000
  F   F91       1.0  0.64462  0.60715  0.03739  1.0000
  F   F92       1.0  0.64342  0.58315  0.54881  1.0000
  F   F93       1.0  0.89973  0.07601  0.04178  1.0000
  F   F94       1.0  0.89504  0.09514  0.55078  1.0000
  F   F95       1.0  0.89488  0.58718  0.05295  1.0000
  F   F96       1.0  0.89583  0.58598  0.54835  1.0000
  F   F97       1.0  0.15491  0.19437  0.14221  1.0000
  F   F98       1.0  0.15057  0.19102  0.59070  1.0000
  F   F99       1.0  0.15170  0.70630  0.11187  1.0000
  F   F100      1.0  0.15346  0.68631  0.63629  1.0000
  F   F101      1.0  0.40638  0.18377  0.13013  1.0000
  F   F102      1.0  0.40594  0.20805  0.62876  1.0000
  F   F103      1.0  0.40572  0.70638  0.11267  1.0000
  F   F104      1.0  0.39779  0.70984  0.61524  1.0000
  F   F105      1.0  0.65698  0.19071  0.14092  1.0000
  F   F106      1.0  0.65677  0.19051  0.61898  1.0000
  F   F107      1.0  0.65748  0.70583  0.11789  1.0000
  F   F108      1.0  0.64585  0.69425  0.63123  1.0000
  F   F109      1.0  0.89156  0.20276  0.11348  1.0000
  F   F110      1.0  0.90764  0.19640  0.64072  1.0000
  F   F111      1.0  0.89931  0.68213  0.14594  1.0000
  F   F112      1.0  0.90026  0.68405  0.65337  1.0000
  F   F113      1.0  0.09271  0.30660  0.36949  1.0000
  F   F114      1.0  0.09716  0.29414  0.88842  1.0000
  F   F115      1.0  0.09723  0.78746  0.38705  1.0000
  F   F116      1.0  0.09364  0.80802  0.86724  1.0000
  F   F117      1.0  0.34915  0.30040  0.38410  1.0000
  F   F118      1.0  0.34412  0.30411  0.87547  1.0000
  F   F119      1.0  0.34389  0.79810  0.35778  1.0000
  F   F120      1.0  0.35325  0.80479  0.90283  1.0000
  F   F121      1.0  0.60002  0.31064  0.37455  1.0000
  F   F122      1.0  0.59619  0.29234  0.87554  1.0000
  F   F123      1.0  0.59551  0.81516  0.37642  1.0000
  F   F124      1.0  0.60205  0.79864  0.88297  1.0000
  F   F125      1.0  0.84407  0.30212  0.37846  1.0000
  F   F126      1.0  0.85198  0.30570  0.84965  1.0000
  F   F127      1.0  0.84058  0.81016  0.36345  1.0000
  F   F128      1.0  0.85690  0.77622  0.89858  1.0000
  F   F129      1.0  0.07117  0.24595  0.14315  1.0000
  F   F130      1.0  0.05772  0.24102  0.66071  1.0000
  F   F131      1.0  0.06777  0.74687  0.14936  1.0000
  F   F132      1.0  0.07550  0.75713  0.62222  1.0000
  F   F133      1.0  0.31814  0.24937  0.14379  1.0000
  F   F134      1.0  0.32762  0.25578  0.62237  1.0000
  F   F135      1.0  0.32501  0.76382  0.11149  1.0000
  F   F136      1.0  0.30646  0.74964  0.65832  1.0000
  F   F137      1.0  0.56429  0.24917  0.13518  1.0000
  F   F138      1.0  0.57087  0.24971  0.62647  1.0000
  F   F139      1.0  0.57693  0.76165  0.11041  1.0000
  F   F140      1.0  0.55654  0.74655  0.67208  1.0000
  F   F141      1.0  0.80766  0.25179  0.15708  1.0000
  F   F142      1.0  0.82937  0.24713  0.61304  1.0000
  F   F143      1.0  0.80945  0.75000  0.12820  1.0000
  F   F144      1.0  0.82053  0.74561  0.63527  1.0000
  F   F145      1.0  0.12216  0.37527  0.10733  1.0000
  F   F146      1.0  0.12296  0.33469  0.61910  1.0000
  F   F147      1.0  0.12642  0.87998  0.09160  1.0000
  F   F148      1.0  0.12402  0.86584  0.60470  1.0000
  F   F149      1.0  0.38099  0.35452  0.09553  1.0000
  F   F150      1.0  0.37703  0.38114  0.60097  1.0000
  F   F151      1.0  0.37517  0.85865  0.13335  1.0000
  F   F152      1.0  0.37306  0.89555  0.58674  1.0000
  F   F153      1.0  0.62239  0.36596  0.11564  1.0000
  F   F154      1.0  0.62162  0.35573  0.62851  1.0000
  F   F155      1.0  0.62755  0.89213  0.08876  1.0000
  F   F156      1.0  0.62541  0.86363  0.62231  1.0000
  F   F157      1.0  0.87494  0.37487  0.10122  1.0000
  F   F158      1.0  0.87502  0.35034  0.62313  1.0000
  F   F159      1.0  0.87011  0.85920  0.12110  1.0000
  F   F160      1.0  0.87421  0.85947  0.59688  1.0000
  F   F161      1.0  0.17175  0.24021  0.38676  1.0000
  F   F162      1.0  0.19159  0.24643  0.84840  1.0000
  F   F163      1.0  0.18550  0.74684  0.34376  1.0000
  F   F164      1.0  0.17725  0.75311  0.86256  1.0000
  F   F165      1.0  0.43786  0.24461  0.37044  1.0000
  F   F166      1.0  0.43356  0.25863  0.85870  1.0000
  F   F167      1.0  0.42500  0.75477  0.38486  1.0000
  F   F168      1.0  0.44245  0.75955  0.83140  1.0000
  F   F169      1.0  0.69066  0.25433  0.34881  1.0000
  F   F170      1.0  0.68755  0.25110  0.87308  1.0000
  F   F171      1.0  0.68807  0.74704  0.36557  1.0000
  F   F172      1.0  0.68766  0.75686  0.84202  1.0000
  F   F173      1.0  0.92960  0.24289  0.35998  1.0000
  F   F174      1.0  0.92175  0.23950  0.88376  1.0000
  F   F175      1.0  0.93647  0.75445  0.34304  1.0000
  F   F176      1.0  0.93880  0.74359  0.85127  1.0000
  F   F177      1.0  0.12823  0.14884  0.35272  1.0000
  F   F178      1.0  0.12785  0.12320  0.89221  1.0000
  F   F179      1.0  0.12849  0.62750  0.38597  1.0000
  F   F180      1.0  0.12507  0.63032  0.89039  1.0000
  F   F181      1.0  0.37502  0.12677  0.39701  1.0000
  F   F182      1.0  0.37476  0.14170  0.89346  1.0000
  F   F183      1.0  0.37379  0.61036  0.42380  1.0000
  F   F184      1.0  0.37780  0.65611  0.86887  1.0000
  F   F185      1.0  0.62493  0.14671  0.36644  1.0000
  F   F186      1.0  0.62039  0.11900  0.91299  1.0000
  F   F187      1.0  0.62821  0.65011  0.37846  1.0000
  F   F188      1.0  0.62266  0.62390  0.90585  1.0000
  F   F189      1.0  0.87517  0.13119  0.39269  1.0000
  F   F190      1.0  0.87123  0.11278  0.91010  1.0000
  F   F191      1.0  0.87688  0.63071  0.39692  1.0000
  F   F192      1.0  0.87942  0.62200  0.88642  1.0000
  F   F193      1.0  0.99834  0.36015  0.08191  1.0000
  F   F194      1.0  0.01297  0.36282  0.57328  1.0000
  F   F195      1.0  0.01156  0.85028  0.08013  1.0000
  F   F196      1.0  0.01100  0.86167  0.56755  1.0000
  F   F197      1.0  0.25376  0.36684  0.07786  1.0000
  F   F198      1.0  0.25964  0.35456  0.59132  1.0000
  F   F199      1.0  0.25910  0.86599  0.07063  1.0000
  F   F200      1.0  0.25722  0.86826  0.57373  1.0000
  F   F201      1.0  0.51100  0.36654  0.06902  1.0000
  F   F202      1.0  0.50637  0.37541  0.56229  1.0000
  F   F203      1.0  0.50986  0.85721  0.07236  1.0000
  F   F204      1.0  0.50831  0.86681  0.56911  1.0000
  F   F205      1.0  0.75651  0.37111  0.06412  1.0000
  F   F206      1.0  0.75977  0.35349  0.58818  1.0000
  F   F207      1.0  0.75372  0.87563  0.07134  1.0000
  F   F208      1.0  0.75601  0.83939  0.58865  1.0000
  F   F209      1.0  0.06370  0.48564  0.18090  1.0000
  F   F210      1.0  0.08112  0.47247  0.65762  1.0000
  F   F211      1.0  0.06916  0.98873  0.17797  1.0000
  F   F212      1.0  0.07146  0.98265  0.66580  1.0000
  F   F213      1.0  0.32253  0.48766  0.16005  1.0000
  F   F214      1.0  0.31758  0.48060  0.69267  1.0000
  F   F215      1.0  0.32337  0.99842  0.16004  1.0000
  F   F216      1.0  0.31382  0.98324  0.68386  1.0000
  F   F217      1.0  0.56802  0.48557  0.17993  1.0000
  F   F218      1.0  0.56951  0.48246  0.65729  1.0000
  F   F219      1.0  0.56719  0.98749  0.18238  1.0000
  F   F220      1.0  0.57222  0.98156  0.66602  1.0000
  F   F221      1.0  0.81327  0.46773  0.19879  1.0000
  F   F222      1.0  0.82120  0.47837  0.66443  1.0000
  F   F223      1.0  0.82149  0.97888  0.17623  1.0000
  F   F224      1.0  0.81618  0.97600  0.68344  1.0000
  F   F225      1.0  0.23699  0.13666  0.43913  1.0000
  F   F226      1.0  0.24366  0.13899  0.92833  1.0000
  F   F227      1.0  0.24335  0.64380  0.41521  1.0000
  F   F228      1.0  0.23956  0.65451  0.91938  1.0000
  F   F229      1.0  0.49148  0.13216  0.44825  1.0000
  F   F230      1.0  0.49408  0.14586  0.91722  1.0000
  F   F231      1.0  0.49437  0.64231  0.42171  1.0000
  F   F232      1.0  0.48854  0.63653  0.92284  1.0000
  F   F233      1.0  0.74475  0.12761  0.43010  1.0000
  F   F234      1.0  0.74384  0.11950  0.94003  1.0000
  F   F235      1.0  0.73964  0.61707  0.45302  1.0000
  F   F236      1.0  0.74375  0.63743  0.94693  1.0000
  F   F237      1.0  0.99393  0.12961  0.43154  1.0000
  F   F238      1.0  0.99160  0.14450  0.92124  1.0000
  F   F239      1.0  0.98921  0.62378  0.44309  1.0000
  F   F240      1.0  0.99529  0.62434  0.91492  1.0000
  F   F241      1.0  0.18856  0.02178  0.30796  1.0000
  F   F242      1.0  0.19022  0.02133  0.82977  1.0000
  F   F243      1.0  0.19270  0.51294  0.31208  1.0000
  F   F244      1.0  0.17988  0.51937  0.82246  1.0000
  F   F245      1.0  0.42945  0.01508  0.33460  1.0000
  F   F246      1.0  0.42627  0.02670  0.82869  1.0000
  F   F247      1.0  0.43376  0.52539  0.30633  1.0000
  F   F248      1.0  0.43344  0.51942  0.82705  1.0000
  F   F249      1.0  0.67729  0.00700  0.34329  1.0000
  F   F250      1.0  0.68069  0.01694  0.81782  1.0000
  F   F251      1.0  0.68046  0.52807  0.31121  1.0000
  F   F252      1.0  0.68449  0.52470  0.80470  1.0000
  F   F253      1.0  0.93130  0.00161  0.34553  1.0000
  F   F254      1.0  0.92513  0.00914  0.82432  1.0000
  F   F255      1.0  0.92770  0.50611  0.34281  1.0000
  F   F256      1.0  0.93851  0.51349  0.81060  1.0000
  F   F257      1.0  0.00028  0.25312  0.99277  1.0000
  F   F258      1.0  0.00062  0.24617  0.50441  1.0000
  F   F259      1.0  0.00025  0.74321  0.99352  1.0000
  F   F260      1.0  0.00382  0.74064  0.49856  1.0000
  F   F261      1.0  0.25118  0.26514  0.99212  1.0000
  F   F262      1.0  0.25612  0.26076  0.48869  1.0000
  F   F263      1.0  0.25617  0.76356  0.98993  1.0000
  F   F264      1.0  0.25362  0.74937  0.50219  1.0000
  F   F265      1.0  0.50255  0.25136  0.99514  1.0000
  F   F266      1.0  0.50392  0.25990  0.49578  1.0000
  F   F267      1.0  0.49994  0.75292  0.00034  1.0000
  F   F268      1.0  0.50690  0.76519  0.47993  1.0000
  F   F269      1.0  0.74945  0.24265  0.01963  1.0000
  F   F270      1.0  0.75409  0.26304  0.48615  1.0000
  F   F271      1.0  0.75980  0.77466  0.98732  1.0000
  F   F272      1.0  0.74621  0.74794  0.50015  1.0000
  F   F273      1.0  0.12507  0.00094  0.24191  1.0000
  F   F274      1.0  0.13426  0.01108  0.74220  1.0000
  F   F275      1.0  0.12301  0.50756  0.25455  1.0000
  F   F276      1.0  0.12412  0.50920  0.75973  1.0000
  F   F277      1.0  0.36328  0.98626  0.26251  1.0000
  F   F278      1.0  0.37657  0.01102  0.74900  1.0000
  F   F279      1.0  0.37275  0.50522  0.24023  1.0000
  F   F280      1.0  0.37912  0.50454  0.74916  1.0000
  F   F281      1.0  0.62539  0.00237  0.24435  1.0000
  F   F282      1.0  0.61681  0.00670  0.74752  1.0000
  F   F283      1.0  0.62659  0.50250  0.24139  1.0000
  F   F284      1.0  0.62482  0.49832  0.74400  1.0000
  F   F285      1.0  0.87973  0.00066  0.24716  1.0000
  F   F286      1.0  0.86061  0.97637  0.77942  1.0000
  F   F287      1.0  0.87250  0.48939  0.26335  1.0000
  F   F288      1.0  0.86754  0.50183  0.77021  1.0000
  F   F289      1.0  0.04589  0.02579  0.01832  1.0000
  F   F290      1.0  0.04486  0.03656  0.52066  1.0000
  F   F291      1.0  0.04059  0.52569  0.02965  1.0000
  F   F292      1.0  0.04719  0.52470  0.51894  1.0000
  F   F293      1.0  0.28851  0.03646  0.04038  1.0000
  F   F294      1.0  0.29834  0.02903  0.50629  1.0000
  F   F295      1.0  0.28984  0.53477  0.01708  1.0000
  F   F296      1.0  0.28301  0.54036  0.53385  1.0000
  F   F297      1.0  0.53936  0.03241  0.03136  1.0000
  F   F298      1.0  0.55084  0.02538  0.50203  1.0000
  F   F299      1.0  0.54404  0.53120  0.02032  1.0000
  F   F300      1.0  0.53744  0.54249  0.51859  1.0000
  F   F301      1.0  0.79319  0.02888  0.03244  1.0000
  F   F302      1.0  0.79013  0.01683  0.52737  1.0000
  F   F303      1.0  0.80509  0.51454  0.01808  1.0000
  F   F304      1.0  0.79294  0.52547  0.52734  1.0000
  F   F305      1.0  0.23327  0.40754  0.22570  1.0000
  F   F306      1.0  0.23218  0.42378  0.73204  1.0000
  F   F307      1.0  0.23744  0.90518  0.23759  1.0000
  F   F308      1.0  0.23780  0.90094  0.72538  1.0000
  F   F309      1.0  0.48640  0.40725  0.23825  1.0000
  F   F310      1.0  0.48298  0.42460  0.73270  1.0000
  F   F311      1.0  0.49014  0.91652  0.23505  1.0000
  F   F312      1.0  0.48890  0.90990  0.71932  1.0000
  F   F313      1.0  0.72951  0.43123  0.21889  1.0000
  F   F314      1.0  0.73487  0.40827  0.72814  1.0000
  F   F315      1.0  0.72721  0.91668  0.22582  1.0000
  F   F316      1.0  0.73863  0.90620  0.73558  1.0000
  F   F317      1.0  0.98325  0.41923  0.22460  1.0000
  F   F318      1.0  0.98828  0.40863  0.72561  1.0000
  F   F319      1.0  0.98454  0.91150  0.23356  1.0000
  F   F320      1.0  0.97908  0.90880  0.72017  1.0000
  F   F321      1.0  0.20392  0.47579  0.48895  1.0000
  F   F322      1.0  0.20669  0.46362  0.97640  1.0000
  F   F323      1.0  0.21307  0.96305  0.46577  1.0000
  F   F324      1.0  0.21392  0.96907  0.97424  1.0000
  F   F325      1.0  0.45526  0.48263  0.47667  1.0000
  F   F326      1.0  0.45996  0.47186  0.97386  1.0000
  F   F327      1.0  0.45568  0.97813  0.48552  1.0000
  F   F328      1.0  0.46272  0.95645  0.97434  1.0000
  F   F329      1.0  0.70417  0.46142  0.48501  1.0000
  F   F330      1.0  0.69877  0.47832  0.98491  1.0000
  F   F331      1.0  0.70967  0.96682  0.48399  1.0000
  F   F332      1.0  0.70992  0.96236  0.96851  1.0000
  F   F333      1.0  0.96402  0.45840  0.47337  1.0000
  F   F334      1.0  0.95444  0.47907  0.97554  1.0000
  F   F335      1.0  0.95794  0.96979  0.47434  1.0000
  F   F336      1.0  0.95061  0.95534  0.98733  1.0000
  F   F337      1.0  0.01624  0.10184  0.25383  1.0000
  F   F338      1.0  0.01135  0.06475  0.78672  1.0000
  F   F339      1.0  0.01486  0.59676  0.27884  1.0000
  F   F340      1.0  0.02254  0.57597  0.77791  1.0000
  F   F341      1.0  0.27218  0.08680  0.28002  1.0000
  F   F342      1.0  0.26583  0.09863  0.78453  1.0000
  F   F343      1.0  0.26892  0.57574  0.28353  1.0000
  F   F344      1.0  0.26540  0.57602  0.78288  1.0000
  F   F345      1.0  0.51125  0.08051  0.29511  1.0000
  F   F346      1.0  0.51958  0.08149  0.77572  1.0000
  F   F347      1.0  0.51214  0.59415  0.27311  1.0000
  F   F348      1.0  0.51563  0.57191  0.77053  1.0000
  F   F349      1.0  0.76762  0.07293  0.27392  1.0000
  F   F350      1.0  0.75972  0.07877  0.78683  1.0000
  F   F351      1.0  0.76580  0.59556  0.28094  1.0000
  F   F352      1.0  0.76361  0.58186  0.77681  1.0000
  F   F353      1.0  0.10608  0.40763  0.45342  1.0000
  F   F354      1.0  0.09363  0.40992  0.96648  1.0000
  F   F355      1.0  0.10550  0.90767  0.44494  1.0000
  F   F356      1.0  0.10493  0.90568  0.95917  1.0000
  F   F357      1.0  0.35015  0.41053  0.45590  1.0000
  F   F358      1.0  0.35068  0.41016  0.96213  1.0000
  F   F359      1.0  0.35229  0.88717  0.45655  1.0000
  F   F360      1.0  0.35068  0.93234  0.96948  1.0000
  F   F361      1.0  0.59836  0.41514  0.46882  1.0000
  F   F362      1.0  0.60511  0.40927  0.95227  1.0000
  F   F363      1.0  0.60086  0.88542  0.47827  1.0000
  F   F364      1.0  0.60160  0.92563  0.95208  1.0000
  F   F365      1.0  0.85145  0.40152  0.46574  1.0000
  F   F366      1.0  0.85336  0.39645  0.95686  1.0000
  F   F367      1.0  0.85109  0.89470  0.46321  1.0000
  F   F368      1.0  0.84630  0.89942  0.97603  1.0000
  F   F369      1.0  0.04107  0.29331  0.28972  1.0000
  F   F370      1.0  0.05003  0.29878  0.78625  1.0000
  F   F371      1.0  0.04787  0.80827  0.28236  1.0000
  F   F372      1.0  0.04064  0.78493  0.78413  1.0000
  F   F373      1.0  0.30381  0.30938  0.27886  1.0000
  F   F374      1.0  0.29165  0.30162  0.78392  1.0000
  F   F375      1.0  0.29686  0.79673  0.27672  1.0000
  F   F376      1.0  0.30426  0.80219  0.79471  1.0000
  F   F377      1.0  0.54389  0.28899  0.29128  1.0000
  F   F378      1.0  0.54768  0.30157  0.77546  1.0000
  F   F379      1.0  0.55483  0.80158  0.27447  1.0000
  F   F380      1.0  0.54630  0.81349  0.80511  1.0000
  F   F381      1.0  0.79391  0.28802  0.29894  1.0000
  F   F382      1.0  0.78807  0.29194  0.79227  1.0000
  F   F383      1.0  0.78513  0.79364  0.29505  1.0000
  F   F384      1.0  0.80386  0.79683  0.78534  1.0000
