data_image0
_chemical_formula_structural       Hf96F384
_chemical_formula_sum              "Hf96 F384"
_cell_length_a       31.0411
_cell_length_b       15.5213
_cell_length_c       15.515
_cell_angle_alpha    63.342
_cell_angle_beta     63.342
_cell_angle_gamma    80.1625

_space_group_name_H-M_alt    "P 1"
_space_group_IT_number       1

loop_
  _space_group_symop_operation_xyz
  'x, y, z'

loop_
  _atom_site_type_symbol
  _atom_site_label
  _atom_site_symmetry_multiplicity
  _atom_site_fract_x
  _atom_site_fract_y
  _atom_site_fract_z
  _atom_site_occupancy
  Hf  Hf1       1.0  0.20157  0.12193  0.36400  1.0000
  Hf  Hf2       1.0  0.19800  0.12091  0.86283  1.0000
  Hf  Hf3       1.0  0.19997  0.61315  0.37399  1.0000
  Hf  Hf4       1.0  0.19445  0.61128  0.87205  1.0000
  Hf  Hf5       1.0  0.44321  0.10620  0.37089  1.0000
  Hf  Hf6       1.0  0.44463  0.10538  0.87503  1.0000
  Hf  Hf7       1.0  0.44776  0.60848  0.37230  1.0000
  Hf  Hf8       1.0  0.44670  0.60442  0.87738  1.0000
  Hf  Hf9       1.0  0.69538  0.10171  0.38797  1.0000
  Hf  Hf10      1.0  0.69536  0.10056  0.88342  1.0000
  Hf  Hf11      1.0  0.69824  0.59831  0.37217  1.0000
  Hf  Hf12      1.0  0.69541  0.61364  0.87126  1.0000
  Hf  Hf13      1.0  0.94477  0.10288  0.38710  1.0000
  Hf  Hf14      1.0  0.94657  0.10659  0.87613  1.0000
  Hf  Hf15      1.0  0.94575  0.59722  0.39099  1.0000
  Hf  Hf16      1.0  0.94704  0.60493  0.87513  1.0000
  Hf  Hf17      1.0  0.05263  0.39709  0.12544  1.0000
  Hf  Hf18      1.0  0.04973  0.39162  0.63876  1.0000
  Hf  Hf19      1.0  0.05839  0.89380  0.12095  1.0000
  Hf  Hf20      1.0  0.05197  0.89088  0.63102  1.0000
  Hf  Hf21      1.0  0.30640  0.39619  0.11765  1.0000
  Hf  Hf22      1.0  0.30248  0.38980  0.63660  1.0000
  Hf  Hf23      1.0  0.30389  0.89884  0.10960  1.0000
  Hf  Hf24      1.0  0.30668  0.89547  0.61888  1.0000
  Hf  Hf25      1.0  0.55210  0.38836  0.13138  1.0000
  Hf  Hf26      1.0  0.55519  0.39592  0.62178  1.0000
  Hf  Hf27      1.0  0.55173  0.88972  0.12052  1.0000
  Hf  Hf28      1.0  0.55464  0.88920  0.62350  1.0000
  Hf  Hf29      1.0  0.80507  0.38931  0.12520  1.0000
  Hf  Hf30      1.0  0.80301  0.38138  0.62818  1.0000
  Hf  Hf31      1.0  0.79850  0.89734  0.13594  1.0000
  Hf  Hf32      1.0  0.80402  0.88047  0.63238  1.0000
  Hf  Hf33      1.0  0.05464  0.17572  0.42487  1.0000
  Hf  Hf34      1.0  0.05414  0.18430  0.92387  1.0000
  Hf  Hf35      1.0  0.05776  0.68290  0.41549  1.0000
  Hf  Hf36      1.0  0.05166  0.68354  0.92151  1.0000
  Hf  Hf37      1.0  0.30589  0.19114  0.40884  1.0000
  Hf  Hf38      1.0  0.30600  0.18934  0.91019  1.0000
  Hf  Hf39      1.0  0.30368  0.67900  0.41582  1.0000
  Hf  Hf40      1.0  0.30666  0.68540  0.91316  1.0000
  Hf  Hf41      1.0  0.55493  0.18529  0.42024  1.0000
  Hf  Hf42      1.0  0.55732  0.17732  0.91067  1.0000
  Hf  Hf43      1.0  0.55481  0.68164  0.42088  1.0000
  Hf  Hf44      1.0  0.55367  0.68156  0.91849  1.0000
  Hf  Hf45      1.0  0.80609  0.17505  0.42374  1.0000
  Hf  Hf46      1.0  0.80034  0.17901  0.92720  1.0000
  Hf  Hf47      1.0  0.80333  0.66377  0.42747  1.0000
  Hf  Hf48      1.0  0.80795  0.67835  0.91612  1.0000
  Hf  Hf49      1.0  0.16343  0.39121  0.32386  1.0000
  Hf  Hf50      1.0  0.15942  0.38956  0.83094  1.0000
  Hf  Hf51      1.0  0.16411  0.89840  0.31940  1.0000
  Hf  Hf52      1.0  0.15978  0.89129  0.82421  1.0000
  Hf  Hf53      1.0  0.40884  0.38508  0.33658  1.0000
  Hf  Hf54      1.0  0.41382  0.39319  0.82392  1.0000
  Hf  Hf55      1.0  0.41084  0.88095  0.33212  1.0000
  Hf  Hf56      1.0  0.41342  0.89353  0.82388  1.0000
  Hf  Hf57      1.0  0.65730  0.38817  0.33098  1.0000
  Hf  Hf58      1.0  0.65744  0.38796  0.83101  1.0000
  Hf  Hf59      1.0  0.65584  0.89401  0.32991  1.0000
  Hf  Hf60      1.0  0.65844  0.88718  0.83574  1.0000
  Hf  Hf61      1.0  0.90830  0.38085  0.34112  1.0000
  Hf  Hf62      1.0  0.90695  0.37695  0.83954  1.0000
  Hf  Hf63      1.0  0.91626  0.89098  0.32752  1.0000
  Hf  Hf64      1.0  0.90495  0.88117  0.85032  1.0000
  Hf  Hf65      1.0  0.19344  0.32016  0.08333  1.0000
  Hf  Hf66      1.0  0.19588  0.32162  0.57678  1.0000
  Hf  Hf67      1.0  0.19583  0.82422  0.06959  1.0000
  Hf  Hf68      1.0  0.19429  0.83006  0.57315  1.0000
  Hf  Hf69      1.0  0.44351  0.30708  0.08272  1.0000
  Hf  Hf70      1.0  0.44314  0.32294  0.58434  1.0000
  Hf  Hf71      1.0  0.44511  0.82695  0.07304  1.0000
  Hf  Hf72      1.0  0.44104  0.82281  0.58288  1.0000
  Hf  Hf73      1.0  0.69262  0.31265  0.08746  1.0000
  Hf  Hf74      1.0  0.69205  0.32254  0.58560  1.0000
  Hf  Hf75      1.0  0.69518  0.81131  0.08735  1.0000
  Hf  Hf76      1.0  0.69681  0.81378  0.57920  1.0000
  Hf  Hf77      1.0  0.94498  0.31246  0.09251  1.0000
  Hf  Hf78      1.0  0.94304  0.31469  0.59265  1.0000
  Hf  Hf79      1.0  0.93989  0.80626  0.10111  1.0000
  Hf  Hf80      1.0  0.94378  0.81809  0.58474  1.0000
  Hf  Hf81      1.0  0.09244  0.11909  0.15995  1.0000
  Hf  Hf82      1.0  0.09050  0.12295  0.66902  1.0000
  Hf  Hf83      1.0  0.09096  0.61516  0.16663  1.0000
  Hf  Hf84      1.0  0.09326  0.61354  0.66198  1.0000
  Hf  Hf85      1.0  0.34218  0.11456  0.16122  1.0000
  Hf  Hf86      1.0  0.34447  0.11942  0.65772  1.0000
  Hf  Hf87      1.0  0.34129  0.61520  0.16272  1.0000
  Hf  Hf88      1.0  0.34560  0.61247  0.66007  1.0000
  Hf  Hf89      1.0  0.59036  0.11416  0.15500  1.0000
  Hf  Hf90      1.0  0.59033  0.10225  0.66741  1.0000
  Hf  Hf91      1.0  0.58940  0.61977  0.16446  1.0000
  Hf  Hf92      1.0  0.58840  0.61215  0.67170  1.0000
  Hf  Hf93      1.0  0.84301  0.11630  0.16937  1.0000
  Hf  Hf94      1.0  0.83931  0.10446  0.67146  1.0000
  Hf  Hf95      1.0  0.84326  0.61696  0.16412  1.0000
  Hf  Hf96      1.0  0.84091  0.60654  0.67205  1.0000
  F   F1        1.0  0.07999  0.13756  0.30429  1.0000
  F   F2        1.0  0.08256  0.14110  0.79707  1.0000
  F   F3        1.0  0.08084  0.62133  0.30006  1.0000
  F   F4        1.0  0.08381  0.63779  0.79390  1.0000
  F   F5        1.0  0.33152  0.14924  0.28997  1.0000
  F   F6        1.0  0.33160  0.13696  0.79613  1.0000
  F   F7        1.0  0.32389  0.62328  0.31055  1.0000
  F   F8        1.0  0.33958  0.64908  0.79092  1.0000
  F   F9        1.0  0.58447  0.15098  0.29802  1.0000
  F   F10       1.0  0.57218  0.10868  0.81519  1.0000
  F   F11       1.0  0.57453  0.64783  0.29229  1.0000
  F   F12       1.0  0.57365  0.62806  0.80694  1.0000
  F   F13       1.0  0.82990  0.12442  0.30263  1.0000
  F   F14       1.0  0.82825  0.11857  0.82433  1.0000
  F   F15       1.0  0.82629  0.64175  0.29311  1.0000
  F   F16       1.0  0.83368  0.60540  0.82112  1.0000
  F   F17       1.0  0.19647  0.33726  0.44144  1.0000
  F   F18       1.0  0.18262  0.33956  0.94690  1.0000
  F   F19       1.0  0.20095  0.85839  0.41397  1.0000
  F   F20       1.0  0.18924  0.84682  0.93626  1.0000
  F   F21       1.0  0.44000  0.34068  0.44188  1.0000
  F   F22       1.0  0.43951  0.33538  0.93561  1.0000
  F   F23       1.0  0.43991  0.84952  0.43449  1.0000
  F   F24       1.0  0.43795  0.85242  0.94201  1.0000
  F   F25       1.0  0.67933  0.34370  0.45394  1.0000
  F   F26       1.0  0.68586  0.33912  0.94214  1.0000
  F   F27       1.0  0.68224  0.83408  0.45656  1.0000
  F   F28       1.0  0.68597  0.83202  0.95123  1.0000
  F   F29       1.0  0.93026  0.33612  0.45821  1.0000
  F   F30       1.0  0.93071  0.32118  0.95716  1.0000
  F   F31       1.0  0.95085  0.85780  0.43413  1.0000
  F   F32       1.0  0.93070  0.83541  0.97237  1.0000
  F   F33       1.0  0.17372  0.36699  0.19719  1.0000
  F   F34       1.0  0.15622  0.36617  0.70566  1.0000
  F   F35       1.0  0.18091  0.88500  0.17286  1.0000
  F   F36       1.0  0.16995  0.87726  0.69156  1.0000
  F   F37       1.0  0.41579  0.34918  0.20140  1.0000
  F   F38       1.0  0.42239  0.39037  0.68111  1.0000
  F   F39       1.0  0.42361  0.88042  0.18680  1.0000
  F   F40       1.0  0.42240  0.87351  0.70128  1.0000
  F   F41       1.0  0.66993  0.37169  0.19866  1.0000
  F   F42       1.0  0.66996  0.38436  0.68934  1.0000
  F   F43       1.0  0.66980  0.86540  0.20400  1.0000
  F   F44       1.0  0.67166  0.86396  0.70397  1.0000
  F   F45       1.0  0.91933  0.37287  0.20555  1.0000
  F   F46       1.0  0.91231  0.36514  0.71238  1.0000
  F   F47       1.0  0.92242  0.85426  0.21864  1.0000
  F   F48       1.0  0.91927  0.88067  0.69313  1.0000
  F   F49       1.0  0.04786  0.15054  0.07967  1.0000
  F   F50       1.0  0.06266  0.16147  0.55423  1.0000
  F   F51       1.0  0.06607  0.66918  0.05561  1.0000
  F   F52       1.0  0.07052  0.66312  0.54218  1.0000
  F   F53       1.0  0.31587  0.16142  0.04623  1.0000
  F   F54       1.0  0.31920  0.16872  0.54640  1.0000
  F   F55       1.0  0.31448  0.65166  0.05785  1.0000
  F   F56       1.0  0.31495  0.65502  0.55668  1.0000
  F   F57       1.0  0.56037  0.14220  0.04895  1.0000
  F   F58       1.0  0.56011  0.15518  0.55925  1.0000
  F   F59       1.0  0.57888  0.68081  0.02586  1.0000
  F   F60       1.0  0.56248  0.65893  0.55578  1.0000
  F   F61       1.0  0.81209  0.15298  0.06457  1.0000
  F   F62       1.0  0.81264  0.14574  0.55333  1.0000
  F   F63       1.0  0.81614  0.65732  0.05606  1.0000
  F   F64       1.0  0.81241  0.63944  0.56500  1.0000
  F   F65       1.0  0.20335  0.20851  0.20718  1.0000
  F   F66       1.0  0.20737  0.20190  0.70713  1.0000
  F   F67       1.0  0.19663  0.71664  0.19565  1.0000
  F   F68       1.0  0.20040  0.70936  0.71735  1.0000
  F   F69       1.0  0.45382  0.20233  0.20470  1.0000
  F   F70       1.0  0.44945  0.20020  0.70030  1.0000
  F   F71       1.0  0.45862  0.71683  0.20272  1.0000
  F   F72       1.0  0.43811  0.70384  0.72055  1.0000
  F   F73       1.0  0.69009  0.19052  0.22149  1.0000
  F   F74       1.0  0.70288  0.20876  0.72297  1.0000
  F   F75       1.0  0.70315  0.69216  0.21167  1.0000
  F   F76       1.0  0.70699  0.70267  0.70934  1.0000
  F   F77       1.0  0.95837  0.20367  0.22662  1.0000
  F   F78       1.0  0.95301  0.20340  0.71149  1.0000
  F   F79       1.0  0.95818  0.70178  0.23431  1.0000
  F   F80       1.0  0.95802  0.70515  0.71418  1.0000
  F   F81       1.0  0.14738  0.12621  0.01388  1.0000
  F   F82       1.0  0.14245  0.09119  0.55883  1.0000
  F   F83       1.0  0.15480  0.59223  0.02403  1.0000
  F   F84       1.0  0.15283  0.58412  0.53580  1.0000
  F   F85       1.0  0.39929  0.09303  0.02557  1.0000
  F   F86       1.0  0.40498  0.10294  0.52515  1.0000
  F   F87       1.0  0.39940  0.59508  0.05941  1.0000
  F   F88       1.0  0.39356  0.57336  0.53449  1.0000
  F   F89       1.0  0.64481  0.07964  0.03438  1.0000
  F   F90       1.0  0.65122  0.08158  0.55848  1.0000
  F   F91       1.0  0.65240  0.59863  0.03089  1.0000
  F   F92       1.0  0.64568  0.58991  0.54837  1.0000
  F   F93       1.0  0.90021  0.11455  0.04071  1.0000
  F   F94       1.0  0.89915  0.08104  0.53610  1.0000
  F   F95       1.0  0.89959  0.59059  0.03935  1.0000
  F   F96       1.0  0.89968  0.59066  0.54783  1.0000
  F   F97       1.0  0.14910  0.20096  0.13231  1.0000
  F   F98       1.0  0.15016  0.20914  0.61341  1.0000
  F   F99       1.0  0.15306  0.68967  0.10903  1.0000
  F   F100      1.0  0.15487  0.72283  0.59846  1.0000
  F   F101      1.0  0.40203  0.19442  0.11312  1.0000
  F   F102      1.0  0.39990  0.20482  0.61775  1.0000
  F   F103      1.0  0.39985  0.71037  0.10932  1.0000
  F   F104      1.0  0.40663  0.70023  0.58145  1.0000
  F   F105      1.0  0.65135  0.18803  0.10998  1.0000
  F   F106      1.0  0.65391  0.20149  0.63361  1.0000
  F   F107      1.0  0.64937  0.69954  0.12800  1.0000
  F   F108      1.0  0.64912  0.69066  0.63278  1.0000
  F   F109      1.0  0.90360  0.19014  0.14717  1.0000
  F   F110      1.0  0.89915  0.18508  0.63282  1.0000
  F   F111      1.0  0.90489  0.68395  0.15026  1.0000
  F   F112      1.0  0.89533  0.70240  0.63898  1.0000
  F   F113      1.0  0.09947  0.28859  0.37237  1.0000
  F   F114      1.0  0.10055  0.28152  0.89408  1.0000
  F   F115      1.0  0.11059  0.80769  0.35941  1.0000
  F   F116      1.0  0.09952  0.80421  0.87504  1.0000
  F   F117      1.0  0.34804  0.30110  0.36556  1.0000
  F   F118      1.0  0.35546  0.30954  0.86047  1.0000
  F   F119      1.0  0.35069  0.81665  0.36748  1.0000
  F   F120      1.0  0.34921  0.80096  0.87557  1.0000
  F   F121      1.0  0.59246  0.30377  0.37547  1.0000
  F   F122      1.0  0.60503  0.30691  0.86136  1.0000
  F   F123      1.0  0.59831  0.80109  0.37158  1.0000
  F   F124      1.0  0.58999  0.81539  0.87093  1.0000
  F   F125      1.0  0.83949  0.30485  0.39704  1.0000
  F   F126      1.0  0.84575  0.28531  0.89165  1.0000
  F   F127      1.0  0.83576  0.79022  0.37052  1.0000
  F   F128      1.0  0.84958  0.80960  0.86541  1.0000
  F   F129      1.0  0.06935  0.26493  0.13029  1.0000
  F   F130      1.0  0.05728  0.26238  0.63639  1.0000
  F   F131      1.0  0.05971  0.74948  0.16059  1.0000
  F   F132      1.0  0.06954  0.75657  0.63438  1.0000
  F   F133      1.0  0.31456  0.25274  0.13915  1.0000
  F   F134      1.0  0.30393  0.24932  0.66190  1.0000
  F   F135      1.0  0.30845  0.75765  0.14156  1.0000
  F   F136      1.0  0.31488  0.76033  0.62726  1.0000
  F   F137      1.0  0.55894  0.24124  0.13705  1.0000
  F   F138      1.0  0.56749  0.24330  0.64991  1.0000
  F   F139      1.0  0.56557  0.75831  0.13864  1.0000
  F   F140      1.0  0.57103  0.75241  0.63637  1.0000
  F   F141      1.0  0.81251  0.25023  0.14440  1.0000
  F   F142      1.0  0.81342  0.24426  0.64201  1.0000
  F   F143      1.0  0.82256  0.74716  0.13290  1.0000
  F   F144      1.0  0.81289  0.73824  0.64612  1.0000
  F   F145      1.0  0.12515  0.38320  0.10804  1.0000
  F   F146      1.0  0.12216  0.36431  0.59887  1.0000
  F   F147      1.0  0.12265  0.85652  0.12164  1.0000
  F   F148      1.0  0.12487  0.88910  0.58562  1.0000
  F   F149      1.0  0.37403  0.35977  0.10759  1.0000
  F   F150      1.0  0.37557  0.36913  0.60606  1.0000
  F   F151      1.0  0.36864  0.86894  0.11253  1.0000
  F   F152      1.0  0.37243  0.85599  0.62857  1.0000
  F   F153      1.0  0.62088  0.35161  0.12659  1.0000
  F   F154      1.0  0.62321  0.38634  0.60035  1.0000
  F   F155      1.0  0.62643  0.87225  0.09963  1.0000
  F   F156      1.0  0.62410  0.87667  0.61244  1.0000
  F   F157      1.0  0.88132  0.37146  0.09165  1.0000
  F   F158      1.0  0.87107  0.34799  0.62412  1.0000
  F   F159      1.0  0.86936  0.87199  0.11783  1.0000
  F   F160      1.0  0.87631  0.86919  0.60312  1.0000
  F   F161      1.0  0.18051  0.25150  0.35867  1.0000
  F   F162      1.0  0.19678  0.26489  0.83137  1.0000
  F   F163      1.0  0.19658  0.75001  0.34681  1.0000
  F   F164      1.0  0.18417  0.75104  0.84909  1.0000
  F   F165      1.0  0.43441  0.24204  0.35191  1.0000
  F   F166      1.0  0.43585  0.24533  0.84676  1.0000
  F   F167      1.0  0.43868  0.74423  0.36474  1.0000
  F   F168      1.0  0.43175  0.74715  0.86961  1.0000
  F   F169      1.0  0.68211  0.25195  0.36476  1.0000
  F   F170      1.0  0.68164  0.23982  0.86691  1.0000
  F   F171      1.0  0.68263  0.74422  0.36116  1.0000
  F   F172      1.0  0.68256  0.74937  0.86982  1.0000
  F   F173      1.0  0.92239  0.24117  0.38342  1.0000
  F   F174      1.0  0.93815  0.24438  0.85982  1.0000
  F   F175      1.0  0.92501  0.74879  0.38703  1.0000
  F   F176      1.0  0.92928  0.74782  0.87580  1.0000
  F   F177      1.0  0.12801  0.12432  0.40509  1.0000
  F   F178      1.0  0.12850  0.13475  0.87995  1.0000
  F   F179      1.0  0.13043  0.63286  0.38493  1.0000
  F   F180      1.0  0.12048  0.62916  0.90082  1.0000
  F   F181      1.0  0.37546  0.13005  0.38632  1.0000
  F   F182      1.0  0.37559  0.12272  0.88841  1.0000
  F   F183      1.0  0.37565  0.63808  0.38027  1.0000
  F   F184      1.0  0.37508  0.61051  0.91400  1.0000
  F   F185      1.0  0.62258  0.11640  0.41522  1.0000
  F   F186      1.0  0.62613  0.11610  0.89365  1.0000
  F   F187      1.0  0.62182  0.62322  0.39801  1.0000
  F   F188      1.0  0.62518  0.64991  0.87325  1.0000
  F   F189      1.0  0.87912  0.12999  0.38355  1.0000
  F   F190      1.0  0.87769  0.10951  0.91099  1.0000
  F   F191      1.0  0.87133  0.61620  0.40287  1.0000
  F   F192      1.0  0.87647  0.63689  0.87897  1.0000
  F   F193      1.0  0.00409  0.37391  0.08130  1.0000
  F   F194      1.0  0.00152  0.36289  0.58468  1.0000
  F   F195      1.0  0.00496  0.86348  0.06743  1.0000
  F   F196      1.0  0.00546  0.86670  0.57659  1.0000
  F   F197      1.0  0.25738  0.37182  0.07321  1.0000
  F   F198      1.0  0.25313  0.36268  0.59299  1.0000
  F   F199      1.0  0.26486  0.87370  0.03624  1.0000
  F   F200      1.0  0.25495  0.87315  0.55817  1.0000
  F   F201      1.0  0.50853  0.37032  0.05896  1.0000
  F   F202      1.0  0.51163  0.36715  0.56570  1.0000
  F   F203      1.0  0.50844  0.85536  0.07433  1.0000
  F   F204      1.0  0.50231  0.84980  0.58792  1.0000
  F   F205      1.0  0.75440  0.34550  0.07646  1.0000
  F   F206      1.0  0.75800  0.35139  0.57362  1.0000
  F   F207      1.0  0.75671  0.83735  0.10946  1.0000
  F   F208      1.0  0.76198  0.86220  0.57287  1.0000
  F   F209      1.0  0.07267  0.49032  0.17455  1.0000
  F   F210      1.0  0.06117  0.48983  0.68158  1.0000
  F   F211      1.0  0.07247  0.99344  0.16272  1.0000
  F   F212      1.0  0.06638  0.97556  0.68892  1.0000
  F   F213      1.0  0.32099  0.48606  0.17390  1.0000
  F   F214      1.0  0.32176  0.47893  0.67848  1.0000
  F   F215      1.0  0.32282  0.98885  0.16057  1.0000
  F   F216      1.0  0.32321  0.99577  0.65805  1.0000
  F   F217      1.0  0.56418  0.49005  0.17308  1.0000
  F   F218      1.0  0.56476  0.48155  0.68520  1.0000
  F   F219      1.0  0.56802  0.97000  0.17362  1.0000
  F   F220      1.0  0.56095  0.97783  0.68933  1.0000
  F   F221      1.0  0.82752  0.48254  0.15822  1.0000
  F   F222      1.0  0.81597  0.47167  0.68220  1.0000
  F   F223      1.0  0.81845  0.99425  0.17760  1.0000
  F   F224      1.0  0.82322  0.97876  0.67718  1.0000
  F   F225      1.0  0.24287  0.15106  0.41437  1.0000
  F   F226      1.0  0.24171  0.16163  0.91609  1.0000
  F   F227      1.0  0.23948  0.62687  0.44776  1.0000
  F   F228      1.0  0.24735  0.65187  0.90213  1.0000
  F   F229      1.0  0.49426  0.13622  0.43277  1.0000
  F   F230      1.0  0.49036  0.15046  0.91740  1.0000
  F   F231      1.0  0.49001  0.62425  0.44086  1.0000
  F   F232      1.0  0.48934  0.63363  0.92962  1.0000
  F   F233      1.0  0.74312  0.13485  0.43414  1.0000
  F   F234      1.0  0.73910  0.12575  0.93564  1.0000
  F   F235      1.0  0.73827  0.62287  0.43537  1.0000
  F   F236      1.0  0.74420  0.63471  0.91518  1.0000
  F   F237      1.0  0.99380  0.13173  0.42626  1.0000
  F   F238      1.0  0.99332  0.14807  0.93672  1.0000
  F   F239      1.0  0.99694  0.63271  0.43010  1.0000
  F   F240      1.0  0.98965  0.63712  0.93292  1.0000
  F   F241      1.0  0.18727  0.02280  0.31402  1.0000
  F   F242      1.0  0.18189  0.03246  0.80253  1.0000
  F   F243      1.0  0.18106  0.51253  0.33233  1.0000
  F   F244      1.0  0.17950  0.52658  0.81749  1.0000
  F   F245      1.0  0.43717  0.02198  0.30581  1.0000
  F   F246      1.0  0.43305  0.01827  0.81431  1.0000
  F   F247      1.0  0.42717  0.51305  0.33573  1.0000
  F   F248      1.0  0.43880  0.51772  0.81510  1.0000
  F   F249      1.0  0.67739  0.01317  0.33230  1.0000
  F   F250      1.0  0.68889  0.01317  0.81918  1.0000
  F   F251      1.0  0.68518  0.51295  0.31105  1.0000
  F   F252      1.0  0.67480  0.51715  0.83855  1.0000
  F   F253      1.0  0.93564  0.01423  0.32724  1.0000
  F   F254      1.0  0.93089  0.00817  0.82121  1.0000
  F   F255      1.0  0.93249  0.52052  0.33118  1.0000
  F   F256      1.0  0.92769  0.51015  0.83019  1.0000
  F   F257      1.0  0.00343  0.27169  0.98649  1.0000
  F   F258      1.0  0.99651  0.23676  0.50123  1.0000
  F   F259      1.0  0.99542  0.74058  0.01048  1.0000
  F   F260      1.0  0.99875  0.73146  0.51446  1.0000
  F   F261      1.0  0.25603  0.27901  0.98927  1.0000
  F   F262      1.0  0.25568  0.26400  0.49280  1.0000
  F   F263      1.0  0.25039  0.75409  0.98949  1.0000
  F   F264      1.0  0.25490  0.74851  0.49392  1.0000
  F   F265      1.0  0.50590  0.24616  0.99393  1.0000
  F   F266      1.0  0.49888  0.25128  0.50411  1.0000
  F   F267      1.0  0.49687  0.74250  0.00900  1.0000
  F   F268      1.0  0.49765  0.74716  0.50371  1.0000
  F   F269      1.0  0.74489  0.22566  0.02110  1.0000
  F   F270      1.0  0.74730  0.25984  0.48546  1.0000
  F   F271      1.0  0.75688  0.75407  0.99864  1.0000
  F   F272      1.0  0.74449  0.72553  0.51995  1.0000
  F   F273      1.0  0.13561  0.01414  0.21966  1.0000
  F   F274      1.0  0.11966  0.99996  0.76454  1.0000
  F   F275      1.0  0.13475  0.49659  0.23218  1.0000
  F   F276      1.0  0.11648  0.50524  0.76082  1.0000
  F   F277      1.0  0.38171  0.00421  0.24663  1.0000
  F   F278      1.0  0.38590  0.01054  0.73017  1.0000
  F   F279      1.0  0.37467  0.49921  0.25705  1.0000
  F   F280      1.0  0.37708  0.50731  0.75175  1.0000
  F   F281      1.0  0.62282  0.00215  0.24446  1.0000
  F   F282      1.0  0.62635  0.99840  0.75169  1.0000
  F   F283      1.0  0.61691  0.50416  0.25665  1.0000
  F   F284      1.0  0.61046  0.49369  0.76972  1.0000
  F   F285      1.0  0.88044  0.00065  0.24518  1.0000
  F   F286      1.0  0.86609  0.98567  0.77008  1.0000
  F   F287      1.0  0.87440  0.49691  0.25916  1.0000
  F   F288      1.0  0.87944  0.48567  0.74826  1.0000
  F   F289      1.0  0.05258  0.02914  0.00973  1.0000
  F   F290      1.0  0.04823  0.02639  0.52029  1.0000
  F   F291      1.0  0.03616  0.54543  0.03285  1.0000
  F   F292      1.0  0.05113  0.52250  0.52029  1.0000
  F   F293      1.0  0.28751  0.04363  0.01441  1.0000
  F   F294      1.0  0.28657  0.03616  0.52858  1.0000
  F   F295      1.0  0.29018  0.53730  0.02528  1.0000
  F   F296      1.0  0.30269  0.53009  0.51770  1.0000
  F   F297      1.0  0.53583  0.01714  0.01875  1.0000
  F   F298      1.0  0.53838  0.02235  0.53085  1.0000
  F   F299      1.0  0.54557  0.53391  0.02066  1.0000
  F   F300      1.0  0.53985  0.52837  0.52663  1.0000
  F   F301      1.0  0.78556  0.02388  0.03069  1.0000
  F   F302      1.0  0.79921  0.02005  0.51645  1.0000
  F   F303      1.0  0.78809  0.53387  0.02679  1.0000
  F   F304      1.0  0.78858  0.50994  0.52767  1.0000
  F   F305      1.0  0.23456  0.42771  0.22341  1.0000
  F   F306      1.0  0.23118  0.43611  0.72472  1.0000
  F   F307      1.0  0.24040  0.91644  0.21201  1.0000
  F   F308      1.0  0.23509  0.90418  0.72503  1.0000
  F   F309      1.0  0.47745  0.42065  0.22881  1.0000
  F   F310      1.0  0.48972  0.40058  0.73428  1.0000
  F   F311      1.0  0.48849  0.90404  0.23505  1.0000
  F   F312      1.0  0.48680  0.91846  0.72381  1.0000
  F   F313      1.0  0.73945  0.40101  0.22329  1.0000
  F   F314      1.0  0.73389  0.40422  0.72796  1.0000
  F   F315      1.0  0.72957  0.92890  0.22456  1.0000
  F   F316      1.0  0.73660  0.90501  0.72879  1.0000
  F   F317      1.0  0.98171  0.42895  0.22694  1.0000
  F   F318      1.0  0.98082  0.41339  0.73707  1.0000
  F   F319      1.0  0.99025  0.91550  0.22100  1.0000
  F   F320      1.0  0.98158  0.90438  0.73712  1.0000
  F   F321      1.0  0.20960  0.47153  0.48466  1.0000
  F   F322      1.0  0.21031  0.46270  0.96894  1.0000
  F   F323      1.0  0.20580  0.98856  0.47093  1.0000
  F   F324      1.0  0.19792  0.98193  0.96923  1.0000
  F   F325      1.0  0.46010  0.46291  0.47398  1.0000
  F   F326      1.0  0.44977  0.46187  0.98851  1.0000
  F   F327      1.0  0.45631  0.97069  0.47760  1.0000
  F   F328      1.0  0.46434  0.98421  0.97620  1.0000
  F   F329      1.0  0.70554  0.46349  0.48343  1.0000
  F   F330      1.0  0.70205  0.45904  0.98379  1.0000
  F   F331      1.0  0.71005  0.96514  0.47672  1.0000
  F   F332      1.0  0.71171  0.95830  0.99980  1.0000
  F   F333      1.0  0.95264  0.46219  0.48838  1.0000
  F   F334      1.0  0.95989  0.47016  0.96421  1.0000
  F   F335      1.0  0.95679  0.96606  0.47697  1.0000
  F   F336      1.0  0.94922  0.98771  0.98810  1.0000
  F   F337      1.0  0.02410  0.10153  0.26672  1.0000
  F   F338      1.0  0.01744  0.10598  0.75675  1.0000
  F   F339      1.0  0.01459  0.58049  0.28146  1.0000
  F   F340      1.0  0.01425  0.59032  0.77118  1.0000
  F   F341      1.0  0.27062  0.08497  0.26427  1.0000
  F   F342      1.0  0.26593  0.08231  0.77354  1.0000
  F   F343      1.0  0.26171  0.59713  0.26569  1.0000
  F   F344      1.0  0.27058  0.58796  0.77050  1.0000
  F   F345      1.0  0.52072  0.08458  0.27531  1.0000
  F   F346      1.0  0.51011  0.08550  0.77105  1.0000
  F   F347      1.0  0.51284  0.60241  0.24571  1.0000
  F   F348      1.0  0.51376  0.59100  0.78499  1.0000
  F   F349      1.0  0.76224  0.09614  0.28161  1.0000
  F   F350      1.0  0.76428  0.08462  0.77509  1.0000
  F   F351      1.0  0.76517  0.58131  0.27670  1.0000
  F   F352      1.0  0.76859  0.58001  0.76936  1.0000
  F   F353      1.0  0.10470  0.39493  0.45329  1.0000
  F   F354      1.0  0.09831  0.41344  0.95525  1.0000
  F   F355      1.0  0.10481  0.91498  0.44505  1.0000
  F   F356      1.0  0.10654  0.89435  0.96781  1.0000
  F   F357      1.0  0.35106  0.39520  0.47107  1.0000
  F   F358      1.0  0.35537  0.40600  0.95658  1.0000
  F   F359      1.0  0.35418  0.93130  0.46171  1.0000
  F   F360      1.0  0.34880  0.93360  0.94253  1.0000
  F   F361      1.0  0.60035  0.40855  0.45222  1.0000
  F   F362      1.0  0.60048  0.41346  0.98094  1.0000
  F   F363      1.0  0.59837  0.90610  0.45762  1.0000
  F   F364      1.0  0.60138  0.90357  0.95140  1.0000
  F   F365      1.0  0.84852  0.40718  0.47170  1.0000
  F   F366      1.0  0.84826  0.39873  0.97142  1.0000
  F   F367      1.0  0.85661  0.86938  0.45604  1.0000
  F   F368      1.0  0.84738  0.91307  0.97166  1.0000
  F   F369      1.0  0.03707  0.31757  0.27927  1.0000
  F   F370      1.0  0.04322  0.29875  0.80181  1.0000
  F   F371      1.0  0.05015  0.80113  0.29604  1.0000
  F   F372      1.0  0.04557  0.79238  0.78504  1.0000
  F   F373      1.0  0.29208  0.30711  0.28004  1.0000
  F   F374      1.0  0.29457  0.30877  0.78761  1.0000
  F   F375      1.0  0.29337  0.78781  0.29291  1.0000
  F   F376      1.0  0.30020  0.80411  0.77449  1.0000
  F   F377      1.0  0.53623  0.30018  0.28614  1.0000
  F   F378      1.0  0.55425  0.29273  0.78343  1.0000
  F   F379      1.0  0.54817  0.79460  0.29577  1.0000
  F   F380      1.0  0.54328  0.78911  0.78199  1.0000
  F   F381      1.0  0.80614  0.29586  0.28123  1.0000
  F   F382      1.0  0.79130  0.28373  0.80491  1.0000
  F   F383      1.0  0.78610  0.79248  0.28705  1.0000
  F   F384      1.0  0.80034  0.79510  0.78119  1.0000
