data_image0
_chemical_formula_structural       Hf96F384
_chemical_formula_sum              "Hf96 F384"
_cell_length_a       31.0431
_cell_length_b       15.5208
_cell_length_c       15.5104
_cell_angle_alpha    63.342
_cell_angle_beta     63.342
_cell_angle_gamma    80.1625

_space_group_name_H-M_alt    "P 1"
_space_group_IT_number       1

loop_
  _space_group_symop_operation_xyz
  'x, y, z'

loop_
  _atom_site_type_symbol
  _atom_site_label
  _atom_site_symmetry_multiplicity
  _atom_site_fract_x
  _atom_site_fract_y
  _atom_site_fract_z
  _atom_site_occupancy
  Hf  Hf1       1.0  0.19276  0.10823  0.37835  1.0000
  Hf  Hf2       1.0  0.19295  0.11242  0.87480  1.0000
  Hf  Hf3       1.0  0.19652  0.60763  0.37925  1.0000
  Hf  Hf4       1.0  0.19644  0.60485  0.87509  1.0000
  Hf  Hf5       1.0  0.44437  0.10595  0.36801  1.0000
  Hf  Hf6       1.0  0.44767  0.10249  0.87118  1.0000
  Hf  Hf7       1.0  0.44742  0.60087  0.37403  1.0000
  Hf  Hf8       1.0  0.44616  0.61042  0.88724  1.0000
  Hf  Hf9       1.0  0.69377  0.11337  0.37483  1.0000
  Hf  Hf10      1.0  0.69688  0.11010  0.86943  1.0000
  Hf  Hf11      1.0  0.69547  0.60569  0.37620  1.0000
  Hf  Hf12      1.0  0.69932  0.60090  0.88155  1.0000
  Hf  Hf13      1.0  0.94756  0.11287  0.36721  1.0000
  Hf  Hf14      1.0  0.94301  0.10881  0.87601  1.0000
  Hf  Hf15      1.0  0.94799  0.60580  0.37079  1.0000
  Hf  Hf16      1.0  0.94493  0.61022  0.86961  1.0000
  Hf  Hf17      1.0  0.05279  0.40402  0.11834  1.0000
  Hf  Hf18      1.0  0.05362  0.39131  0.62384  1.0000
  Hf  Hf19      1.0  0.05363  0.89043  0.12660  1.0000
  Hf  Hf20      1.0  0.05263  0.90107  0.62214  1.0000
  Hf  Hf21      1.0  0.30467  0.38672  0.12859  1.0000
  Hf  Hf22      1.0  0.30202  0.39663  0.63776  1.0000
  Hf  Hf23      1.0  0.29848  0.89245  0.13359  1.0000
  Hf  Hf24      1.0  0.30152  0.89419  0.63034  1.0000
  Hf  Hf25      1.0  0.55447  0.39703  0.12110  1.0000
  Hf  Hf26      1.0  0.55431  0.38724  0.63477  1.0000
  Hf  Hf27      1.0  0.55493  0.89032  0.12495  1.0000
  Hf  Hf28      1.0  0.55615  0.89495  0.62367  1.0000
  Hf  Hf29      1.0  0.80116  0.39311  0.13514  1.0000
  Hf  Hf30      1.0  0.80359  0.39555  0.61482  1.0000
  Hf  Hf31      1.0  0.80214  0.88838  0.12700  1.0000
  Hf  Hf32      1.0  0.80328  0.89412  0.62278  1.0000
  Hf  Hf33      1.0  0.05472  0.18857  0.41802  1.0000
  Hf  Hf34      1.0  0.05303  0.17746  0.91853  1.0000
  Hf  Hf35      1.0  0.05206  0.67635  0.42634  1.0000
  Hf  Hf36      1.0  0.05447  0.68862  0.91544  1.0000
  Hf  Hf37      1.0  0.30294  0.18199  0.42111  1.0000
  Hf  Hf38      1.0  0.30552  0.18351  0.92011  1.0000
  Hf  Hf39      1.0  0.30705  0.68477  0.41670  1.0000
  Hf  Hf40      1.0  0.30738  0.68249  0.91550  1.0000
  Hf  Hf41      1.0  0.55350  0.17745  0.42099  1.0000
  Hf  Hf42      1.0  0.55831  0.18033  0.91653  1.0000
  Hf  Hf43      1.0  0.55713  0.67402  0.41499  1.0000
  Hf  Hf44      1.0  0.56178  0.68810  0.91066  1.0000
  Hf  Hf45      1.0  0.80941  0.18369  0.40751  1.0000
  Hf  Hf46      1.0  0.80535  0.18404  0.91445  1.0000
  Hf  Hf47      1.0  0.80626  0.68154  0.41564  1.0000
  Hf  Hf48      1.0  0.80804  0.67640  0.92227  1.0000
  Hf  Hf49      1.0  0.16026  0.38348  0.33125  1.0000
  Hf  Hf50      1.0  0.15506  0.39254  0.83912  1.0000
  Hf  Hf51      1.0  0.15570  0.88866  0.33586  1.0000
  Hf  Hf52      1.0  0.15863  0.88795  0.83092  1.0000
  Hf  Hf53      1.0  0.40852  0.38404  0.33385  1.0000
  Hf  Hf54      1.0  0.40802  0.37992  0.84342  1.0000
  Hf  Hf55      1.0  0.41092  0.88240  0.33601  1.0000
  Hf  Hf56      1.0  0.41027  0.89017  0.82755  1.0000
  Hf  Hf57      1.0  0.65868  0.38942  0.34430  1.0000
  Hf  Hf58      1.0  0.66057  0.39214  0.82635  1.0000
  Hf  Hf59      1.0  0.66197  0.89507  0.32619  1.0000
  Hf  Hf60      1.0  0.66397  0.88634  0.82275  1.0000
  Hf  Hf61      1.0  0.90608  0.38423  0.34343  1.0000
  Hf  Hf62      1.0  0.90420  0.38067  0.83806  1.0000
  Hf  Hf63      1.0  0.91123  0.88900  0.32660  1.0000
  Hf  Hf64      1.0  0.90890  0.89456  0.82786  1.0000
  Hf  Hf65      1.0  0.19341  0.31498  0.08982  1.0000
  Hf  Hf66      1.0  0.19377  0.31954  0.58638  1.0000
  Hf  Hf67      1.0  0.19377  0.81232  0.08370  1.0000
  Hf  Hf68      1.0  0.19254  0.81374  0.58652  1.0000
  Hf  Hf69      1.0  0.44349  0.31933  0.08336  1.0000
  Hf  Hf70      1.0  0.44187  0.31117  0.58936  1.0000
  Hf  Hf71      1.0  0.44266  0.81591  0.08425  1.0000
  Hf  Hf72      1.0  0.44739  0.81306  0.58350  1.0000
  Hf  Hf73      1.0  0.69090  0.31967  0.09031  1.0000
  Hf  Hf74      1.0  0.69552  0.31585  0.58170  1.0000
  Hf  Hf75      1.0  0.69513  0.81660  0.08056  1.0000
  Hf  Hf76      1.0  0.69535  0.81863  0.57888  1.0000
  Hf  Hf77      1.0  0.94485  0.31677  0.08151  1.0000
  Hf  Hf78      1.0  0.94587  0.31529  0.57740  1.0000
  Hf  Hf79      1.0  0.94622  0.81901  0.08268  1.0000
  Hf  Hf80      1.0  0.94431  0.81931  0.57900  1.0000
  Hf  Hf81      1.0  0.09098  0.11556  0.16580  1.0000
  Hf  Hf82      1.0  0.08584  0.11088  0.67629  1.0000
  Hf  Hf83      1.0  0.09240  0.61130  0.16607  1.0000
  Hf  Hf84      1.0  0.09293  0.61508  0.66485  1.0000
  Hf  Hf85      1.0  0.34288  0.10727  0.16671  1.0000
  Hf  Hf86      1.0  0.33950  0.11384  0.67340  1.0000
  Hf  Hf87      1.0  0.33740  0.61067  0.16850  1.0000
  Hf  Hf88      1.0  0.33735  0.61375  0.66769  1.0000
  Hf  Hf89      1.0  0.59516  0.11635  0.16571  1.0000
  Hf  Hf90      1.0  0.59365  0.10591  0.67343  1.0000
  Hf  Hf91      1.0  0.59292  0.60865  0.17231  1.0000
  Hf  Hf92      1.0  0.59122  0.61773  0.66484  1.0000
  Hf  Hf93      1.0  0.84541  0.11665  0.15825  1.0000
  Hf  Hf94      1.0  0.83790  0.11235  0.66517  1.0000
  Hf  Hf95      1.0  0.84595  0.61293  0.16324  1.0000
  Hf  Hf96      1.0  0.84429  0.60557  0.66642  1.0000
  F   F1        1.0  0.07365  0.12827  0.31249  1.0000
  F   F2        1.0  0.07047  0.11638  0.81170  1.0000
  F   F3        1.0  0.08328  0.61652  0.30947  1.0000
  F   F4        1.0  0.08166  0.63944  0.79067  1.0000
  F   F5        1.0  0.32577  0.12261  0.30902  1.0000
  F   F6        1.0  0.32554  0.12668  0.80981  1.0000
  F   F7        1.0  0.32960  0.63053  0.29848  1.0000
  F   F8        1.0  0.33120  0.63394  0.79936  1.0000
  F   F9        1.0  0.58086  0.13444  0.29945  1.0000
  F   F10       1.0  0.59119  0.12982  0.80197  1.0000
  F   F11       1.0  0.58279  0.61947  0.31117  1.0000
  F   F12       1.0  0.58633  0.65526  0.79054  1.0000
  F   F13       1.0  0.83104  0.10723  0.31708  1.0000
  F   F14       1.0  0.81623  0.11179  0.80798  1.0000
  F   F15       1.0  0.82842  0.63844  0.29758  1.0000
  F   F16       1.0  0.83618  0.62751  0.79586  1.0000
  F   F17       1.0  0.18226  0.34178  0.44561  1.0000
  F   F18       1.0  0.17247  0.34579  0.96534  1.0000
  F   F19       1.0  0.18377  0.83967  0.44358  1.0000
  F   F20       1.0  0.17906  0.83769  0.94992  1.0000
  F   F21       1.0  0.43217  0.34720  0.44619  1.0000
  F   F22       1.0  0.43040  0.33696  0.96207  1.0000
  F   F23       1.0  0.43571  0.85192  0.44381  1.0000
  F   F24       1.0  0.43522  0.83687  0.94030  1.0000
  F   F25       1.0  0.68120  0.33279  0.46026  1.0000
  F   F26       1.0  0.67742  0.33834  0.96353  1.0000
  F   F27       1.0  0.68883  0.86128  0.43461  1.0000
  F   F28       1.0  0.69234  0.83329  0.93831  1.0000
  F   F29       1.0  0.93361  0.32810  0.45693  1.0000
  F   F30       1.0  0.93556  0.33726  0.95277  1.0000
  F   F31       1.0  0.94093  0.83592  0.44550  1.0000
  F   F32       1.0  0.93962  0.84383  0.93645  1.0000
  F   F33       1.0  0.17386  0.37459  0.18566  1.0000
  F   F34       1.0  0.16489  0.36288  0.70692  1.0000
  F   F35       1.0  0.17344  0.86341  0.19802  1.0000
  F   F36       1.0  0.17597  0.87074  0.68725  1.0000
  F   F37       1.0  0.42333  0.36904  0.19654  1.0000
  F   F38       1.0  0.41739  0.35855  0.71093  1.0000
  F   F39       1.0  0.41741  0.88031  0.18872  1.0000
  F   F40       1.0  0.42406  0.88014  0.68914  1.0000
  F   F41       1.0  0.66771  0.36001  0.21411  1.0000
  F   F42       1.0  0.67775  0.38361  0.68868  1.0000
  F   F43       1.0  0.68138  0.87398  0.18228  1.0000
  F   F44       1.0  0.67692  0.88404  0.67523  1.0000
  F   F45       1.0  0.91787  0.35884  0.20406  1.0000
  F   F46       1.0  0.91310  0.37266  0.70135  1.0000
  F   F47       1.0  0.92399  0.86621  0.19555  1.0000
  F   F48       1.0  0.91972  0.87417  0.69495  1.0000
  F   F49       1.0  0.06581  0.16708  0.05019  1.0000
  F   F50       1.0  0.06461  0.16465  0.55014  1.0000
  F   F51       1.0  0.07423  0.67233  0.03362  1.0000
  F   F52       1.0  0.06477  0.65939  0.55091  1.0000
  F   F53       1.0  0.31664  0.15050  0.05334  1.0000
  F   F54       1.0  0.30309  0.15646  0.56383  1.0000
  F   F55       1.0  0.31632  0.66049  0.04654  1.0000
  F   F56       1.0  0.31593  0.66161  0.55153  1.0000
  F   F57       1.0  0.57200  0.17255  0.03891  1.0000
  F   F58       1.0  0.57157  0.17428  0.54808  1.0000
  F   F59       1.0  0.57650  0.67332  0.03984  1.0000
  F   F60       1.0  0.56553  0.66181  0.54945  1.0000
  F   F61       1.0  0.81715  0.16203  0.05342  1.0000
  F   F62       1.0  0.80593  0.15374  0.55654  1.0000
  F   F63       1.0  0.81881  0.66465  0.04852  1.0000
  F   F64       1.0  0.81611  0.65257  0.55443  1.0000
  F   F65       1.0  0.20208  0.20406  0.21841  1.0000
  F   F66       1.0  0.19988  0.19918  0.70500  1.0000
  F   F67       1.0  0.20067  0.69656  0.21482  1.0000
  F   F68       1.0  0.20461  0.69403  0.70975  1.0000
  F   F69       1.0  0.45666  0.20102  0.19961  1.0000
  F   F70       1.0  0.46502  0.19537  0.70782  1.0000
  F   F71       1.0  0.45201  0.71251  0.21410  1.0000
  F   F72       1.0  0.45512  0.69839  0.70666  1.0000
  F   F73       1.0  0.71100  0.20801  0.19929  1.0000
  F   F74       1.0  0.70392  0.21645  0.70649  1.0000
  F   F75       1.0  0.69932  0.70003  0.20515  1.0000
  F   F76       1.0  0.69801  0.68857  0.69608  1.0000
  F   F77       1.0  0.96062  0.19963  0.21027  1.0000
  F   F78       1.0  0.94915  0.20865  0.71870  1.0000
  F   F79       1.0  0.95976  0.69624  0.20700  1.0000
  F   F80       1.0  0.94369  0.69804  0.70932  1.0000
  F   F81       1.0  0.14652  0.09598  0.03018  1.0000
  F   F82       1.0  0.14526  0.09667  0.54633  1.0000
  F   F83       1.0  0.15259  0.57807  0.04369  1.0000
  F   F84       1.0  0.15172  0.59499  0.54444  1.0000
  F   F85       1.0  0.39735  0.08428  0.04073  1.0000
  F   F86       1.0  0.39175  0.12893  0.52667  1.0000
  F   F87       1.0  0.40300  0.57549  0.05178  1.0000
  F   F88       1.0  0.39189  0.57919  0.53644  1.0000
  F   F89       1.0  0.65757  0.09170  0.04299  1.0000
  F   F90       1.0  0.64982  0.07983  0.52764  1.0000
  F   F91       1.0  0.65497  0.60559  0.02944  1.0000
  F   F92       1.0  0.64588  0.58878  0.52935  1.0000
  F   F93       1.0  0.89753  0.07532  0.04001  1.0000
  F   F94       1.0  0.89115  0.10179  0.52950  1.0000
  F   F95       1.0  0.90245  0.61081  0.03570  1.0000
  F   F96       1.0  0.90309  0.58797  0.53972  1.0000
  F   F97       1.0  0.14680  0.19295  0.12608  1.0000
  F   F98       1.0  0.14725  0.21223  0.62802  1.0000
  F   F99       1.0  0.15637  0.68185  0.12705  1.0000
  F   F100      1.0  0.15903  0.69819  0.61637  1.0000
  F   F101      1.0  0.40134  0.20207  0.12587  1.0000
  F   F102      1.0  0.40198  0.19540  0.64715  1.0000
  F   F103      1.0  0.39422  0.70117  0.12330  1.0000
  F   F104      1.0  0.40193  0.68718  0.61820  1.0000
  F   F105      1.0  0.65401  0.19636  0.13644  1.0000
  F   F106      1.0  0.64921  0.18600  0.62240  1.0000
  F   F107      1.0  0.64801  0.70767  0.12738  1.0000
  F   F108      1.0  0.64746  0.71819  0.59517  1.0000
  F   F109      1.0  0.90332  0.19722  0.12841  1.0000
  F   F110      1.0  0.89925  0.18723  0.63294  1.0000
  F   F111      1.0  0.90216  0.70594  0.12320  1.0000
  F   F112      1.0  0.90544  0.69150  0.61164  1.0000
  F   F113      1.0  0.10016  0.29780  0.36021  1.0000
  F   F114      1.0  0.09914  0.30488  0.87769  1.0000
  F   F115      1.0  0.10058  0.79618  0.37566  1.0000
  F   F116      1.0  0.10085  0.81579  0.84565  1.0000
  F   F117      1.0  0.35054  0.30044  0.38721  1.0000
  F   F118      1.0  0.34743  0.29151  0.88548  1.0000
  F   F119      1.0  0.35128  0.80388  0.38290  1.0000
  F   F120      1.0  0.35087  0.80085  0.85189  1.0000
  F   F121      1.0  0.59618  0.31860  0.39758  1.0000
  F   F122      1.0  0.59976  0.31787  0.86222  1.0000
  F   F123      1.0  0.60959  0.79526  0.39300  1.0000
  F   F124      1.0  0.60053  0.81241  0.84789  1.0000
  F   F125      1.0  0.85155  0.29492  0.39009  1.0000
  F   F126      1.0  0.84194  0.30873  0.87552  1.0000
  F   F127      1.0  0.84219  0.80290  0.37032  1.0000
  F   F128      1.0  0.84792  0.79670  0.87344  1.0000
  F   F129      1.0  0.05587  0.25840  0.15398  1.0000
  F   F130      1.0  0.06505  0.25879  0.64352  1.0000
  F   F131      1.0  0.06746  0.74868  0.13669  1.0000
  F   F132      1.0  0.07219  0.75505  0.63257  1.0000
  F   F133      1.0  0.31705  0.25155  0.13944  1.0000
  F   F134      1.0  0.31852  0.25060  0.64269  1.0000
  F   F135      1.0  0.30614  0.75637  0.14053  1.0000
  F   F136      1.0  0.31237  0.75692  0.64691  1.0000
  F   F137      1.0  0.56748  0.25679  0.13695  1.0000
  F   F138      1.0  0.56034  0.24779  0.65236  1.0000
  F   F139      1.0  0.55049  0.74253  0.17926  1.0000
  F   F140      1.0  0.55582  0.75622  0.64013  1.0000
  F   F141      1.0  0.81567  0.24800  0.15170  1.0000
  F   F142      1.0  0.81746  0.25249  0.62411  1.0000
  F   F143      1.0  0.81972  0.75424  0.12979  1.0000
  F   F144      1.0  0.81678  0.74676  0.63930  1.0000
  F   F145      1.0  0.11893  0.36269  0.12494  1.0000
  F   F146      1.0  0.12913  0.37822  0.59665  1.0000
  F   F147      1.0  0.12329  0.86033  0.10716  1.0000
  F   F148      1.0  0.12457  0.86966  0.60509  1.0000
  F   F149      1.0  0.37240  0.37790  0.12124  1.0000
  F   F150      1.0  0.37699  0.38205  0.59962  1.0000
  F   F151      1.0  0.37408  0.86649  0.10715  1.0000
  F   F152      1.0  0.37701  0.85686  0.62338  1.0000
  F   F153      1.0  0.62119  0.36254  0.12299  1.0000
  F   F154      1.0  0.62468  0.34090  0.63862  1.0000
  F   F155      1.0  0.62443  0.87549  0.10546  1.0000
  F   F156      1.0  0.62643  0.88298  0.60205  1.0000
  F   F157      1.0  0.87535  0.38086  0.09838  1.0000
  F   F158      1.0  0.87752  0.37309  0.59375  1.0000
  F   F159      1.0  0.88173  0.88636  0.07993  1.0000
  F   F160      1.0  0.87208  0.86567  0.60970  1.0000
  F   F161      1.0  0.18330  0.24961  0.34706  1.0000
  F   F162      1.0  0.18155  0.25150  0.85941  1.0000
  F   F163      1.0  0.19210  0.74692  0.35055  1.0000
  F   F164      1.0  0.18713  0.74595  0.85940  1.0000
  F   F165      1.0  0.43742  0.24713  0.34477  1.0000
  F   F166      1.0  0.43470  0.24773  0.86698  1.0000
  F   F167      1.0  0.43927  0.73952  0.35931  1.0000
  F   F168      1.0  0.43230  0.75186  0.86222  1.0000
  F   F169      1.0  0.68626  0.24383  0.37123  1.0000
  F   F170      1.0  0.68571  0.25968  0.84595  1.0000
  F   F171      1.0  0.69561  0.75400  0.34307  1.0000
  F   F172      1.0  0.69907  0.75639  0.81343  1.0000
  F   F173      1.0  0.93395  0.24788  0.36151  1.0000
  F   F174      1.0  0.92541  0.23983  0.88108  1.0000
  F   F175      1.0  0.93212  0.74074  0.36903  1.0000
  F   F176      1.0  0.93381  0.75119  0.85290  1.0000
  F   F177      1.0  0.11962  0.11264  0.40688  1.0000
  F   F178      1.0  0.12189  0.13940  0.88495  1.0000
  F   F179      1.0  0.12399  0.60481  0.42223  1.0000
  F   F180      1.0  0.12553  0.63023  0.89115  1.0000
  F   F181      1.0  0.37235  0.13660  0.38447  1.0000
  F   F182      1.0  0.37779  0.11903  0.89835  1.0000
  F   F183      1.0  0.37409  0.62324  0.38775  1.0000
  F   F184      1.0  0.37716  0.63029  0.89024  1.0000
  F   F185      1.0  0.62865  0.15853  0.37446  1.0000
  F   F186      1.0  0.62724  0.10894  0.90812  1.0000
  F   F187      1.0  0.62846  0.65484  0.37279  1.0000
  F   F188      1.0  0.63327  0.63392  0.88214  1.0000
  F   F189      1.0  0.87867  0.13218  0.36916  1.0000
  F   F190      1.0  0.87353  0.14292  0.87423  1.0000
  F   F191      1.0  0.87427  0.63333  0.38450  1.0000
  F   F192      1.0  0.87274  0.61332  0.90858  1.0000
  F   F193      1.0  0.00964  0.35996  0.06102  1.0000
  F   F194      1.0  0.00474  0.35649  0.57438  1.0000
  F   F195      1.0  0.00814  0.85435  0.08074  1.0000
  F   F196      1.0  0.00007  0.86133  0.58094  1.0000
  F   F197      1.0  0.25622  0.34496  0.08352  1.0000
  F   F198      1.0  0.25538  0.35792  0.59306  1.0000
  F   F199      1.0  0.25419  0.88091  0.07491  1.0000
  F   F200      1.0  0.25667  0.86814  0.57179  1.0000
  F   F201      1.0  0.51008  0.36317  0.05739  1.0000
  F   F202      1.0  0.50897  0.35954  0.57041  1.0000
  F   F203      1.0  0.50274  0.86769  0.08557  1.0000
  F   F204      1.0  0.50787  0.87975  0.54282  1.0000
  F   F205      1.0  0.75862  0.37741  0.07662  1.0000
  F   F206      1.0  0.75926  0.36689  0.56801  1.0000
  F   F207      1.0  0.75983  0.85076  0.07185  1.0000
  F   F208      1.0  0.75938  0.85135  0.57798  1.0000
  F   F209      1.0  0.06731  0.49594  0.16445  1.0000
  F   F210      1.0  0.06555  0.49026  0.66990  1.0000
  F   F211      1.0  0.07169  0.98339  0.17204  1.0000
  F   F212      1.0  0.06559  0.98359  0.68286  1.0000
  F   F213      1.0  0.31071  0.49807  0.17791  1.0000
  F   F214      1.0  0.31501  0.48144  0.69092  1.0000
  F   F215      1.0  0.31894  0.98034  0.17540  1.0000
  F   F216      1.0  0.31774  0.97309  0.69366  1.0000
  F   F217      1.0  0.56838  0.49828  0.16472  1.0000
  F   F218      1.0  0.57017  0.48654  0.67262  1.0000
  F   F219      1.0  0.56395  0.98351  0.17515  1.0000
  F   F220      1.0  0.57342  0.97376  0.68636  1.0000
  F   F221      1.0  0.82048  0.48295  0.18787  1.0000
  F   F222      1.0  0.82222  0.48518  0.66252  1.0000
  F   F223      1.0  0.81621  0.99287  0.17720  1.0000
  F   F224      1.0  0.81276  0.97914  0.69545  1.0000
  F   F225      1.0  0.24125  0.13407  0.43626  1.0000
  F   F226      1.0  0.24481  0.13663  0.91544  1.0000
  F   F227      1.0  0.24784  0.64731  0.42029  1.0000
  F   F228      1.0  0.24532  0.63993  0.92340  1.0000
  F   F229      1.0  0.49522  0.13134  0.42271  1.0000
  F   F230      1.0  0.49605  0.12323  0.91871  1.0000
  F   F231      1.0  0.49366  0.62628  0.42254  1.0000
  F   F232      1.0  0.49196  0.64680  0.92255  1.0000
  F   F233      1.0  0.74762  0.14816  0.41631  1.0000
  F   F234      1.0  0.74020  0.15180  0.91990  1.0000
  F   F235      1.0  0.74054  0.63803  0.42237  1.0000
  F   F236      1.0  0.74649  0.60886  0.93514  1.0000
  F   F237      1.0  0.98907  0.13604  0.42486  1.0000
  F   F238      1.0  0.98970  0.13631  0.92009  1.0000
  F   F239      1.0  0.99698  0.63779  0.41265  1.0000
  F   F240      1.0  0.99347  0.64298  0.91685  1.0000
  F   F241      1.0  0.17833  0.01062  0.33503  1.0000
  F   F242      1.0  0.18356  0.01688  0.81915  1.0000
  F   F243      1.0  0.18170  0.50743  0.32381  1.0000
  F   F244      1.0  0.18095  0.51671  0.82162  1.0000
  F   F245      1.0  0.43670  0.01249  0.31159  1.0000
  F   F246      1.0  0.43199  0.01028  0.81863  1.0000
  F   F247      1.0  0.43087  0.51749  0.31412  1.0000
  F   F248      1.0  0.43560  0.50636  0.83322  1.0000
  F   F249      1.0  0.67415  0.03366  0.31561  1.0000
  F   F250      1.0  0.67821  0.00947  0.83326  1.0000
  F   F251      1.0  0.67674  0.51689  0.33693  1.0000
  F   F252      1.0  0.68880  0.51221  0.81335  1.0000
  F   F253      1.0  0.93256  0.01164  0.32490  1.0000
  F   F254      1.0  0.92876  0.02140  0.82187  1.0000
  F   F255      1.0  0.93836  0.51364  0.31433  1.0000
  F   F256      1.0  0.93238  0.50742  0.82215  1.0000
  F   F257      1.0  0.99779  0.22491  0.01836  1.0000
  F   F258      1.0  0.99030  0.22711  0.51505  1.0000
  F   F259      1.0  0.00063  0.74131  0.01231  1.0000
  F   F260      1.0  0.00245  0.75837  0.49650  1.0000
  F   F261      1.0  0.23939  0.22745  0.02207  1.0000
  F   F262      1.0  0.25202  0.27070  0.48750  1.0000
  F   F263      1.0  0.25218  0.77344  0.98799  1.0000
  F   F264      1.0  0.25374  0.76475  0.49386  1.0000
  F   F265      1.0  0.49956  0.23529  0.99790  1.0000
  F   F266      1.0  0.49306  0.22847  0.51199  1.0000
  F   F267      1.0  0.50446  0.74361  0.00524  1.0000
  F   F268      1.0  0.49525  0.73863  0.50106  1.0000
  F   F269      1.0  0.75158  0.24587  0.00484  1.0000
  F   F270      1.0  0.75349  0.27198  0.47965  1.0000
  F   F271      1.0  0.74609  0.72699  0.00085  1.0000
  F   F272      1.0  0.75404  0.75874  0.48398  1.0000
  F   F273      1.0  0.13151  0.00419  0.23818  1.0000
  F   F274      1.0  0.12130  0.00652  0.75106  1.0000
  F   F275      1.0  0.12487  0.49085  0.25223  1.0000
  F   F276      1.0  0.12551  0.50201  0.75190  1.0000
  F   F277      1.0  0.38084  0.00730  0.23865  1.0000
  F   F278      1.0  0.37879  0.99985  0.74506  1.0000
  F   F279      1.0  0.37853  0.49688  0.24019  1.0000
  F   F280      1.0  0.37264  0.49926  0.76196  1.0000
  F   F281      1.0  0.61442  0.99412  0.26289  1.0000
  F   F282      1.0  0.63250  0.99820  0.74715  1.0000
  F   F283      1.0  0.62785  0.50303  0.24295  1.0000
  F   F284      1.0  0.62657  0.52282  0.73550  1.0000
  F   F285      1.0  0.87800  0.99620  0.24048  1.0000
  F   F286      1.0  0.87876  0.99981  0.74122  1.0000
  F   F287      1.0  0.88268  0.50043  0.24109  1.0000
  F   F288      1.0  0.87347  0.49405  0.74990  1.0000
  F   F289      1.0  0.03887  0.02537  0.02367  1.0000
  F   F290      1.0  0.03458  0.02782  0.53340  1.0000
  F   F291      1.0  0.03740  0.54327  0.02429  1.0000
  F   F292      1.0  0.03598  0.52475  0.53441  1.0000
  F   F293      1.0  0.29768  0.02791  0.01957  1.0000
  F   F294      1.0  0.29186  0.02563  0.52664  1.0000
  F   F295      1.0  0.30003  0.52786  0.01739  1.0000
  F   F296      1.0  0.29645  0.52726  0.53200  1.0000
  F   F297      1.0  0.54601  0.03528  0.01543  1.0000
  F   F298      1.0  0.54584  0.03128  0.52921  1.0000
  F   F299      1.0  0.54571  0.53890  0.01066  1.0000
  F   F300      1.0  0.54310  0.53209  0.51820  1.0000
  F   F301      1.0  0.79044  0.04346  0.01780  1.0000
  F   F302      1.0  0.79180  0.02772  0.51821  1.0000
  F   F303      1.0  0.79342  0.53138  0.02723  1.0000
  F   F304      1.0  0.78743  0.53796  0.52937  1.0000
  F   F305      1.0  0.23357  0.40670  0.22324  1.0000
  F   F306      1.0  0.23175  0.40533  0.74229  1.0000
  F   F307      1.0  0.23212  0.91400  0.23688  1.0000
  F   F308      1.0  0.23165  0.92229  0.71760  1.0000
  F   F309      1.0  0.48450  0.41913  0.21609  1.0000
  F   F310      1.0  0.48502  0.41639  0.71906  1.0000
  F   F311      1.0  0.48527  0.90795  0.22681  1.0000
  F   F312      1.0  0.48664  0.91573  0.72760  1.0000
  F   F313      1.0  0.73300  0.41097  0.24107  1.0000
  F   F314      1.0  0.73562  0.41253  0.72982  1.0000
  F   F315      1.0  0.73593  0.93179  0.21544  1.0000
  F   F316      1.0  0.73469  0.92303  0.72063  1.0000
  F   F317      1.0  0.97972  0.41251  0.22193  1.0000
  F   F318      1.0  0.98251  0.39000  0.74556  1.0000
  F   F319      1.0  0.98770  0.90592  0.23365  1.0000
  F   F320      1.0  0.98332  0.92240  0.72372  1.0000
  F   F321      1.0  0.20923  0.47156  0.47261  1.0000
  F   F322      1.0  0.21038  0.46688  0.97369  1.0000
  F   F323      1.0  0.20349  0.96453  0.48483  1.0000
  F   F324      1.0  0.20318  0.97188  0.98163  1.0000
  F   F325      1.0  0.46024  0.46104  0.47249  1.0000
  F   F326      1.0  0.46238  0.47445  0.97235  1.0000
  F   F327      1.0  0.44042  0.98353  0.48825  1.0000
  F   F328      1.0  0.45677  0.96898  0.97399  1.0000
  F   F329      1.0  0.71101  0.46814  0.47114  1.0000
  F   F330      1.0  0.71099  0.46610  0.98012  1.0000
  F   F331      1.0  0.71400  0.97502  0.46628  1.0000
  F   F332      1.0  0.71120  0.96878  0.96945  1.0000
  F   F333      1.0  0.95870  0.46583  0.46716  1.0000
  F   F334      1.0  0.95703  0.48286  0.96791  1.0000
  F   F335      1.0  0.95394  0.97555  0.47006  1.0000
  F   F336      1.0  0.96629  0.96475  0.95985  1.0000
  F   F337      1.0  0.01608  0.08023  0.26599  1.0000
  F   F338      1.0  0.01229  0.10087  0.75548  1.0000
  F   F339      1.0  0.01613  0.58766  0.26125  1.0000
  F   F340      1.0  0.01062  0.59512  0.75869  1.0000
  F   F341      1.0  0.26732  0.10141  0.26318  1.0000
  F   F342      1.0  0.26221  0.09667  0.76776  1.0000
  F   F343      1.0  0.26178  0.58993  0.27430  1.0000
  F   F344      1.0  0.26401  0.58929  0.77048  1.0000
  F   F345      1.0  0.52089  0.09085  0.26070  1.0000
  F   F346      1.0  0.52702  0.06687  0.78263  1.0000
  F   F347      1.0  0.51593  0.57496  0.28371  1.0000
  F   F348      1.0  0.51640  0.58590  0.78011  1.0000
  F   F349      1.0  0.76799  0.09296  0.27078  1.0000
  F   F350      1.0  0.75656  0.09323  0.75116  1.0000
  F   F351      1.0  0.76787  0.61262  0.25614  1.0000
  F   F352      1.0  0.76602  0.58233  0.77941  1.0000
  F   F353      1.0  0.09258  0.39978  0.47858  1.0000
  F   F354      1.0  0.09371  0.42069  0.96982  1.0000
  F   F355      1.0  0.10064  0.92738  0.44583  1.0000
  F   F356      1.0  0.09920  0.89750  0.95278  1.0000
  F   F357      1.0  0.34942  0.40981  0.45794  1.0000
  F   F358      1.0  0.34972  0.41225  0.96078  1.0000
  F   F359      1.0  0.35261  0.92183  0.46663  1.0000
  F   F360      1.0  0.35275  0.91353  0.94543  1.0000
  F   F361      1.0  0.60351  0.41909  0.47226  1.0000
  F   F362      1.0  0.59907  0.41186  0.95159  1.0000
  F   F363      1.0  0.60202  0.91859  0.46166  1.0000
  F   F364      1.0  0.59996  0.89034  0.96881  1.0000
  F   F365      1.0  0.84933  0.42846  0.45450  1.0000
  F   F366      1.0  0.84574  0.39655  0.97470  1.0000
  F   F367      1.0  0.85244  0.89678  0.45932  1.0000
  F   F368      1.0  0.84867  0.92530  0.95614  1.0000
  F   F369      1.0  0.03861  0.30161  0.30342  1.0000
  F   F370      1.0  0.05171  0.29955  0.79024  1.0000
  F   F371      1.0  0.05060  0.79860  0.28988  1.0000
  F   F372      1.0  0.03872  0.80455  0.79175  1.0000
  F   F373      1.0  0.29769  0.29338  0.29128  1.0000
  F   F374      1.0  0.29703  0.29890  0.78935  1.0000
  F   F375      1.0  0.29986  0.79845  0.28326  1.0000
  F   F376      1.0  0.28744  0.79671  0.79860  1.0000
  F   F377      1.0  0.54715  0.30339  0.29142  1.0000
  F   F378      1.0  0.54399  0.29669  0.79930  1.0000
  F   F379      1.0  0.55136  0.79837  0.30148  1.0000
  F   F380      1.0  0.54604  0.80084  0.78643  1.0000
  F   F381      1.0  0.79837  0.30141  0.29090  1.0000
  F   F382      1.0  0.81193  0.28960  0.76537  1.0000
  F   F383      1.0  0.79225  0.81286  0.27806  1.0000
  F   F384      1.0  0.79763  0.78965  0.78891  1.0000
