data_image0
_chemical_formula_structural       Hf96F384
_chemical_formula_sum              "Hf96 F384"
_cell_length_a       31.0124
_cell_length_b       15.5048
_cell_length_c       15.4964
_cell_angle_alpha    63.342
_cell_angle_beta     63.342
_cell_angle_gamma    80.1625

_space_group_name_H-M_alt    "P 1"
_space_group_IT_number       1

loop_
  _space_group_symop_operation_xyz
  'x, y, z'

loop_
  _atom_site_type_symbol
  _atom_site_label
  _atom_site_symmetry_multiplicity
  _atom_site_fract_x
  _atom_site_fract_y
  _atom_site_fract_z
  _atom_site_occupancy
  Hf  Hf1       1.0  0.19473  0.10307  0.37345  1.0000
  Hf  Hf2       1.0  0.19412  0.11337  0.87610  1.0000
  Hf  Hf3       1.0  0.19944  0.61083  0.36877  1.0000
  Hf  Hf4       1.0  0.20052  0.60707  0.87608  1.0000
  Hf  Hf5       1.0  0.44758  0.10860  0.36974  1.0000
  Hf  Hf6       1.0  0.44923  0.10678  0.86873  1.0000
  Hf  Hf7       1.0  0.44696  0.61019  0.38505  1.0000
  Hf  Hf8       1.0  0.44465  0.61162  0.87315  1.0000
  Hf  Hf9       1.0  0.69254  0.11227  0.37714  1.0000
  Hf  Hf10      1.0  0.69413  0.10837  0.87409  1.0000
  Hf  Hf11      1.0  0.69798  0.60889  0.37383  1.0000
  Hf  Hf12      1.0  0.69584  0.60749  0.87616  1.0000
  Hf  Hf13      1.0  0.94415  0.09984  0.38205  1.0000
  Hf  Hf14      1.0  0.94686  0.10326  0.87933  1.0000
  Hf  Hf15      1.0  0.94978  0.60965  0.36687  1.0000
  Hf  Hf16      1.0  0.94885  0.60929  0.86456  1.0000
  Hf  Hf17      1.0  0.05265  0.39583  0.12120  1.0000
  Hf  Hf18      1.0  0.05437  0.39484  0.62719  1.0000
  Hf  Hf19      1.0  0.05350  0.89341  0.12322  1.0000
  Hf  Hf20      1.0  0.05610  0.89666  0.61629  1.0000
  Hf  Hf21      1.0  0.30238  0.39728  0.11526  1.0000
  Hf  Hf22      1.0  0.30384  0.39321  0.62683  1.0000
  Hf  Hf23      1.0  0.30280  0.89682  0.12784  1.0000
  Hf  Hf24      1.0  0.30505  0.89430  0.62316  1.0000
  Hf  Hf25      1.0  0.55455  0.38694  0.12394  1.0000
  Hf  Hf26      1.0  0.55269  0.39298  0.62319  1.0000
  Hf  Hf27      1.0  0.55455  0.89551  0.12079  1.0000
  Hf  Hf28      1.0  0.55213  0.88492  0.63289  1.0000
  Hf  Hf29      1.0  0.80202  0.38993  0.13167  1.0000
  Hf  Hf30      1.0  0.80332  0.39170  0.62698  1.0000
  Hf  Hf31      1.0  0.80409  0.88922  0.12614  1.0000
  Hf  Hf32      1.0  0.80432  0.89594  0.62401  1.0000
  Hf  Hf33      1.0  0.05557  0.18725  0.40981  1.0000
  Hf  Hf34      1.0  0.05504  0.18009  0.91577  1.0000
  Hf  Hf35      1.0  0.05827  0.67972  0.41152  1.0000
  Hf  Hf36      1.0  0.05833  0.67759  0.91589  1.0000
  Hf  Hf37      1.0  0.30458  0.18591  0.41107  1.0000
  Hf  Hf38      1.0  0.30696  0.18610  0.91164  1.0000
  Hf  Hf39      1.0  0.30620  0.68702  0.41983  1.0000
  Hf  Hf40      1.0  0.30868  0.68922  0.90984  1.0000
  Hf  Hf41      1.0  0.55195  0.17181  0.42668  1.0000
  Hf  Hf42      1.0  0.55570  0.17679  0.92048  1.0000
  Hf  Hf43      1.0  0.55704  0.67624  0.41756  1.0000
  Hf  Hf44      1.0  0.55109  0.68210  0.92588  1.0000
  Hf  Hf45      1.0  0.80376  0.18107  0.42614  1.0000
  Hf  Hf46      1.0  0.80404  0.17334  0.91905  1.0000
  Hf  Hf47      1.0  0.80795  0.67961  0.41783  1.0000
  Hf  Hf48      1.0  0.80656  0.68190  0.91537  1.0000
  Hf  Hf49      1.0  0.15621  0.38776  0.33493  1.0000
  Hf  Hf50      1.0  0.15984  0.39583  0.82727  1.0000
  Hf  Hf51      1.0  0.15683  0.88469  0.33774  1.0000
  Hf  Hf52      1.0  0.15866  0.88961  0.83288  1.0000
  Hf  Hf53      1.0  0.41191  0.39159  0.33059  1.0000
  Hf  Hf54      1.0  0.40849  0.38534  0.83168  1.0000
  Hf  Hf55      1.0  0.40768  0.89085  0.33466  1.0000
  Hf  Hf56      1.0  0.40835  0.89092  0.83647  1.0000
  Hf  Hf57      1.0  0.65671  0.38057  0.34168  1.0000
  Hf  Hf58      1.0  0.65869  0.39018  0.83355  1.0000
  Hf  Hf59      1.0  0.65804  0.88859  0.33732  1.0000
  Hf  Hf60      1.0  0.66004  0.88611  0.83329  1.0000
  Hf  Hf61      1.0  0.90919  0.38619  0.32982  1.0000
  Hf  Hf62      1.0  0.91165  0.38889  0.82642  1.0000
  Hf  Hf63      1.0  0.90986  0.88603  0.33134  1.0000
  Hf  Hf64      1.0  0.91163  0.88677  0.83250  1.0000
  Hf  Hf65      1.0  0.19197  0.31547  0.08519  1.0000
  Hf  Hf66      1.0  0.19504  0.32909  0.57527  1.0000
  Hf  Hf67      1.0  0.19379  0.82454  0.07422  1.0000
  Hf  Hf68      1.0  0.19544  0.81831  0.58358  1.0000
  Hf  Hf69      1.0  0.44185  0.32152  0.08341  1.0000
  Hf  Hf70      1.0  0.44385  0.31995  0.58531  1.0000
  Hf  Hf71      1.0  0.44343  0.81535  0.09367  1.0000
  Hf  Hf72      1.0  0.44542  0.81968  0.57441  1.0000
  Hf  Hf73      1.0  0.69595  0.30609  0.08865  1.0000
  Hf  Hf74      1.0  0.69147  0.31542  0.58935  1.0000
  Hf  Hf75      1.0  0.69355  0.81597  0.08960  1.0000
  Hf  Hf76      1.0  0.69328  0.81534  0.58457  1.0000
  Hf  Hf77      1.0  0.93981  0.31671  0.08456  1.0000
  Hf  Hf78      1.0  0.94196  0.31639  0.58391  1.0000
  Hf  Hf79      1.0  0.94592  0.81474  0.08154  1.0000
  Hf  Hf80      1.0  0.94445  0.81202  0.58065  1.0000
  Hf  Hf81      1.0  0.09085  0.11007  0.16791  1.0000
  Hf  Hf82      1.0  0.09407  0.11522  0.65372  1.0000
  Hf  Hf83      1.0  0.09606  0.61703  0.15516  1.0000
  Hf  Hf84      1.0  0.09323  0.62009  0.66558  1.0000
  Hf  Hf85      1.0  0.34117  0.11652  0.16671  1.0000
  Hf  Hf86      1.0  0.34312  0.11779  0.66146  1.0000
  Hf  Hf87      1.0  0.34356  0.61166  0.16277  1.0000
  Hf  Hf88      1.0  0.34096  0.61513  0.66914  1.0000
  Hf  Hf89      1.0  0.59067  0.11183  0.16494  1.0000
  Hf  Hf90      1.0  0.59213  0.10915  0.67192  1.0000
  Hf  Hf91      1.0  0.59130  0.60557  0.17090  1.0000
  Hf  Hf92      1.0  0.58809  0.60770  0.67064  1.0000
  Hf  Hf93      1.0  0.84212  0.10190  0.17142  1.0000
  Hf  Hf94      1.0  0.83978  0.11069  0.66834  1.0000
  Hf  Hf95      1.0  0.84248  0.60826  0.16799  1.0000
  Hf  Hf96      1.0  0.83714  0.60710  0.67383  1.0000
  F   F1        1.0  0.07502  0.12628  0.30539  1.0000
  F   F2        1.0  0.08029  0.14566  0.79220  1.0000
  F   F3        1.0  0.08506  0.63357  0.29216  1.0000
  F   F4        1.0  0.08159  0.61247  0.81274  1.0000
  F   F5        1.0  0.32472  0.12687  0.30077  1.0000
  F   F6        1.0  0.32655  0.12120  0.80789  1.0000
  F   F7        1.0  0.33242  0.62267  0.31058  1.0000
  F   F8        1.0  0.34015  0.64144  0.78589  1.0000
  F   F9        1.0  0.58169  0.14460  0.28956  1.0000
  F   F10       1.0  0.58212  0.13064  0.80646  1.0000
  F   F11       1.0  0.57479  0.61713  0.31472  1.0000
  F   F12       1.0  0.57980  0.63519  0.80380  1.0000
  F   F13       1.0  0.83645  0.13093  0.30108  1.0000
  F   F14       1.0  0.82800  0.12906  0.80178  1.0000
  F   F15       1.0  0.83088  0.62424  0.31059  1.0000
  F   F16       1.0  0.82461  0.62270  0.81078  1.0000
  F   F17       1.0  0.19147  0.34582  0.44070  1.0000
  F   F18       1.0  0.18093  0.34259  0.94761  1.0000
  F   F19       1.0  0.18801  0.85073  0.44143  1.0000
  F   F20       1.0  0.18677  0.85273  0.94316  1.0000
  F   F21       1.0  0.43453  0.34427  0.44741  1.0000
  F   F22       1.0  0.43733  0.34577  0.93604  1.0000
  F   F23       1.0  0.44362  0.85600  0.43590  1.0000
  F   F24       1.0  0.43517  0.84347  0.95322  1.0000
  F   F25       1.0  0.68412  0.33407  0.44836  1.0000
  F   F26       1.0  0.69674  0.33988  0.94403  1.0000
  F   F27       1.0  0.68351  0.83916  0.45169  1.0000
  F   F28       1.0  0.68811  0.83442  0.95011  1.0000
  F   F29       1.0  0.94040  0.33542  0.44696  1.0000
  F   F30       1.0  0.94307  0.34831  0.93617  1.0000
  F   F31       1.0  0.93434  0.83813  0.44345  1.0000
  F   F32       1.0  0.93848  0.82686  0.95084  1.0000
  F   F33       1.0  0.16322  0.36352  0.20905  1.0000
  F   F34       1.0  0.17129  0.38411  0.68901  1.0000
  F   F35       1.0  0.16885  0.86201  0.20067  1.0000
  F   F36       1.0  0.17226  0.85956  0.69870  1.0000
  F   F37       1.0  0.42361  0.37188  0.19347  1.0000
  F   F38       1.0  0.42317  0.35718  0.70588  1.0000
  F   F39       1.0  0.40878  0.86073  0.21245  1.0000
  F   F40       1.0  0.42254  0.87649  0.70091  1.0000
  F   F41       1.0  0.67221  0.35785  0.20830  1.0000
  F   F42       1.0  0.66626  0.35510  0.71179  1.0000
  F   F43       1.0  0.66766  0.87463  0.19931  1.0000
  F   F44       1.0  0.66127  0.85877  0.71032  1.0000
  F   F45       1.0  0.91972  0.37222  0.19614  1.0000
  F   F46       1.0  0.92375  0.38172  0.68540  1.0000
  F   F47       1.0  0.91380  0.85349  0.20331  1.0000
  F   F48       1.0  0.92151  0.86027  0.70236  1.0000
  F   F49       1.0  0.05945  0.14835  0.05700  1.0000
  F   F50       1.0  0.06543  0.16743  0.54327  1.0000
  F   F51       1.0  0.06861  0.65763  0.05063  1.0000
  F   F52       1.0  0.06625  0.66860  0.54556  1.0000
  F   F53       1.0  0.31384  0.16277  0.04605  1.0000
  F   F54       1.0  0.31466  0.16008  0.55113  1.0000
  F   F55       1.0  0.31094  0.66103  0.04738  1.0000
  F   F56       1.0  0.31497  0.66283  0.55526  1.0000
  F   F57       1.0  0.55890  0.15405  0.05773  1.0000
  F   F58       1.0  0.56438  0.14664  0.55492  1.0000
  F   F59       1.0  0.55238  0.65009  0.07403  1.0000
  F   F60       1.0  0.56463  0.67126  0.55480  1.0000
  F   F61       1.0  0.82002  0.16387  0.05199  1.0000
  F   F62       1.0  0.80482  0.15201  0.57117  1.0000
  F   F63       1.0  0.81356  0.65933  0.06317  1.0000
  F   F64       1.0  0.80692  0.66182  0.56378  1.0000
  F   F65       1.0  0.20105  0.20012  0.20848  1.0000
  F   F66       1.0  0.19360  0.21636  0.70363  1.0000
  F   F67       1.0  0.20620  0.71124  0.20457  1.0000
  F   F68       1.0  0.20476  0.68695  0.73228  1.0000
  F   F69       1.0  0.45505  0.21391  0.20415  1.0000
  F   F70       1.0  0.46920  0.20245  0.71041  1.0000
  F   F71       1.0  0.46478  0.70291  0.22113  1.0000
  F   F72       1.0  0.45684  0.68972  0.71398  1.0000
  F   F73       1.0  0.71100  0.19608  0.21223  1.0000
  F   F74       1.0  0.70492  0.19638  0.71788  1.0000
  F   F75       1.0  0.70165  0.69598  0.22186  1.0000
  F   F76       1.0  0.70025  0.70588  0.70973  1.0000
  F   F77       1.0  0.94535  0.20671  0.21343  1.0000
  F   F78       1.0  0.94573  0.20274  0.71631  1.0000
  F   F79       1.0  0.95878  0.69150  0.20471  1.0000
  F   F80       1.0  0.95361  0.70499  0.70489  1.0000
  F   F81       1.0  0.14516  0.11604  0.02731  1.0000
  F   F82       1.0  0.14973  0.09103  0.52437  1.0000
  F   F83       1.0  0.15216  0.59207  0.03795  1.0000
  F   F84       1.0  0.15145  0.60699  0.54805  1.0000
  F   F85       1.0  0.39847  0.08670  0.04614  1.0000
  F   F86       1.0  0.40070  0.11342  0.53414  1.0000
  F   F87       1.0  0.39873  0.61101  0.03501  1.0000
  F   F88       1.0  0.39849  0.58982  0.54693  1.0000
  F   F89       1.0  0.64713  0.09252  0.03773  1.0000
  F   F90       1.0  0.65004  0.10159  0.54545  1.0000
  F   F91       1.0  0.64816  0.60164  0.04165  1.0000
  F   F92       1.0  0.64808  0.58670  0.54405  1.0000
  F   F93       1.0  0.90343  0.07963  0.04523  1.0000
  F   F94       1.0  0.89773  0.08569  0.53940  1.0000
  F   F95       1.0  0.89792  0.59387  0.03763  1.0000
  F   F96       1.0  0.89427  0.59554  0.55228  1.0000
  F   F97       1.0  0.15032  0.19861  0.12649  1.0000
  F   F98       1.0  0.14713  0.19773  0.60777  1.0000
  F   F99       1.0  0.15784  0.70567  0.11129  1.0000
  F   F100      1.0  0.14736  0.71089  0.64706  1.0000
  F   F101      1.0  0.40407  0.19746  0.12151  1.0000
  F   F102      1.0  0.40281  0.20445  0.64406  1.0000
  F   F103      1.0  0.40628  0.69432  0.13979  1.0000
  F   F104      1.0  0.40209  0.70925  0.61929  1.0000
  F   F105      1.0  0.66034  0.18725  0.12766  1.0000
  F   F106      1.0  0.64795  0.20761  0.62603  1.0000
  F   F107      1.0  0.65331  0.69438  0.14151  1.0000
  F   F108      1.0  0.64410  0.70442  0.62030  1.0000
  F   F109      1.0  0.90006  0.19996  0.11716  1.0000
  F   F110      1.0  0.89751  0.19047  0.62449  1.0000
  F   F111      1.0  0.89975  0.69797  0.13306  1.0000
  F   F112      1.0  0.90136  0.69827  0.62907  1.0000
  F   F113      1.0  0.08979  0.30439  0.38215  1.0000
  F   F114      1.0  0.09969  0.29742  0.88396  1.0000
  F   F115      1.0  0.09503  0.80861  0.36802  1.0000
  F   F116      1.0  0.10125  0.81170  0.87182  1.0000
  F   F117      1.0  0.35380  0.30686  0.36889  1.0000
  F   F118      1.0  0.34744  0.30334  0.86214  1.0000
  F   F119      1.0  0.34110  0.80712  0.39042  1.0000
  F   F120      1.0  0.34997  0.80373  0.88116  1.0000
  F   F121      1.0  0.59822  0.29087  0.36934  1.0000
  F   F122      1.0  0.60222  0.30154  0.87280  1.0000
  F   F123      1.0  0.59219  0.80374  0.37163  1.0000
  F   F124      1.0  0.59989  0.79567  0.88467  1.0000
  F   F125      1.0  0.84887  0.30401  0.38114  1.0000
  F   F126      1.0  0.85287  0.28770  0.85538  1.0000
  F   F127      1.0  0.84868  0.79617  0.38471  1.0000
  F   F128      1.0  0.84731  0.80153  0.85959  1.0000
  F   F129      1.0  0.06468  0.25302  0.14134  1.0000
  F   F130      1.0  0.06342  0.26085  0.63581  1.0000
  F   F131      1.0  0.06792  0.74876  0.13086  1.0000
  F   F132      1.0  0.07265  0.75949  0.63198  1.0000
  F   F133      1.0  0.31369  0.25085  0.14426  1.0000
  F   F134      1.0  0.32288  0.25840  0.62439  1.0000
  F   F135      1.0  0.31605  0.75148  0.14310  1.0000
  F   F136      1.0  0.30850  0.75082  0.65163  1.0000
  F   F137      1.0  0.56714  0.25127  0.12783  1.0000
  F   F138      1.0  0.56576  0.25098  0.63658  1.0000
  F   F139      1.0  0.57007  0.74893  0.13110  1.0000
  F   F140      1.0  0.55091  0.73960  0.67059  1.0000
  F   F141      1.0  0.81343  0.25779  0.14482  1.0000
  F   F142      1.0  0.81947  0.25616  0.62584  1.0000
  F   F143      1.0  0.80768  0.74218  0.15937  1.0000
  F   F144      1.0  0.82040  0.75691  0.63101  1.0000
  F   F145      1.0  0.12407  0.37510  0.10031  1.0000
  F   F146      1.0  0.12756  0.37817  0.59395  1.0000
  F   F147      1.0  0.11771  0.86243  0.12187  1.0000
  F   F148      1.0  0.12731  0.87844  0.59620  1.0000
  F   F149      1.0  0.37228  0.37276  0.10668  1.0000
  F   F150      1.0  0.37306  0.37688  0.62454  1.0000
  F   F151      1.0  0.37331  0.87361  0.10264  1.0000
  F   F152      1.0  0.37401  0.87429  0.61506  1.0000
  F   F153      1.0  0.62333  0.35789  0.12334  1.0000
  F   F154      1.0  0.62352  0.37903  0.59952  1.0000
  F   F155      1.0  0.62501  0.86911  0.10220  1.0000
  F   F156      1.0  0.62140  0.86574  0.61015  1.0000
  F   F157      1.0  0.87342  0.38734  0.08528  1.0000
  F   F158      1.0  0.87314  0.35910  0.62047  1.0000
  F   F159      1.0  0.87300  0.87716  0.09743  1.0000
  F   F160      1.0  0.87467  0.87911  0.61015  1.0000
  F   F161      1.0  0.18330  0.25320  0.35284  1.0000
  F   F162      1.0  0.19582  0.25900  0.83254  1.0000
  F   F163      1.0  0.18312  0.75503  0.36401  1.0000
  F   F164      1.0  0.18133  0.74974  0.87435  1.0000
  F   F165      1.0  0.43486  0.24875  0.36332  1.0000
  F   F166      1.0  0.43050  0.24855  0.86718  1.0000
  F   F167      1.0  0.42760  0.74768  0.39257  1.0000
  F   F168      1.0  0.43267  0.75232  0.85901  1.0000
  F   F169      1.0  0.67774  0.24168  0.37618  1.0000
  F   F170      1.0  0.68896  0.24762  0.86249  1.0000
  F   F171      1.0  0.68726  0.74449  0.36039  1.0000
  F   F172      1.0  0.69431  0.75400  0.84810  1.0000
  F   F173      1.0  0.93732  0.25165  0.34403  1.0000
  F   F174      1.0  0.93499  0.23799  0.87210  1.0000
  F   F175      1.0  0.94061  0.75478  0.33895  1.0000
  F   F176      1.0  0.93648  0.74986  0.84990  1.0000
  F   F177      1.0  0.12290  0.13126  0.38218  1.0000
  F   F178      1.0  0.12484  0.11692  0.90273  1.0000
  F   F179      1.0  0.12645  0.61387  0.41373  1.0000
  F   F180      1.0  0.12741  0.62669  0.89866  1.0000
  F   F181      1.0  0.37669  0.12988  0.37642  1.0000
  F   F182      1.0  0.38059  0.12745  0.88230  1.0000
  F   F183      1.0  0.37997  0.64120  0.38723  1.0000
  F   F184      1.0  0.37407  0.62592  0.89805  1.0000
  F   F185      1.0  0.62175  0.11328  0.40337  1.0000
  F   F186      1.0  0.62208  0.12977  0.89883  1.0000
  F   F187      1.0  0.62129  0.62683  0.39999  1.0000
  F   F188      1.0  0.62511  0.61783  0.90644  1.0000
  F   F189      1.0  0.87414  0.11576  0.40693  1.0000
  F   F190      1.0  0.87536  0.10419  0.90480  1.0000
  F   F191      1.0  0.87796  0.63281  0.40039  1.0000
  F   F192      1.0  0.87568  0.63290  0.88379  1.0000
  F   F193      1.0  0.00516  0.36303  0.06996  1.0000
  F   F194      1.0  0.01277  0.36502  0.56057  1.0000
  F   F195      1.0  0.00703  0.85079  0.08020  1.0000
  F   F196      1.0  0.01000  0.85979  0.56841  1.0000
  F   F197      1.0  0.25384  0.36002  0.07708  1.0000
  F   F198      1.0  0.25864  0.37032  0.57106  1.0000
  F   F199      1.0  0.25702  0.87950  0.06929  1.0000
  F   F200      1.0  0.25841  0.86720  0.56525  1.0000
  F   F201      1.0  0.50844  0.36725  0.06335  1.0000
  F   F202      1.0  0.51172  0.36348  0.56722  1.0000
  F   F203      1.0  0.50492  0.86983  0.08858  1.0000
  F   F204      1.0  0.50030  0.85746  0.58384  1.0000
  F   F205      1.0  0.75907  0.35328  0.06751  1.0000
  F   F206      1.0  0.75525  0.35258  0.58916  1.0000
  F   F207      1.0  0.75939  0.87333  0.06671  1.0000
  F   F208      1.0  0.75794  0.86599  0.57144  1.0000
  F   F209      1.0  0.06973  0.48798  0.16920  1.0000
  F   F210      1.0  0.06863  0.48746  0.67135  1.0000
  F   F211      1.0  0.06853  0.97786  0.17848  1.0000
  F   F212      1.0  0.07216  0.99184  0.65973  1.0000
  F   F213      1.0  0.32315  0.49166  0.15746  1.0000
  F   F214      1.0  0.31952  0.48640  0.67639  1.0000
  F   F215      1.0  0.31946  0.98647  0.17571  1.0000
  F   F216      1.0  0.31412  0.99022  0.68397  1.0000
  F   F217      1.0  0.57402  0.48468  0.17241  1.0000
  F   F218      1.0  0.57153  0.48199  0.67565  1.0000
  F   F219      1.0  0.56718  0.98485  0.16896  1.0000
  F   F220      1.0  0.57095  0.98480  0.66784  1.0000
  F   F221      1.0  0.81683  0.48807  0.17747  1.0000
  F   F222      1.0  0.82017  0.47479  0.67607  1.0000
  F   F223      1.0  0.81514  0.98317  0.18115  1.0000
  F   F224      1.0  0.81793  0.98710  0.66905  1.0000
  F   F225      1.0  0.24209  0.13655  0.42167  1.0000
  F   F226      1.0  0.23818  0.13517  0.94740  1.0000
  F   F227      1.0  0.24534  0.64538  0.41095  1.0000
  F   F228      1.0  0.24504  0.64469  0.91889  1.0000
  F   F229      1.0  0.48776  0.12913  0.43840  1.0000
  F   F230      1.0  0.49309  0.13862  0.92104  1.0000
  F   F231      1.0  0.48871  0.64171  0.43656  1.0000
  F   F232      1.0  0.48990  0.63273  0.93730  1.0000
  F   F233      1.0  0.73994  0.15540  0.41974  1.0000
  F   F234      1.0  0.74168  0.12206  0.93877  1.0000
  F   F235      1.0  0.74588  0.63632  0.42291  1.0000
  F   F236      1.0  0.74165  0.63074  0.93691  1.0000
  F   F237      1.0  0.99182  0.13013  0.43089  1.0000
  F   F238      1.0  0.99278  0.14327  0.91826  1.0000
  F   F239      1.0  0.99137  0.64519  0.42453  1.0000
  F   F240      1.0  0.99741  0.64282  0.91113  1.0000
  F   F241      1.0  0.18391  0.02388  0.30951  1.0000
  F   F242      1.0  0.18276  0.02068  0.81752  1.0000
  F   F243      1.0  0.18570  0.52265  0.31520  1.0000
  F   F244      1.0  0.18094  0.51881  0.81678  1.0000
  F   F245      1.0  0.43271  0.02314  0.31021  1.0000
  F   F246      1.0  0.43688  0.01976  0.81306  1.0000
  F   F247      1.0  0.43393  0.51447  0.32447  1.0000
  F   F248      1.0  0.43430  0.52042  0.80857  1.0000
  F   F249      1.0  0.68322  0.01893  0.32290  1.0000
  F   F250      1.0  0.67413  0.01286  0.84316  1.0000
  F   F251      1.0  0.68547  0.51251  0.32739  1.0000
  F   F252      1.0  0.68162  0.51486  0.82798  1.0000
  F   F253      1.0  0.93053  0.01475  0.32935  1.0000
  F   F254      1.0  0.93724  0.00873  0.81673  1.0000
  F   F255      1.0  0.93254  0.51610  0.32154  1.0000
  F   F256      1.0  0.93457  0.51615  0.81269  1.0000
  F   F257      1.0  0.00065  0.24819  0.99735  1.0000
  F   F258      1.0  0.99627  0.23515  0.51283  1.0000
  F   F259      1.0  0.00278  0.73736  0.99562  1.0000
  F   F260      1.0  0.99767  0.75140  0.49756  1.0000
  F   F261      1.0  0.24835  0.26427  0.99633  1.0000
  F   F262      1.0  0.24785  0.24038  0.50828  1.0000
  F   F263      1.0  0.25374  0.77278  0.98512  1.0000
  F   F264      1.0  0.23763  0.72387  0.53283  1.0000
  F   F265      1.0  0.49574  0.25710  0.99799  1.0000
  F   F266      1.0  0.49556  0.23664  0.51078  1.0000
  F   F267      1.0  0.50195  0.76478  0.00395  1.0000
  F   F268      1.0  0.49916  0.74887  0.49836  1.0000
  F   F269      1.0  0.75346  0.24213  0.00075  1.0000
  F   F270      1.0  0.74539  0.24164  0.51454  1.0000
  F   F271      1.0  0.75172  0.74032  0.01640  1.0000
  F   F272      1.0  0.74882  0.75539  0.50015  1.0000
  F   F273      1.0  0.12980  0.00394  0.23897  1.0000
  F   F274      1.0  0.12717  0.99995  0.74336  1.0000
  F   F275      1.0  0.12818  0.50353  0.24799  1.0000
  F   F276      1.0  0.13351  0.51410  0.74113  1.0000
  F   F277      1.0  0.37058  0.99746  0.25518  1.0000
  F   F278      1.0  0.38374  0.01356  0.73134  1.0000
  F   F279      1.0  0.38078  0.50310  0.23691  1.0000
  F   F280      1.0  0.37795  0.50374  0.74504  1.0000
  F   F281      1.0  0.62152  0.00327  0.25283  1.0000
  F   F282      1.0  0.63065  0.00465  0.74110  1.0000
  F   F283      1.0  0.62614  0.50068  0.25421  1.0000
  F   F284      1.0  0.62602  0.50122  0.74856  1.0000
  F   F285      1.0  0.87380  0.99730  0.24950  1.0000
  F   F286      1.0  0.86394  0.99230  0.76752  1.0000
  F   F287      1.0  0.87174  0.49047  0.25331  1.0000
  F   F288      1.0  0.87135  0.49909  0.75301  1.0000
  F   F289      1.0  0.04256  0.02741  0.01680  1.0000
  F   F290      1.0  0.04369  0.03806  0.52325  1.0000
  F   F291      1.0  0.03934  0.53020  0.02651  1.0000
  F   F292      1.0  0.04336  0.53602  0.52067  1.0000
  F   F293      1.0  0.29662  0.03498  0.02328  1.0000
  F   F294      1.0  0.28907  0.03056  0.53319  1.0000
  F   F295      1.0  0.29323  0.53101  0.00450  1.0000
  F   F296      1.0  0.28861  0.53675  0.52787  1.0000
  F   F297      1.0  0.53719  0.02873  0.03371  1.0000
  F   F298      1.0  0.53859  0.02265  0.52412  1.0000
  F   F299      1.0  0.54605  0.51573  0.02960  1.0000
  F   F300      1.0  0.53765  0.53580  0.52273  1.0000
  F   F301      1.0  0.78556  0.03045  0.03719  1.0000
  F   F302      1.0  0.77957  0.03781  0.52700  1.0000
  F   F303      1.0  0.79628  0.52551  0.02062  1.0000
  F   F304      1.0  0.79629  0.52950  0.51997  1.0000
  F   F305      1.0  0.23425  0.42334  0.20920  1.0000
  F   F306      1.0  0.23530  0.41424  0.72686  1.0000
  F   F307      1.0  0.23345  0.91339  0.23618  1.0000
  F   F308      1.0  0.23776  0.91155  0.72057  1.0000
  F   F309      1.0  0.48180  0.42743  0.21415  1.0000
  F   F310      1.0  0.48802  0.40258  0.72834  1.0000
  F   F311      1.0  0.48343  0.90761  0.23419  1.0000
  F   F312      1.0  0.48705  0.90583  0.72701  1.0000
  F   F313      1.0  0.73346  0.39579  0.23717  1.0000
  F   F314      1.0  0.73280  0.42229  0.73003  1.0000
  F   F315      1.0  0.73128  0.89917  0.23556  1.0000
  F   F316      1.0  0.73480  0.92491  0.72316  1.0000
  F   F317      1.0  0.98394  0.40677  0.23492  1.0000
  F   F318      1.0  0.98508  0.42561  0.71364  1.0000
  F   F319      1.0  0.98170  0.92189  0.22369  1.0000
  F   F320      1.0  0.99053  0.90226  0.73525  1.0000
  F   F321      1.0  0.20893  0.47679  0.47178  1.0000
  F   F322      1.0  0.20763  0.47289  0.97384  1.0000
  F   F323      1.0  0.21371  0.97055  0.46742  1.0000
  F   F324      1.0  0.19634  0.97564  0.99388  1.0000
  F   F325      1.0  0.45339  0.47174  0.48183  1.0000
  F   F326      1.0  0.44505  0.47925  0.98401  1.0000
  F   F327      1.0  0.45661  0.97829  0.47467  1.0000
  F   F328      1.0  0.45669  0.97274  0.97674  1.0000
  F   F329      1.0  0.71128  0.46110  0.47539  1.0000
  F   F330      1.0  0.70002  0.47217  0.98573  1.0000
  F   F331      1.0  0.70227  0.97161  0.48329  1.0000
  F   F332      1.0  0.70611  0.96414  0.98427  1.0000
  F   F333      1.0  0.94565  0.47627  0.48146  1.0000
  F   F334      1.0  0.95458  0.48719  0.98023  1.0000
  F   F335      1.0  0.95459  0.97217  0.47651  1.0000
  F   F336      1.0  0.96174  0.95647  0.97481  1.0000
  F   F337      1.0  0.01615  0.08216  0.27320  1.0000
  F   F338      1.0  0.01480  0.08741  0.76858  1.0000
  F   F339      1.0  0.01711  0.58688  0.27674  1.0000
  F   F340      1.0  0.01559  0.57670  0.77676  1.0000
  F   F341      1.0  0.26309  0.11001  0.26249  1.0000
  F   F342      1.0  0.25978  0.10473  0.77565  1.0000
  F   F343      1.0  0.26973  0.58765  0.25433  1.0000
  F   F344      1.0  0.27326  0.56753  0.78454  1.0000
  F   F345      1.0  0.51663  0.09918  0.26537  1.0000
  F   F346      1.0  0.52100  0.07435  0.77801  1.0000
  F   F347      1.0  0.51534  0.56770  0.29796  1.0000
  F   F348      1.0  0.51582  0.56633  0.78640  1.0000
  F   F349      1.0  0.76942  0.08406  0.27954  1.0000
  F   F350      1.0  0.76484  0.08805  0.77182  1.0000
  F   F351      1.0  0.76825  0.56630  0.28428  1.0000
  F   F352      1.0  0.76203  0.59179  0.77654  1.0000
  F   F353      1.0  0.10049  0.41620  0.45744  1.0000
  F   F354      1.0  0.09584  0.41676  0.95050  1.0000
  F   F355      1.0  0.10320  0.92315  0.45014  1.0000
  F   F356      1.0  0.10128  0.91239  0.95825  1.0000
  F   F357      1.0  0.35317  0.41618  0.46450  1.0000
  F   F358      1.0  0.34686  0.39235  0.96270  1.0000
  F   F359      1.0  0.35364  0.91093  0.46195  1.0000
  F   F360      1.0  0.35455  0.92856  0.95054  1.0000
  F   F361      1.0  0.59893  0.40531  0.46372  1.0000
  F   F362      1.0  0.60317  0.40050  0.96536  1.0000
  F   F363      1.0  0.59648  0.89444  0.46109  1.0000
  F   F364      1.0  0.59735  0.91444  0.96253  1.0000
  F   F365      1.0  0.85126  0.42205  0.46309  1.0000
  F   F366      1.0  0.85735  0.40195  0.94872  1.0000
  F   F367      1.0  0.84879  0.92292  0.46143  1.0000
  F   F368      1.0  0.85283  0.89051  0.95644  1.0000
  F   F369      1.0  0.04928  0.30141  0.27991  1.0000
  F   F370      1.0  0.04676  0.31314  0.78552  1.0000
  F   F371      1.0  0.04178  0.79699  0.28276  1.0000
  F   F372      1.0  0.05428  0.79333  0.78420  1.0000
  F   F373      1.0  0.29642  0.30483  0.28670  1.0000
  F   F374      1.0  0.28780  0.30351  0.78946  1.0000
  F   F375      1.0  0.29190  0.79645  0.29494  1.0000
  F   F376      1.0  0.29979  0.80293  0.79125  1.0000
  F   F377      1.0  0.53550  0.29701  0.29790  1.0000
  F   F378      1.0  0.54977  0.29114  0.79247  1.0000
  F   F379      1.0  0.54872  0.79286  0.27737  1.0000
  F   F380      1.0  0.54237  0.80246  0.80519  1.0000
  F   F381      1.0  0.80266  0.30190  0.28980  1.0000
  F   F382      1.0  0.78719  0.28348  0.80609  1.0000
  F   F383      1.0  0.80669  0.79494  0.28366  1.0000
  F   F384      1.0  0.79423  0.78842  0.78824  1.0000
