data_image0
_chemical_formula_structural       Hf96F384
_chemical_formula_sum              "Hf96 F384"
_cell_length_a       31.0246
_cell_length_b       15.5128
_cell_length_c       15.5031
_cell_angle_alpha    63.342
_cell_angle_beta     63.342
_cell_angle_gamma    80.1625

_space_group_name_H-M_alt    "P 1"
_space_group_IT_number       1

loop_
  _space_group_symop_operation_xyz
  'x, y, z'

loop_
  _atom_site_type_symbol
  _atom_site_label
  _atom_site_symmetry_multiplicity
  _atom_site_fract_x
  _atom_site_fract_y
  _atom_site_fract_z
  _atom_site_occupancy
  Hf  Hf1       1.0  0.19639  0.10764  0.37500  1.0000
  Hf  Hf2       1.0  0.19515  0.11488  0.86430  1.0000
  Hf  Hf3       1.0  0.19721  0.60733  0.35739  1.0000
  Hf  Hf4       1.0  0.19780  0.60300  0.87696  1.0000
  Hf  Hf5       1.0  0.44617  0.10386  0.37821  1.0000
  Hf  Hf6       1.0  0.44487  0.11403  0.88178  1.0000
  Hf  Hf7       1.0  0.44788  0.60416  0.38075  1.0000
  Hf  Hf8       1.0  0.44664  0.60888  0.87025  1.0000
  Hf  Hf9       1.0  0.69961  0.10331  0.37911  1.0000
  Hf  Hf10      1.0  0.69671  0.10562  0.87829  1.0000
  Hf  Hf11      1.0  0.69585  0.60075  0.38479  1.0000
  Hf  Hf12      1.0  0.69397  0.60201  0.87824  1.0000
  Hf  Hf13      1.0  0.94232  0.11391  0.37835  1.0000
  Hf  Hf14      1.0  0.94521  0.11441  0.86659  1.0000
  Hf  Hf15      1.0  0.94777  0.61304  0.36761  1.0000
  Hf  Hf16      1.0  0.95079  0.60636  0.87001  1.0000
  Hf  Hf17      1.0  0.05218  0.39826  0.12306  1.0000
  Hf  Hf18      1.0  0.05074  0.40014  0.62300  1.0000
  Hf  Hf19      1.0  0.05382  0.89633  0.12378  1.0000
  Hf  Hf20      1.0  0.05732  0.89223  0.61785  1.0000
  Hf  Hf21      1.0  0.30387  0.39343  0.12378  1.0000
  Hf  Hf22      1.0  0.30101  0.39443  0.63573  1.0000
  Hf  Hf23      1.0  0.30441  0.89386  0.12814  1.0000
  Hf  Hf24      1.0  0.30479  0.89209  0.62072  1.0000
  Hf  Hf25      1.0  0.55584  0.39281  0.12796  1.0000
  Hf  Hf26      1.0  0.55230  0.38449  0.63540  1.0000
  Hf  Hf27      1.0  0.55473  0.89062  0.11988  1.0000
  Hf  Hf28      1.0  0.55283  0.89207  0.62735  1.0000
  Hf  Hf29      1.0  0.80030  0.38682  0.13375  1.0000
  Hf  Hf30      1.0  0.80173  0.38224  0.63698  1.0000
  Hf  Hf31      1.0  0.80286  0.89347  0.12478  1.0000
  Hf  Hf32      1.0  0.80802  0.89110  0.61727  1.0000
  Hf  Hf33      1.0  0.05411  0.17559  0.41923  1.0000
  Hf  Hf34      1.0  0.05503  0.18483  0.91007  1.0000
  Hf  Hf35      1.0  0.05700  0.68495  0.41652  1.0000
  Hf  Hf36      1.0  0.06108  0.69088  0.89705  1.0000
  Hf  Hf37      1.0  0.30559  0.18521  0.41263  1.0000
  Hf  Hf38      1.0  0.30479  0.18114  0.91758  1.0000
  Hf  Hf39      1.0  0.30748  0.68509  0.41118  1.0000
  Hf  Hf40      1.0  0.30697  0.69363  0.90768  1.0000
  Hf  Hf41      1.0  0.55604  0.17952  0.42092  1.0000
  Hf  Hf42      1.0  0.55593  0.18259  0.91728  1.0000
  Hf  Hf43      1.0  0.55544  0.68240  0.41795  1.0000
  Hf  Hf44      1.0  0.55303  0.67822  0.92624  1.0000
  Hf  Hf45      1.0  0.80685  0.18267  0.42249  1.0000
  Hf  Hf46      1.0  0.80239  0.17432  0.92971  1.0000
  Hf  Hf47      1.0  0.80815  0.67411  0.42387  1.0000
  Hf  Hf48      1.0  0.80482  0.66991  0.92159  1.0000
  Hf  Hf49      1.0  0.15868  0.38292  0.33753  1.0000
  Hf  Hf50      1.0  0.15340  0.38953  0.83565  1.0000
  Hf  Hf51      1.0  0.16191  0.89306  0.32553  1.0000
  Hf  Hf52      1.0  0.16196  0.89276  0.82121  1.0000
  Hf  Hf53      1.0  0.41194  0.39286  0.33023  1.0000
  Hf  Hf54      1.0  0.40271  0.38923  0.83405  1.0000
  Hf  Hf55      1.0  0.41335  0.88856  0.33083  1.0000
  Hf  Hf56      1.0  0.41056  0.89666  0.82698  1.0000
  Hf  Hf57      1.0  0.65669  0.38127  0.34238  1.0000
  Hf  Hf58      1.0  0.65924  0.38666  0.83970  1.0000
  Hf  Hf59      1.0  0.65840  0.88338  0.34428  1.0000
  Hf  Hf60      1.0  0.65937  0.88608  0.83783  1.0000
  Hf  Hf61      1.0  0.90639  0.39316  0.32895  1.0000
  Hf  Hf62      1.0  0.90279  0.38926  0.83937  1.0000
  Hf  Hf63      1.0  0.90980  0.89009  0.32998  1.0000
  Hf  Hf64      1.0  0.90812  0.88565  0.82957  1.0000
  Hf  Hf65      1.0  0.19329  0.31541  0.08080  1.0000
  Hf  Hf66      1.0  0.19766  0.32280  0.57488  1.0000
  Hf  Hf67      1.0  0.19334  0.82772  0.07718  1.0000
  Hf  Hf68      1.0  0.19761  0.81845  0.57402  1.0000
  Hf  Hf69      1.0  0.44278  0.31867  0.08475  1.0000
  Hf  Hf70      1.0  0.44431  0.31828  0.57801  1.0000
  Hf  Hf71      1.0  0.44433  0.81986  0.08569  1.0000
  Hf  Hf72      1.0  0.44364  0.81497  0.58918  1.0000
  Hf  Hf73      1.0  0.69166  0.31063  0.08852  1.0000
  Hf  Hf74      1.0  0.69283  0.31630  0.58599  1.0000
  Hf  Hf75      1.0  0.68890  0.80818  0.09544  1.0000
  Hf  Hf76      1.0  0.69279  0.81676  0.58939  1.0000
  Hf  Hf77      1.0  0.94452  0.31882  0.07890  1.0000
  Hf  Hf78      1.0  0.94270  0.31948  0.58727  1.0000
  Hf  Hf79      1.0  0.94615  0.82453  0.07388  1.0000
  Hf  Hf80      1.0  0.94824  0.82443  0.57958  1.0000
  Hf  Hf81      1.0  0.08732  0.10762  0.16794  1.0000
  Hf  Hf82      1.0  0.09311  0.11323  0.66237  1.0000
  Hf  Hf83      1.0  0.09249  0.61365  0.16349  1.0000
  Hf  Hf84      1.0  0.09641  0.60935  0.65903  1.0000
  Hf  Hf85      1.0  0.34277  0.11892  0.15941  1.0000
  Hf  Hf86      1.0  0.33917  0.11429  0.66236  1.0000
  Hf  Hf87      1.0  0.34191  0.61436  0.16418  1.0000
  Hf  Hf88      1.0  0.34459  0.61405  0.66061  1.0000
  Hf  Hf89      1.0  0.58780  0.10800  0.17548  1.0000
  Hf  Hf90      1.0  0.58936  0.10849  0.67076  1.0000
  Hf  Hf91      1.0  0.59201  0.60456  0.17275  1.0000
  Hf  Hf92      1.0  0.59159  0.61024  0.67077  1.0000
  Hf  Hf93      1.0  0.84425  0.11446  0.16244  1.0000
  Hf  Hf94      1.0  0.83804  0.09993  0.68188  1.0000
  Hf  Hf95      1.0  0.84274  0.61815  0.15803  1.0000
  Hf  Hf96      1.0  0.84123  0.60131  0.67225  1.0000
  F   F1        1.0  0.07431  0.11080  0.31263  1.0000
  F   F2        1.0  0.07659  0.12723  0.81047  1.0000
  F   F3        1.0  0.08349  0.63640  0.30231  1.0000
  F   F4        1.0  0.08703  0.62314  0.79772  1.0000
  F   F5        1.0  0.33126  0.14167  0.29496  1.0000
  F   F6        1.0  0.32727  0.13493  0.80138  1.0000
  F   F7        1.0  0.33310  0.62839  0.29917  1.0000
  F   F8        1.0  0.33117  0.64975  0.78832  1.0000
  F   F9        1.0  0.57336  0.11282  0.31552  1.0000
  F   F10       1.0  0.57890  0.13324  0.80731  1.0000
  F   F11       1.0  0.57804  0.62348  0.31127  1.0000
  F   F12       1.0  0.57657  0.62327  0.80490  1.0000
  F   F13       1.0  0.83823  0.13560  0.30705  1.0000
  F   F14       1.0  0.82569  0.10537  0.82305  1.0000
  F   F15       1.0  0.83792  0.64694  0.29494  1.0000
  F   F16       1.0  0.82871  0.61019  0.80723  1.0000
  F   F17       1.0  0.19436  0.34494  0.43101  1.0000
  F   F18       1.0  0.17697  0.33490  0.95234  1.0000
  F   F19       1.0  0.19217  0.85205  0.43341  1.0000
  F   F20       1.0  0.18552  0.85158  0.94062  1.0000
  F   F21       1.0  0.44188  0.34212  0.44302  1.0000
  F   F22       1.0  0.42583  0.32805  0.95922  1.0000
  F   F23       1.0  0.44026  0.83688  0.44419  1.0000
  F   F24       1.0  0.44242  0.84488  0.94293  1.0000
  F   F25       1.0  0.68882  0.33156  0.45301  1.0000
  F   F26       1.0  0.68510  0.34224  0.95279  1.0000
  F   F27       1.0  0.68084  0.84752  0.45413  1.0000
  F   F28       1.0  0.68351  0.84525  0.95364  1.0000
  F   F29       1.0  0.93681  0.35059  0.44508  1.0000
  F   F30       1.0  0.93496  0.33687  0.94864  1.0000
  F   F31       1.0  0.93736  0.85170  0.43411  1.0000
  F   F32       1.0  0.93817  0.84711  0.94814  1.0000
  F   F33       1.0  0.16612  0.34039  0.21130  1.0000
  F   F34       1.0  0.16316  0.36348  0.69701  1.0000
  F   F35       1.0  0.16924  0.86331  0.19972  1.0000
  F   F36       1.0  0.17879  0.89307  0.67331  1.0000
  F   F37       1.0  0.42741  0.37453  0.18795  1.0000
  F   F38       1.0  0.42106  0.37685  0.69007  1.0000
  F   F39       1.0  0.42157  0.88561  0.18770  1.0000
  F   F40       1.0  0.42440  0.88229  0.68510  1.0000
  F   F41       1.0  0.66863  0.36846  0.19956  1.0000
  F   F42       1.0  0.67282  0.37091  0.69590  1.0000
  F   F43       1.0  0.66725  0.85660  0.20835  1.0000
  F   F44       1.0  0.66951  0.88447  0.69447  1.0000
  F   F45       1.0  0.92535  0.39817  0.18012  1.0000
  F   F46       1.0  0.91416  0.35077  0.70991  1.0000
  F   F47       1.0  0.92627  0.87813  0.18542  1.0000
  F   F48       1.0  0.91901  0.86700  0.69571  1.0000
  F   F49       1.0  0.05630  0.15964  0.05038  1.0000
  F   F50       1.0  0.06612  0.15196  0.55373  1.0000
  F   F51       1.0  0.06624  0.66408  0.05057  1.0000
  F   F52       1.0  0.06275  0.64903  0.55849  1.0000
  F   F53       1.0  0.31464  0.15897  0.05121  1.0000
  F   F54       1.0  0.31755  0.16477  0.54539  1.0000
  F   F55       1.0  0.32027  0.66054  0.04077  1.0000
  F   F56       1.0  0.31668  0.65562  0.54856  1.0000
  F   F57       1.0  0.55680  0.15855  0.05954  1.0000
  F   F58       1.0  0.56228  0.16555  0.55983  1.0000
  F   F59       1.0  0.56707  0.65163  0.05072  1.0000
  F   F60       1.0  0.56707  0.65323  0.54942  1.0000
  F   F61       1.0  0.80925  0.16827  0.06362  1.0000
  F   F62       1.0  0.81194  0.15840  0.56220  1.0000
  F   F63       1.0  0.81637  0.65853  0.04151  1.0000
  F   F64       1.0  0.80416  0.63998  0.57436  1.0000
  F   F65       1.0  0.20705  0.19712  0.20662  1.0000
  F   F66       1.0  0.21391  0.20302  0.70364  1.0000
  F   F67       1.0  0.20126  0.69517  0.20434  1.0000
  F   F68       1.0  0.20172  0.70714  0.69883  1.0000
  F   F69       1.0  0.45340  0.20920  0.21699  1.0000
  F   F70       1.0  0.44356  0.20114  0.71053  1.0000
  F   F71       1.0  0.46251  0.71219  0.21181  1.0000
  F   F72       1.0  0.44818  0.70485  0.71621  1.0000
  F   F73       1.0  0.70785  0.19967  0.21735  1.0000
  F   F74       1.0  0.70743  0.19030  0.70850  1.0000
  F   F75       1.0  0.70625  0.68872  0.21607  1.0000
  F   F76       1.0  0.69099  0.70052  0.73329  1.0000
  F   F77       1.0  0.94805  0.20274  0.22272  1.0000
  F   F78       1.0  0.95790  0.20772  0.70989  1.0000
  F   F79       1.0  0.95848  0.70381  0.19338  1.0000
  F   F80       1.0  0.96619  0.70960  0.70985  1.0000
  F   F81       1.0  0.13942  0.10196  0.03158  1.0000
  F   F82       1.0  0.14651  0.07972  0.54220  1.0000
  F   F83       1.0  0.15366  0.58762  0.03669  1.0000
  F   F84       1.0  0.14721  0.58699  0.53326  1.0000
  F   F85       1.0  0.39713  0.10380  0.04005  1.0000
  F   F86       1.0  0.39958  0.08150  0.53648  1.0000
  F   F87       1.0  0.40813  0.59152  0.02837  1.0000
  F   F88       1.0  0.39603  0.57810  0.54332  1.0000
  F   F89       1.0  0.65064  0.10020  0.03942  1.0000
  F   F90       1.0  0.65017  0.08139  0.55116  1.0000
  F   F91       1.0  0.65024  0.59119  0.04171  1.0000
  F   F92       1.0  0.65281  0.58740  0.53650  1.0000
  F   F93       1.0  0.89692  0.08292  0.03660  1.0000
  F   F94       1.0  0.89569  0.08698  0.55619  1.0000
  F   F95       1.0  0.90283  0.58421  0.03931  1.0000
  F   F96       1.0  0.90045  0.62267  0.53334  1.0000
  F   F97       1.0  0.14790  0.19630  0.12603  1.0000
  F   F98       1.0  0.14583  0.19082  0.63710  1.0000
  F   F99       1.0  0.15129  0.70897  0.11130  1.0000
  F   F100      1.0  0.15853  0.70252  0.60095  1.0000
  F   F101      1.0  0.40247  0.20205  0.13153  1.0000
  F   F102      1.0  0.39712  0.19664  0.61330  1.0000
  F   F103      1.0  0.40307  0.70777  0.11548  1.0000
  F   F104      1.0  0.40422  0.70056  0.61398  1.0000
  F   F105      1.0  0.64535  0.19924  0.14665  1.0000
  F   F106      1.0  0.64946  0.19846  0.61664  1.0000
  F   F107      1.0  0.65301  0.68782  0.12494  1.0000
  F   F108      1.0  0.65212  0.70127  0.62584  1.0000
  F   F109      1.0  0.90490  0.19988  0.11885  1.0000
  F   F110      1.0  0.90659  0.19717  0.62953  1.0000
  F   F111      1.0  0.90648  0.69575  0.11333  1.0000
  F   F112      1.0  0.90965  0.70955  0.63070  1.0000
  F   F113      1.0  0.09825  0.29772  0.38775  1.0000
  F   F114      1.0  0.09643  0.30497  0.87895  1.0000
  F   F115      1.0  0.09910  0.80029  0.37965  1.0000
  F   F116      1.0  0.10515  0.80461  0.86902  1.0000
  F   F117      1.0  0.34876  0.29793  0.36244  1.0000
  F   F118      1.0  0.34701  0.29724  0.88268  1.0000
  F   F119      1.0  0.35243  0.79630  0.37001  1.0000
  F   F120      1.0  0.34795  0.80575  0.87589  1.0000
  F   F121      1.0  0.59780  0.29973  0.38524  1.0000
  F   F122      1.0  0.59890  0.31683  0.86522  1.0000
  F   F123      1.0  0.59938  0.80233  0.37670  1.0000
  F   F124      1.0  0.59838  0.78546  0.87817  1.0000
  F   F125      1.0  0.84927  0.29857  0.35646  1.0000
  F   F126      1.0  0.84535  0.30233  0.88939  1.0000
  F   F127      1.0  0.84485  0.80093  0.35758  1.0000
  F   F128      1.0  0.84481  0.80335  0.86654  1.0000
  F   F129      1.0  0.06828  0.23889  0.13992  1.0000
  F   F130      1.0  0.06594  0.25509  0.63238  1.0000
  F   F131      1.0  0.06610  0.75535  0.14813  1.0000
  F   F132      1.0  0.07069  0.75079  0.62793  1.0000
  F   F133      1.0  0.31950  0.26279  0.12434  1.0000
  F   F134      1.0  0.30883  0.25256  0.64298  1.0000
  F   F135      1.0  0.30908  0.74678  0.15724  1.0000
  F   F136      1.0  0.31967  0.75335  0.63006  1.0000
  F   F137      1.0  0.56410  0.24787  0.15596  1.0000
  F   F138      1.0  0.56070  0.24550  0.65711  1.0000
  F   F139      1.0  0.57143  0.75631  0.13084  1.0000
  F   F140      1.0  0.56659  0.74288  0.64216  1.0000
  F   F141      1.0  0.82358  0.25134  0.13944  1.0000
  F   F142      1.0  0.82313  0.24885  0.65156  1.0000
  F   F143      1.0  0.81696  0.75201  0.13206  1.0000
  F   F144      1.0  0.82787  0.74306  0.62573  1.0000
  F   F145      1.0  0.12538  0.38357  0.10150  1.0000
  F   F146      1.0  0.12522  0.37224  0.59730  1.0000
  F   F147      1.0  0.12416  0.88415  0.10093  1.0000
  F   F148      1.0  0.12578  0.85949  0.62257  1.0000
  F   F149      1.0  0.37064  0.36476  0.13293  1.0000
  F   F150      1.0  0.37234  0.35748  0.62199  1.0000
  F   F151      1.0  0.37269  0.86880  0.12375  1.0000
  F   F152      1.0  0.37207  0.85775  0.63245  1.0000
  F   F153      1.0  0.62492  0.37851  0.10376  1.0000
  F   F154      1.0  0.62418  0.37256  0.61303  1.0000
  F   F155      1.0  0.62214  0.86431  0.12605  1.0000
  F   F156      1.0  0.62573  0.87679  0.60514  1.0000
  F   F157      1.0  0.87613  0.37677  0.10101  1.0000
  F   F158      1.0  0.87470  0.38628  0.59452  1.0000
  F   F159      1.0  0.87440  0.85143  0.12179  1.0000
  F   F160      1.0  0.87962  0.88103  0.58747  1.0000
  F   F161      1.0  0.18479  0.24618  0.36361  1.0000
  F   F162      1.0  0.18271  0.24918  0.85931  1.0000
  F   F163      1.0  0.18634  0.74444  0.35186  1.0000
  F   F164      1.0  0.19289  0.75045  0.84246  1.0000
  F   F165      1.0  0.42773  0.25515  0.36654  1.0000
  F   F166      1.0  0.44457  0.26380  0.83501  1.0000
  F   F167      1.0  0.42284  0.74378  0.38869  1.0000
  F   F168      1.0  0.43379  0.75291  0.85785  1.0000
  F   F169      1.0  0.68504  0.24991  0.36305  1.0000
  F   F170      1.0  0.69083  0.24970  0.85644  1.0000
  F   F171      1.0  0.68986  0.75134  0.36502  1.0000
  F   F172      1.0  0.68125  0.74639  0.86345  1.0000
  F   F173      1.0  0.93023  0.25963  0.35435  1.0000
  F   F174      1.0  0.93162  0.25193  0.85955  1.0000
  F   F175      1.0  0.93871  0.74851  0.34796  1.0000
  F   F176      1.0  0.92730  0.74558  0.87194  1.0000
  F   F177      1.0  0.12442  0.13192  0.39013  1.0000
  F   F178      1.0  0.12726  0.13674  0.88725  1.0000
  F   F179      1.0  0.12589  0.62691  0.40089  1.0000
  F   F180      1.0  0.12522  0.62344  0.90275  1.0000
  F   F181      1.0  0.37816  0.13305  0.38729  1.0000
  F   F182      1.0  0.37648  0.14161  0.88648  1.0000
  F   F183      1.0  0.38141  0.63377  0.38076  1.0000
  F   F184      1.0  0.37665  0.63838  0.88311  1.0000
  F   F185      1.0  0.61988  0.12379  0.41113  1.0000
  F   F186      1.0  0.62469  0.13782  0.89837  1.0000
  F   F187      1.0  0.62541  0.62381  0.40208  1.0000
  F   F188      1.0  0.62113  0.60552  0.91357  1.0000
  F   F189      1.0  0.87253  0.13111  0.41048  1.0000
  F   F190      1.0  0.86991  0.12697  0.89621  1.0000
  F   F191      1.0  0.87584  0.62269  0.41347  1.0000
  F   F192      1.0  0.87931  0.62835  0.88262  1.0000
  F   F193      1.0  0.00872  0.35911  0.07598  1.0000
  F   F194      1.0  0.00723  0.37194  0.56616  1.0000
  F   F195      1.0  0.01009  0.85739  0.07081  1.0000
  F   F196      1.0  0.01132  0.86865  0.57613  1.0000
  F   F197      1.0  0.25411  0.35107  0.07642  1.0000
  F   F198      1.0  0.25603  0.37483  0.56176  1.0000
  F   F199      1.0  0.25492  0.87922  0.08180  1.0000
  F   F200      1.0  0.26136  0.86047  0.57122  1.0000
  F   F201      1.0  0.51442  0.35521  0.07398  1.0000
  F   F202      1.0  0.50830  0.35480  0.57838  1.0000
  F   F203      1.0  0.51128  0.87648  0.05500  1.0000
  F   F204      1.0  0.50838  0.85007  0.58345  1.0000
  F   F205      1.0  0.75727  0.35375  0.08262  1.0000
  F   F206      1.0  0.75878  0.34084  0.59088  1.0000
  F   F207      1.0  0.75366  0.86839  0.07391  1.0000
  F   F208      1.0  0.75583  0.83288  0.60423  1.0000
  F   F209      1.0  0.06381  0.48435  0.17923  1.0000
  F   F210      1.0  0.06757  0.47833  0.68538  1.0000
  F   F211      1.0  0.06696  0.98321  0.18913  1.0000
  F   F212      1.0  0.06703  0.97739  0.67958  1.0000
  F   F213      1.0  0.32199  0.48948  0.17705  1.0000
  F   F214      1.0  0.31628  0.48321  0.68318  1.0000
  F   F215      1.0  0.31722  0.99146  0.18766  1.0000
  F   F216      1.0  0.31916  0.98302  0.66874  1.0000
  F   F217      1.0  0.57058  0.48095  0.18663  1.0000
  F   F218      1.0  0.56849  0.47133  0.68771  1.0000
  F   F219      1.0  0.57531  0.99669  0.15808  1.0000
  F   F220      1.0  0.56350  0.98899  0.67690  1.0000
  F   F221      1.0  0.81980  0.48457  0.16784  1.0000
  F   F222      1.0  0.82002  0.46250  0.69968  1.0000
  F   F223      1.0  0.82094  0.99352  0.17002  1.0000
  F   F224      1.0  0.81627  0.97741  0.67311  1.0000
  F   F225      1.0  0.24004  0.13384  0.42975  1.0000
  F   F226      1.0  0.24277  0.13425  0.91538  1.0000
  F   F227      1.0  0.24679  0.64129  0.41865  1.0000
  F   F228      1.0  0.24746  0.62403  0.93194  1.0000
  F   F229      1.0  0.48680  0.13902  0.43435  1.0000
  F   F230      1.0  0.49009  0.13141  0.94466  1.0000
  F   F231      1.0  0.48969  0.64634  0.42869  1.0000
  F   F232      1.0  0.49441  0.65742  0.89848  1.0000
  F   F233      1.0  0.73950  0.12168  0.44489  1.0000
  F   F234      1.0  0.74389  0.13290  0.92630  1.0000
  F   F235      1.0  0.73943  0.63225  0.44515  1.0000
  F   F236      1.0  0.74166  0.63557  0.92191  1.0000
  F   F237      1.0  0.98788  0.14747  0.42514  1.0000
  F   F238      1.0  0.99259  0.15852  0.90734  1.0000
  F   F239      1.0  0.99528  0.64351  0.42272  1.0000
  F   F240      1.0  0.99588  0.65095  0.90947  1.0000
  F   F241      1.0  0.17714  0.01209  0.32882  1.0000
  F   F242      1.0  0.17608  0.03110  0.80945  1.0000
  F   F243      1.0  0.18092  0.52168  0.31355  1.0000
  F   F244      1.0  0.18201  0.51507  0.82914  1.0000
  F   F245      1.0  0.43527  0.01074  0.32377  1.0000
  F   F246      1.0  0.42502  0.02324  0.83155  1.0000
  F   F247      1.0  0.44296  0.51992  0.31260  1.0000
  F   F248      1.0  0.42450  0.52077  0.82017  1.0000
  F   F249      1.0  0.68429  0.02014  0.33481  1.0000
  F   F250      1.0  0.67437  0.01816  0.82647  1.0000
  F   F251      1.0  0.68172  0.50944  0.33829  1.0000
  F   F252      1.0  0.68278  0.51284  0.82320  1.0000
  F   F253      1.0  0.93001  0.01984  0.31411  1.0000
  F   F254      1.0  0.92412  0.01487  0.82397  1.0000
  F   F255      1.0  0.92594  0.52362  0.31915  1.0000
  F   F256      1.0  0.92804  0.51362  0.83388  1.0000
  F   F257      1.0  0.00079  0.25979  0.99512  1.0000
  F   F258      1.0  0.00145  0.25705  0.49615  1.0000
  F   F259      1.0  0.00396  0.76098  0.97708  1.0000
  F   F260      1.0  0.00796  0.77983  0.47887  1.0000
  F   F261      1.0  0.24520  0.23935  0.00149  1.0000
  F   F262      1.0  0.24450  0.23961  0.50285  1.0000
  F   F263      1.0  0.25057  0.75361  0.99106  1.0000
  F   F264      1.0  0.25312  0.74590  0.50259  1.0000
  F   F265      1.0  0.49618  0.24860  0.00761  1.0000
  F   F266      1.0  0.49973  0.24222  0.51114  1.0000
  F   F267      1.0  0.50442  0.75871  0.99222  1.0000
  F   F268      1.0  0.50123  0.74721  0.50892  1.0000
  F   F269      1.0  0.74425  0.23711  0.01386  1.0000
  F   F270      1.0  0.75432  0.27419  0.48155  1.0000
  F   F271      1.0  0.74723  0.74539  0.00860  1.0000
  F   F272      1.0  0.75298  0.76134  0.48895  1.0000
  F   F273      1.0  0.13380  0.00631  0.23266  1.0000
  F   F274      1.0  0.11875  0.99712  0.75846  1.0000
  F   F275      1.0  0.12643  0.49695  0.24939  1.0000
  F   F276      1.0  0.13854  0.50344  0.72984  1.0000
  F   F277      1.0  0.37926  0.01297  0.23539  1.0000
  F   F278      1.0  0.36447  0.99456  0.77143  1.0000
  F   F279      1.0  0.38399  0.50588  0.23965  1.0000
  F   F280      1.0  0.36646  0.49882  0.75589  1.0000
  F   F281      1.0  0.63236  0.00451  0.25060  1.0000
  F   F282      1.0  0.61184  0.98747  0.77100  1.0000
  F   F283      1.0  0.62726  0.50263  0.25532  1.0000
  F   F284      1.0  0.62460  0.49993  0.75633  1.0000
  F   F285      1.0  0.87354  0.00534  0.24532  1.0000
  F   F286      1.0  0.86832  0.98573  0.75754  1.0000
  F   F287      1.0  0.86622  0.50839  0.25903  1.0000
  F   F288      1.0  0.88832  0.50575  0.72705  1.0000
  F   F289      1.0  0.04422  0.03267  0.01295  1.0000
  F   F290      1.0  0.03771  0.02827  0.53409  1.0000
  F   F291      1.0  0.03310  0.54343  0.03045  1.0000
  F   F292      1.0  0.04955  0.52116  0.50747  1.0000
  F   F293      1.0  0.29598  0.03703  0.01816  1.0000
  F   F294      1.0  0.29463  0.02662  0.51574  1.0000
  F   F295      1.0  0.29935  0.52988  0.01794  1.0000
  F   F296      1.0  0.29331  0.52324  0.53763  1.0000
  F   F297      1.0  0.54679  0.03370  0.02032  1.0000
  F   F298      1.0  0.54002  0.02584  0.53022  1.0000
  F   F299      1.0  0.53480  0.53334  0.04107  1.0000
  F   F300      1.0  0.54399  0.52425  0.51698  1.0000
  F   F301      1.0  0.78755  0.03273  0.03863  1.0000
  F   F302      1.0  0.79680  0.02464  0.52436  1.0000
  F   F303      1.0  0.78672  0.52645  0.02880  1.0000
  F   F304      1.0  0.80029  0.51552  0.52187  1.0000
  F   F305      1.0  0.23284  0.42589  0.20450  1.0000
  F   F306      1.0  0.22746  0.42532  0.71960  1.0000
  F   F307      1.0  0.23287  0.91868  0.22662  1.0000
  F   F308      1.0  0.23683  0.91898  0.71778  1.0000
  F   F309      1.0  0.48817  0.41014  0.23103  1.0000
  F   F310      1.0  0.48253  0.41784  0.73957  1.0000
  F   F311      1.0  0.48846  0.91418  0.21340  1.0000
  F   F312      1.0  0.48304  0.91143  0.73097  1.0000
  F   F313      1.0  0.73512  0.42029  0.23210  1.0000
  F   F314      1.0  0.73328  0.41355  0.72698  1.0000
  F   F315      1.0  0.73182  0.92760  0.22011  1.0000
  F   F316      1.0  0.73209  0.90395  0.74271  1.0000
  F   F317      1.0  0.98542  0.42735  0.22283  1.0000
  F   F318      1.0  0.98117  0.42479  0.71761  1.0000
  F   F319      1.0  0.98491  0.91765  0.22149  1.0000
  F   F320      1.0  0.98117  0.90864  0.72931  1.0000
  F   F321      1.0  0.20540  0.47598  0.46536  1.0000
  F   F322      1.0  0.20888  0.46249  0.97885  1.0000
  F   F323      1.0  0.20564  0.97225  0.47355  1.0000
  F   F324      1.0  0.20390  0.97740  0.97403  1.0000
  F   F325      1.0  0.45338  0.47018  0.48517  1.0000
  F   F326      1.0  0.45667  0.46466  0.96414  1.0000
  F   F327      1.0  0.46252  0.95960  0.47184  1.0000
  F   F328      1.0  0.44849  0.97121  0.98421  1.0000
  F   F329      1.0  0.70976  0.45716  0.48827  1.0000
  F   F330      1.0  0.70593  0.47246  0.97696  1.0000
  F   F331      1.0  0.71381  0.95754  0.48380  1.0000
  F   F332      1.0  0.69837  0.96806  0.98521  1.0000
  F   F333      1.0  0.94900  0.47893  0.48908  1.0000
  F   F334      1.0  0.96374  0.46567  0.96148  1.0000
  F   F335      1.0  0.96068  0.97025  0.47033  1.0000
  F   F336      1.0  0.95615  0.97867  0.97416  1.0000
  F   F337      1.0  0.00559  0.09160  0.27491  1.0000
  F   F338      1.0  0.01052  0.09020  0.76917  1.0000
  F   F339      1.0  0.01607  0.58657  0.27354  1.0000
  F   F340      1.0  0.01728  0.59412  0.76768  1.0000
  F   F341      1.0  0.26600  0.09972  0.27060  1.0000
  F   F342      1.0  0.26658  0.07868  0.77295  1.0000
  F   F343      1.0  0.26686  0.58929  0.25266  1.0000
  F   F344      1.0  0.26244  0.59577  0.76421  1.0000
  F   F345      1.0  0.51484  0.08751  0.27459  1.0000
  F   F346      1.0  0.51394  0.09071  0.77782  1.0000
  F   F347      1.0  0.51756  0.58558  0.27549  1.0000
  F   F348      1.0  0.51479  0.57397  0.76422  1.0000
  F   F349      1.0  0.77146  0.10067  0.27855  1.0000
  F   F350      1.0  0.76630  0.08212  0.77250  1.0000
  F   F351      1.0  0.76683  0.58645  0.28343  1.0000
  F   F352      1.0  0.76394  0.59618  0.76914  1.0000
  F   F353      1.0  0.10656  0.40793  0.45624  1.0000
  F   F354      1.0  0.09489  0.42373  0.95204  1.0000
  F   F355      1.0  0.10196  0.91457  0.46417  1.0000
  F   F356      1.0  0.10180  0.90475  0.95816  1.0000
  F   F357      1.0  0.35653  0.40555  0.46108  1.0000
  F   F358      1.0  0.34480  0.41675  0.95464  1.0000
  F   F359      1.0  0.35290  0.90400  0.45552  1.0000
  F   F360      1.0  0.35562  0.89890  0.97732  1.0000
  F   F361      1.0  0.60063  0.39221  0.47640  1.0000
  F   F362      1.0  0.59607  0.41508  0.96380  1.0000
  F   F363      1.0  0.60144  0.89651  0.45624  1.0000
  F   F364      1.0  0.59729  0.90717  0.96026  1.0000
  F   F365      1.0  0.84653  0.39508  0.45487  1.0000
  F   F366      1.0  0.84900  0.40554  0.96630  1.0000
  F   F367      1.0  0.84578  0.89766  0.44403  1.0000
  F   F368      1.0  0.84887  0.90487  0.96646  1.0000
  F   F369      1.0  0.05060  0.28588  0.28160  1.0000
  F   F370      1.0  0.05035  0.29995  0.77584  1.0000
  F   F371      1.0  0.05162  0.80340  0.27954  1.0000
  F   F372      1.0  0.05286  0.80321  0.77706  1.0000
  F   F373      1.0  0.28840  0.30069  0.28953  1.0000
  F   F374      1.0  0.28953  0.29927  0.80042  1.0000
  F   F375      1.0  0.29307  0.80079  0.28516  1.0000
  F   F376      1.0  0.28480  0.79354  0.78971  1.0000
  F   F377      1.0  0.55261  0.29578  0.29231  1.0000
  F   F378      1.0  0.54384  0.29940  0.79382  1.0000
  F   F379      1.0  0.54011  0.79238  0.29818  1.0000
  F   F380      1.0  0.55041  0.80951  0.77537  1.0000
  F   F381      1.0  0.79025  0.29441  0.29031  1.0000
  F   F382      1.0  0.79651  0.29612  0.79995  1.0000
  F   F383      1.0  0.79179  0.79845  0.27901  1.0000
  F   F384      1.0  0.79608  0.78332  0.78922  1.0000
