data_image0
_chemical_formula_structural       Hf96F384
_chemical_formula_sum              "Hf96 F384"
_cell_length_a       31.0485
_cell_length_b       15.5301
_cell_length_c       15.5181
_cell_angle_alpha    63.342
_cell_angle_beta     63.342
_cell_angle_gamma    80.1625

_space_group_name_H-M_alt    "P 1"
_space_group_IT_number       1

loop_
  _space_group_symop_operation_xyz
  'x, y, z'

loop_
  _atom_site_type_symbol
  _atom_site_label
  _atom_site_symmetry_multiplicity
  _atom_site_fract_x
  _atom_site_fract_y
  _atom_site_fract_z
  _atom_site_occupancy
  Hf  Hf1       1.0  0.19718  0.10880  0.36874  1.0000
  Hf  Hf2       1.0  0.19689  0.11069  0.87020  1.0000
  Hf  Hf3       1.0  0.19729  0.61476  0.36795  1.0000
  Hf  Hf4       1.0  0.20046  0.60448  0.86732  1.0000
  Hf  Hf5       1.0  0.44490  0.11185  0.37202  1.0000
  Hf  Hf6       1.0  0.44400  0.10602  0.87105  1.0000
  Hf  Hf7       1.0  0.44863  0.60030  0.38418  1.0000
  Hf  Hf8       1.0  0.44444  0.60200  0.88401  1.0000
  Hf  Hf9       1.0  0.69703  0.10443  0.38349  1.0000
  Hf  Hf10      1.0  0.69878  0.10449  0.87828  1.0000
  Hf  Hf11      1.0  0.69565  0.61261  0.37871  1.0000
  Hf  Hf12      1.0  0.69391  0.60847  0.87407  1.0000
  Hf  Hf13      1.0  0.94827  0.10873  0.37665  1.0000
  Hf  Hf14      1.0  0.94612  0.10693  0.88696  1.0000
  Hf  Hf15      1.0  0.95008  0.60750  0.36471  1.0000
  Hf  Hf16      1.0  0.94327  0.60822  0.87886  1.0000
  Hf  Hf17      1.0  0.05808  0.39297  0.11298  1.0000
  Hf  Hf18      1.0  0.05169  0.39567  0.62483  1.0000
  Hf  Hf19      1.0  0.05356  0.89082  0.12196  1.0000
  Hf  Hf20      1.0  0.05137  0.88558  0.63959  1.0000
  Hf  Hf21      1.0  0.30013  0.39683  0.12902  1.0000
  Hf  Hf22      1.0  0.30311  0.39221  0.61969  1.0000
  Hf  Hf23      1.0  0.30788  0.89733  0.11960  1.0000
  Hf  Hf24      1.0  0.29874  0.89198  0.62219  1.0000
  Hf  Hf25      1.0  0.54845  0.38844  0.13494  1.0000
  Hf  Hf26      1.0  0.55334  0.39163  0.62649  1.0000
  Hf  Hf27      1.0  0.55163  0.89079  0.12905  1.0000
  Hf  Hf28      1.0  0.55566  0.88820  0.61450  1.0000
  Hf  Hf29      1.0  0.80442  0.38682  0.13100  1.0000
  Hf  Hf30      1.0  0.80799  0.38629  0.62332  1.0000
  Hf  Hf31      1.0  0.80330  0.88817  0.13134  1.0000
  Hf  Hf32      1.0  0.80129  0.88685  0.64110  1.0000
  Hf  Hf33      1.0  0.05860  0.18681  0.40687  1.0000
  Hf  Hf34      1.0  0.05766  0.18756  0.90987  1.0000
  Hf  Hf35      1.0  0.05430  0.68392  0.41800  1.0000
  Hf  Hf36      1.0  0.05704  0.67650  0.90937  1.0000
  Hf  Hf37      1.0  0.30570  0.19224  0.41209  1.0000
  Hf  Hf38      1.0  0.30517  0.18454  0.91671  1.0000
  Hf  Hf39      1.0  0.30889  0.68572  0.40748  1.0000
  Hf  Hf40      1.0  0.30590  0.69001  0.90681  1.0000
  Hf  Hf41      1.0  0.55560  0.18236  0.42182  1.0000
  Hf  Hf42      1.0  0.55649  0.17376  0.92814  1.0000
  Hf  Hf43      1.0  0.56011  0.68933  0.41055  1.0000
  Hf  Hf44      1.0  0.55583  0.67578  0.91963  1.0000
  Hf  Hf45      1.0  0.80386  0.17989  0.42195  1.0000
  Hf  Hf46      1.0  0.80627  0.18015  0.92267  1.0000
  Hf  Hf47      1.0  0.80978  0.68244  0.41610  1.0000
  Hf  Hf48      1.0  0.80614  0.68629  0.91806  1.0000
  Hf  Hf49      1.0  0.15718  0.39385  0.33221  1.0000
  Hf  Hf50      1.0  0.16393  0.38280  0.82827  1.0000
  Hf  Hf51      1.0  0.15952  0.88556  0.32790  1.0000
  Hf  Hf52      1.0  0.15322  0.88575  0.82979  1.0000
  Hf  Hf53      1.0  0.40576  0.39220  0.33488  1.0000
  Hf  Hf54      1.0  0.40712  0.38358  0.83311  1.0000
  Hf  Hf55      1.0  0.40949  0.87921  0.33266  1.0000
  Hf  Hf56      1.0  0.40812  0.89582  0.82769  1.0000
  Hf  Hf57      1.0  0.65793  0.38687  0.33642  1.0000
  Hf  Hf58      1.0  0.66364  0.38379  0.83493  1.0000
  Hf  Hf59      1.0  0.66211  0.89678  0.32536  1.0000
  Hf  Hf60      1.0  0.66084  0.88332  0.83007  1.0000
  Hf  Hf61      1.0  0.91314  0.39415  0.32974  1.0000
  Hf  Hf62      1.0  0.90577  0.38057  0.84679  1.0000
  Hf  Hf63      1.0  0.90714  0.89600  0.33161  1.0000
  Hf  Hf64      1.0  0.91125  0.89832  0.82897  1.0000
  Hf  Hf65      1.0  0.19468  0.31794  0.08464  1.0000
  Hf  Hf66      1.0  0.19216  0.32999  0.57735  1.0000
  Hf  Hf67      1.0  0.19562  0.82728  0.07422  1.0000
  Hf  Hf68      1.0  0.19233  0.82040  0.57367  1.0000
  Hf  Hf69      1.0  0.44318  0.31438  0.08027  1.0000
  Hf  Hf70      1.0  0.44282  0.31249  0.59326  1.0000
  Hf  Hf71      1.0  0.44449  0.81324  0.08312  1.0000
  Hf  Hf72      1.0  0.44158  0.82788  0.57273  1.0000
  Hf  Hf73      1.0  0.69091  0.31715  0.09810  1.0000
  Hf  Hf74      1.0  0.69379  0.30916  0.58781  1.0000
  Hf  Hf75      1.0  0.69114  0.82418  0.08653  1.0000
  Hf  Hf76      1.0  0.69594  0.81572  0.58553  1.0000
  Hf  Hf77      1.0  0.94556  0.32112  0.08557  1.0000
  Hf  Hf78      1.0  0.94468  0.32637  0.57980  1.0000
  Hf  Hf79      1.0  0.94213  0.81299  0.08865  1.0000
  Hf  Hf80      1.0  0.94361  0.81433  0.58425  1.0000
  Hf  Hf81      1.0  0.09211  0.11362  0.16426  1.0000
  Hf  Hf82      1.0  0.08815  0.11414  0.66554  1.0000
  Hf  Hf83      1.0  0.09497  0.61387  0.16199  1.0000
  Hf  Hf84      1.0  0.08900  0.60758  0.66817  1.0000
  Hf  Hf85      1.0  0.34156  0.11159  0.16786  1.0000
  Hf  Hf86      1.0  0.34382  0.11334  0.65797  1.0000
  Hf  Hf87      1.0  0.33980  0.61304  0.16800  1.0000
  Hf  Hf88      1.0  0.34459  0.60659  0.66507  1.0000
  Hf  Hf89      1.0  0.59249  0.11277  0.16807  1.0000
  Hf  Hf90      1.0  0.58659  0.10405  0.67583  1.0000
  Hf  Hf91      1.0  0.58683  0.60621  0.17648  1.0000
  Hf  Hf92      1.0  0.59006  0.60849  0.67100  1.0000
  Hf  Hf93      1.0  0.83933  0.10569  0.17686  1.0000
  Hf  Hf94      1.0  0.84161  0.10945  0.66294  1.0000
  Hf  Hf95      1.0  0.83767  0.60332  0.17588  1.0000
  Hf  Hf96      1.0  0.84268  0.61163  0.66326  1.0000
  F   F1        1.0  0.07903  0.13569  0.30302  1.0000
  F   F2        1.0  0.07108  0.10839  0.81862  1.0000
  F   F3        1.0  0.08345  0.63215  0.30205  1.0000
  F   F4        1.0  0.07364  0.62625  0.80566  1.0000
  F   F5        1.0  0.32128  0.11725  0.31436  1.0000
  F   F6        1.0  0.33749  0.15229  0.78592  1.0000
  F   F7        1.0  0.32899  0.61794  0.30808  1.0000
  F   F8        1.0  0.33539  0.63762  0.79431  1.0000
  F   F9        1.0  0.58785  0.12247  0.30496  1.0000
  F   F10       1.0  0.58054  0.10955  0.80864  1.0000
  F   F11       1.0  0.57191  0.63768  0.30986  1.0000
  F   F12       1.0  0.57236  0.60508  0.81451  1.0000
  F   F13       1.0  0.82487  0.11250  0.31613  1.0000
  F   F14       1.0  0.83484  0.11476  0.80643  1.0000
  F   F15       1.0  0.83728  0.63380  0.28728  1.0000
  F   F16       1.0  0.82734  0.64518  0.79340  1.0000
  F   F17       1.0  0.18774  0.35165  0.43509  1.0000
  F   F18       1.0  0.18293  0.31936  0.95594  1.0000
  F   F19       1.0  0.18583  0.83845  0.43970  1.0000
  F   F20       1.0  0.18907  0.85712  0.93035  1.0000
  F   F21       1.0  0.43532  0.35368  0.44235  1.0000
  F   F22       1.0  0.43589  0.32990  0.95355  1.0000
  F   F23       1.0  0.44551  0.85449  0.43154  1.0000
  F   F24       1.0  0.43889  0.84370  0.93593  1.0000
  F   F25       1.0  0.68531  0.34417  0.45179  1.0000
  F   F26       1.0  0.68395  0.33377  0.95837  1.0000
  F   F27       1.0  0.67842  0.84217  0.45220  1.0000
  F   F28       1.0  0.67046  0.83450  0.96310  1.0000
  F   F29       1.0  0.93446  0.34088  0.45751  1.0000
  F   F30       1.0  0.92272  0.32715  0.97031  1.0000
  F   F31       1.0  0.93583  0.83866  0.45450  1.0000
  F   F32       1.0  0.94228  0.85013  0.93642  1.0000
  F   F33       1.0  0.17101  0.37089  0.20114  1.0000
  F   F34       1.0  0.16401  0.37800  0.69320  1.0000
  F   F35       1.0  0.17391  0.87918  0.18893  1.0000
  F   F36       1.0  0.17065  0.87114  0.68460  1.0000
  F   F37       1.0  0.41294  0.35278  0.20183  1.0000
  F   F38       1.0  0.42628  0.38469  0.68553  1.0000
  F   F39       1.0  0.42333  0.86318  0.19757  1.0000
  F   F40       1.0  0.41299  0.88450  0.70031  1.0000
  F   F41       1.0  0.67145  0.38012  0.19790  1.0000
  F   F42       1.0  0.67040  0.35348  0.70339  1.0000
  F   F43       1.0  0.67560  0.88944  0.18398  1.0000
  F   F44       1.0  0.66586  0.85516  0.70602  1.0000
  F   F45       1.0  0.92102  0.36945  0.20329  1.0000
  F   F46       1.0  0.91420  0.36897  0.71320  1.0000
  F   F47       1.0  0.92105  0.85891  0.19713  1.0000
  F   F48       1.0  0.92448  0.88016  0.68678  1.0000
  F   F49       1.0  0.06230  0.16083  0.04648  1.0000
  F   F50       1.0  0.05963  0.16000  0.55671  1.0000
  F   F51       1.0  0.07153  0.65754  0.04341  1.0000
  F   F52       1.0  0.06632  0.66760  0.54702  1.0000
  F   F53       1.0  0.31405  0.16553  0.04969  1.0000
  F   F54       1.0  0.30751  0.15304  0.56316  1.0000
  F   F55       1.0  0.31016  0.67193  0.05743  1.0000
  F   F56       1.0  0.31990  0.66313  0.54929  1.0000
  F   F57       1.0  0.57180  0.17221  0.04587  1.0000
  F   F58       1.0  0.56083  0.15707  0.55797  1.0000
  F   F59       1.0  0.55876  0.65404  0.06227  1.0000
  F   F60       1.0  0.56076  0.63835  0.56076  1.0000
  F   F61       1.0  0.80879  0.15515  0.06156  1.0000
  F   F62       1.0  0.81290  0.15435  0.55543  1.0000
  F   F63       1.0  0.81333  0.65140  0.05881  1.0000
  F   F64       1.0  0.81929  0.66243  0.54546  1.0000
  F   F65       1.0  0.20864  0.20717  0.20442  1.0000
  F   F66       1.0  0.20513  0.21163  0.69122  1.0000
  F   F67       1.0  0.20641  0.69580  0.21059  1.0000
  F   F68       1.0  0.21426  0.69884  0.71264  1.0000
  F   F69       1.0  0.44846  0.20200  0.20466  1.0000
  F   F70       1.0  0.44695  0.19047  0.72431  1.0000
  F   F71       1.0  0.45172  0.70015  0.19976  1.0000
  F   F72       1.0  0.43875  0.71085  0.70855  1.0000
  F   F73       1.0  0.69282  0.20139  0.23793  1.0000
  F   F74       1.0  0.69970  0.18655  0.72912  1.0000
  F   F75       1.0  0.69625  0.70635  0.21455  1.0000
  F   F76       1.0  0.71175  0.70303  0.69962  1.0000
  F   F77       1.0  0.96341  0.21784  0.20265  1.0000
  F   F78       1.0  0.95074  0.20923  0.70140  1.0000
  F   F79       1.0  0.95692  0.69334  0.21352  1.0000
  F   F80       1.0  0.95143  0.70124  0.71109  1.0000
  F   F81       1.0  0.15205  0.11065  0.01287  1.0000
  F   F82       1.0  0.14775  0.10314  0.53407  1.0000
  F   F83       1.0  0.15982  0.59648  0.03425  1.0000
  F   F84       1.0  0.14942  0.60010  0.54387  1.0000
  F   F85       1.0  0.39738  0.09893  0.03996  1.0000
  F   F86       1.0  0.39604  0.07928  0.53353  1.0000
  F   F87       1.0  0.40352  0.59172  0.04231  1.0000
  F   F88       1.0  0.40006  0.57606  0.53636  1.0000
  F   F89       1.0  0.64645  0.07753  0.04703  1.0000
  F   F90       1.0  0.64516  0.08844  0.55900  1.0000
  F   F91       1.0  0.63944  0.58605  0.03914  1.0000
  F   F92       1.0  0.65156  0.59556  0.54455  1.0000
  F   F93       1.0  0.89647  0.09924  0.04791  1.0000
  F   F94       1.0  0.89820  0.08774  0.53054  1.0000
  F   F95       1.0  0.89979  0.59615  0.04175  1.0000
  F   F96       1.0  0.90457  0.60329  0.52497  1.0000
  F   F97       1.0  0.15510  0.18198  0.13989  1.0000
  F   F98       1.0  0.14523  0.21227  0.62511  1.0000
  F   F99       1.0  0.15210  0.70579  0.11636  1.0000
  F   F100      1.0  0.15245  0.69508  0.63549  1.0000
  F   F101      1.0  0.40060  0.20124  0.12666  1.0000
  F   F102      1.0  0.40134  0.19713  0.59684  1.0000
  F   F103      1.0  0.40631  0.69570  0.11731  1.0000
  F   F104      1.0  0.40418  0.70238  0.58897  1.0000
  F   F105      1.0  0.65058  0.19310  0.11039  1.0000
  F   F106      1.0  0.65067  0.20167  0.63465  1.0000
  F   F107      1.0  0.64948  0.68471  0.12082  1.0000
  F   F108      1.0  0.64939  0.70150  0.65368  1.0000
  F   F109      1.0  0.90045  0.18479  0.16019  1.0000
  F   F110      1.0  0.90067  0.19153  0.60577  1.0000
  F   F111      1.0  0.90208  0.69708  0.12466  1.0000
  F   F112      1.0  0.89960  0.69790  0.62175  1.0000
  F   F113      1.0  0.10030  0.30333  0.36473  1.0000
  F   F114      1.0  0.09658  0.31177  0.86600  1.0000
  F   F115      1.0  0.09710  0.80614  0.35402  1.0000
  F   F116      1.0  0.09756  0.80374  0.85782  1.0000
  F   F117      1.0  0.34520  0.30749  0.39237  1.0000
  F   F118      1.0  0.34639  0.31229  0.86337  1.0000
  F   F119      1.0  0.34751  0.80467  0.36480  1.0000
  F   F120      1.0  0.35272  0.79968  0.86958  1.0000
  F   F121      1.0  0.59600  0.29676  0.36834  1.0000
  F   F122      1.0  0.60227  0.31231  0.87351  1.0000
  F   F123      1.0  0.60650  0.79316  0.37327  1.0000
  F   F124      1.0  0.59940  0.79202  0.89348  1.0000
  F   F125      1.0  0.85342  0.31664  0.37495  1.0000
  F   F126      1.0  0.84363  0.30596  0.89760  1.0000
  F   F127      1.0  0.85159  0.80107  0.38341  1.0000
  F   F128      1.0  0.84381  0.80925  0.87437  1.0000
  F   F129      1.0  0.06754  0.24518  0.12685  1.0000
  F   F130      1.0  0.05896  0.25584  0.63695  1.0000
  F   F131      1.0  0.06042  0.74745  0.14756  1.0000
  F   F132      1.0  0.06599  0.74791  0.65318  1.0000
  F   F133      1.0  0.31179  0.24782  0.14950  1.0000
  F   F134      1.0  0.32032  0.25763  0.62047  1.0000
  F   F135      1.0  0.31496  0.75094  0.15443  1.0000
  F   F136      1.0  0.32088  0.75983  0.63492  1.0000
  F   F137      1.0  0.56220  0.24798  0.15775  1.0000
  F   F138      1.0  0.56693  0.24976  0.64766  1.0000
  F   F139      1.0  0.57083  0.75833  0.13247  1.0000
  F   F140      1.0  0.57741  0.75659  0.61158  1.0000
  F   F141      1.0  0.82592  0.25573  0.13576  1.0000
  F   F142      1.0  0.82055  0.24967  0.63735  1.0000
  F   F143      1.0  0.81626  0.75450  0.14237  1.0000
  F   F144      1.0  0.81687  0.75625  0.64127  1.0000
  F   F145      1.0  0.12919  0.35359  0.11421  1.0000
  F   F146      1.0  0.12205  0.39327  0.59949  1.0000
  F   F147      1.0  0.12177  0.86107  0.12374  1.0000
  F   F148      1.0  0.12539  0.88040  0.59221  1.0000
  F   F149      1.0  0.37417  0.39055  0.07960  1.0000
  F   F150      1.0  0.37209  0.36805  0.62024  1.0000
  F   F151      1.0  0.37796  0.87562  0.09683  1.0000
  F   F152      1.0  0.37242  0.88848  0.58447  1.0000
  F   F153      1.0  0.62224  0.36018  0.13369  1.0000
  F   F154      1.0  0.62387  0.38241  0.59802  1.0000
  F   F155      1.0  0.62349  0.85338  0.13782  1.0000
  F   F156      1.0  0.62856  0.89183  0.59236  1.0000
  F   F157      1.0  0.87499  0.37346  0.11975  1.0000
  F   F158      1.0  0.87823  0.37704  0.61073  1.0000
  F   F159      1.0  0.87742  0.87452  0.09101  1.0000
  F   F160      1.0  0.87597  0.87434  0.60354  1.0000
  F   F161      1.0  0.17902  0.25315  0.35840  1.0000
  F   F162      1.0  0.19565  0.25369  0.83384  1.0000
  F   F163      1.0  0.18217  0.75064  0.34998  1.0000
  F   F164      1.0  0.18182  0.74646  0.85933  1.0000
  F   F165      1.0  0.44312  0.26075  0.34338  1.0000
  F   F166      1.0  0.42805  0.24416  0.85617  1.0000
  F   F167      1.0  0.44109  0.74962  0.35475  1.0000
  F   F168      1.0  0.43200  0.74781  0.85521  1.0000
  F   F169      1.0  0.67728  0.24918  0.37892  1.0000
  F   F170      1.0  0.68084  0.23157  0.87543  1.0000
  F   F171      1.0  0.69238  0.76467  0.35354  1.0000
  F   F172      1.0  0.68495  0.74364  0.86252  1.0000
  F   F173      1.0  0.93496  0.25485  0.36288  1.0000
  F   F174      1.0  0.94445  0.25056  0.85336  1.0000
  F   F175      1.0  0.93827  0.75897  0.35075  1.0000
  F   F176      1.0  0.93174  0.74824  0.86419  1.0000
  F   F177      1.0  0.12395  0.12579  0.39380  1.0000
  F   F178      1.0  0.13140  0.16060  0.84924  1.0000
  F   F179      1.0  0.12556  0.62215  0.40508  1.0000
  F   F180      1.0  0.13209  0.61393  0.88136  1.0000
  F   F181      1.0  0.37347  0.14805  0.38277  1.0000
  F   F182      1.0  0.37301  0.11157  0.90020  1.0000
  F   F183      1.0  0.37837  0.64248  0.37164  1.0000
  F   F184      1.0  0.37253  0.61240  0.91233  1.0000
  F   F185      1.0  0.62542  0.11762  0.41029  1.0000
  F   F186      1.0  0.62418  0.11211  0.89875  1.0000
  F   F187      1.0  0.62555  0.61457  0.39890  1.0000
  F   F188      1.0  0.62626  0.63003  0.87114  1.0000
  F   F189      1.0  0.88077  0.15301  0.37606  1.0000
  F   F190      1.0  0.87988  0.15267  0.88165  1.0000
  F   F191      1.0  0.87756  0.63879  0.37767  1.0000
  F   F192      1.0  0.87400  0.63007  0.89364  1.0000
  F   F193      1.0  0.01322  0.36556  0.06286  1.0000
  F   F194      1.0  0.00077  0.38776  0.57958  1.0000
  F   F195      1.0  0.01026  0.87314  0.06436  1.0000
  F   F196      1.0  0.00948  0.85807  0.58426  1.0000
  F   F197      1.0  0.25997  0.36209  0.06979  1.0000
  F   F198      1.0  0.25516  0.36104  0.58040  1.0000
  F   F199      1.0  0.25727  0.86433  0.07138  1.0000
  F   F200      1.0  0.25320  0.87170  0.56957  1.0000
  F   F201      1.0  0.50939  0.36214  0.07055  1.0000
  F   F202      1.0  0.50460  0.34993  0.59337  1.0000
  F   F203      1.0  0.50571  0.85545  0.07563  1.0000
  F   F204      1.0  0.50424  0.87050  0.57104  1.0000
  F   F205      1.0  0.75616  0.34211  0.09040  1.0000
  F   F206      1.0  0.76254  0.35491  0.56467  1.0000
  F   F207      1.0  0.75522  0.86366  0.09073  1.0000
  F   F208      1.0  0.75636  0.86159  0.59297  1.0000
  F   F209      1.0  0.08371  0.48846  0.13737  1.0000
  F   F210      1.0  0.06495  0.48514  0.69695  1.0000
  F   F211      1.0  0.07029  0.99230  0.16653  1.0000
  F   F212      1.0  0.06739  0.98572  0.68147  1.0000
  F   F213      1.0  0.32294  0.49439  0.16665  1.0000
  F   F214      1.0  0.31734  0.48003  0.67833  1.0000
  F   F215      1.0  0.31786  0.98552  0.17755  1.0000
  F   F216      1.0  0.31554  0.97348  0.68216  1.0000
  F   F217      1.0  0.56089  0.48384  0.19444  1.0000
  F   F218      1.0  0.56444  0.48612  0.69186  1.0000
  F   F219      1.0  0.56969  0.99440  0.16388  1.0000
  F   F220      1.0  0.56641  0.97503  0.69584  1.0000
  F   F221      1.0  0.81389  0.47062  0.19225  1.0000
  F   F222      1.0  0.81653  0.48280  0.67584  1.0000
  F   F223      1.0  0.82395  0.98065  0.17985  1.0000
  F   F224      1.0  0.81725  0.97671  0.68784  1.0000
  F   F225      1.0  0.24205  0.14789  0.41025  1.0000
  F   F226      1.0  0.24446  0.13606  0.92639  1.0000
  F   F227      1.0  0.24135  0.64300  0.40811  1.0000
  F   F228      1.0  0.24863  0.63625  0.90714  1.0000
  F   F229      1.0  0.48572  0.13774  0.43582  1.0000
  F   F230      1.0  0.49129  0.14375  0.90594  1.0000
  F   F231      1.0  0.48930  0.63645  0.44053  1.0000
  F   F232      1.0  0.49522  0.63563  0.92836  1.0000
  F   F233      1.0  0.73530  0.13267  0.43860  1.0000
  F   F234      1.0  0.74473  0.13436  0.92935  1.0000
  F   F235      1.0  0.74986  0.63883  0.41450  1.0000
  F   F236      1.0  0.74087  0.63216  0.93241  1.0000
  F   F237      1.0  0.99644  0.14580  0.40600  1.0000
  F   F238      1.0  0.99371  0.12285  0.96180  1.0000
  F   F239      1.0  0.99369  0.63131  0.42259  1.0000
  F   F240      1.0  0.98148  0.63925  0.93243  1.0000
  F   F241      1.0  0.18395  0.01154  0.31247  1.0000
  F   F242      1.0  0.18107  0.02363  0.81926  1.0000
  F   F243      1.0  0.18023  0.52184  0.31242  1.0000
  F   F244      1.0  0.19024  0.48831  0.84198  1.0000
  F   F245      1.0  0.42672  0.01115  0.33840  1.0000
  F   F246      1.0  0.43575  0.01157  0.81220  1.0000
  F   F247      1.0  0.43157  0.51743  0.33138  1.0000
  F   F248      1.0  0.42900  0.52076  0.83335  1.0000
  F   F249      1.0  0.68005  0.02176  0.32543  1.0000
  F   F250      1.0  0.68798  0.00691  0.83498  1.0000
  F   F251      1.0  0.68103  0.51548  0.32875  1.0000
  F   F252      1.0  0.68412  0.50807  0.83752  1.0000
  F   F253      1.0  0.93516  0.01119  0.32901  1.0000
  F   F254      1.0  0.92721  0.01889  0.83699  1.0000
  F   F255      1.0  0.92918  0.52230  0.32259  1.0000
  F   F256      1.0  0.93046  0.50563  0.82569  1.0000
  F   F257      1.0  0.99951  0.27457  0.97738  1.0000
  F   F258      1.0  0.00563  0.27341  0.48271  1.0000
  F   F259      1.0  0.99740  0.73685  0.00712  1.0000
  F   F260      1.0  0.99394  0.73509  0.50066  1.0000
  F   F261      1.0  0.24680  0.25606  0.99005  1.0000
  F   F262      1.0  0.25285  0.26461  0.47770  1.0000
  F   F263      1.0  0.24606  0.75248  0.98755  1.0000
  F   F264      1.0  0.25181  0.74325  0.49934  1.0000
  F   F265      1.0  0.49899  0.23287  0.00739  1.0000
  F   F266      1.0  0.49793  0.24453  0.51247  1.0000
  F   F267      1.0  0.49960  0.75016  0.99494  1.0000
  F   F268      1.0  0.50202  0.75038  0.50291  1.0000
  F   F269      1.0  0.75199  0.25205  0.99435  1.0000
  F   F270      1.0  0.74719  0.22660  0.51712  1.0000
  F   F271      1.0  0.74654  0.76417  0.00027  1.0000
  F   F272      1.0  0.74667  0.74496  0.50022  1.0000
  F   F273      1.0  0.11750  0.99134  0.26156  1.0000
  F   F274      1.0  0.12817  0.01261  0.73683  1.0000
  F   F275      1.0  0.11197  0.49027  0.26290  1.0000
  F   F276      1.0  0.12751  0.50764  0.75319  1.0000
  F   F277      1.0  0.38107  0.99432  0.24306  1.0000
  F   F278      1.0  0.36745  0.00119  0.75963  1.0000
  F   F279      1.0  0.38152  0.50222  0.23712  1.0000
  F   F280      1.0  0.38108  0.50044  0.74668  1.0000
  F   F281      1.0  0.62465  0.99527  0.25443  1.0000
  F   F282      1.0  0.62853  0.98796  0.75708  1.0000
  F   F283      1.0  0.61795  0.49604  0.25400  1.0000
  F   F284      1.0  0.63440  0.50637  0.74253  1.0000
  F   F285      1.0  0.87957  0.00394  0.24434  1.0000
  F   F286      1.0  0.87858  0.99768  0.73409  1.0000
  F   F287      1.0  0.87593  0.50122  0.24950  1.0000
  F   F288      1.0  0.87654  0.50633  0.74482  1.0000
  F   F289      1.0  0.05689  0.03143  0.01001  1.0000
  F   F290      1.0  0.04666  0.03329  0.53170  1.0000
  F   F291      1.0  0.03806  0.54203  0.01084  1.0000
  F   F292      1.0  0.04299  0.53206  0.53275  1.0000
  F   F293      1.0  0.29331  0.03845  0.01929  1.0000
  F   F294      1.0  0.29471  0.03957  0.51505  1.0000
  F   F295      1.0  0.29326  0.52719  0.02796  1.0000
  F   F296      1.0  0.29607  0.54070  0.50946  1.0000
  F   F297      1.0  0.53660  0.03664  0.03817  1.0000
  F   F298      1.0  0.54096  0.03168  0.53078  1.0000
  F   F299      1.0  0.55373  0.53385  0.01078  1.0000
  F   F300      1.0  0.54903  0.52139  0.51490  1.0000
  F   F301      1.0  0.80608  0.03452  0.01002  1.0000
  F   F302      1.0  0.79238  0.02734  0.53240  1.0000
  F   F303      1.0  0.79033  0.53136  0.03486  1.0000
  F   F304      1.0  0.79536  0.53007  0.51070  1.0000
  F   F305      1.0  0.23647  0.41599  0.23294  1.0000
  F   F306      1.0  0.23099  0.42108  0.71358  1.0000
  F   F307      1.0  0.23704  0.89865  0.22565  1.0000
  F   F308      1.0  0.23249  0.90871  0.72362  1.0000
  F   F309      1.0  0.48217  0.42103  0.21492  1.0000
  F   F310      1.0  0.48520  0.40873  0.74245  1.0000
  F   F311      1.0  0.48498  0.91369  0.21718  1.0000
  F   F312      1.0  0.48530  0.91653  0.70859  1.0000
  F   F313      1.0  0.73455  0.41621  0.23821  1.0000
  F   F314      1.0  0.73488  0.40437  0.71981  1.0000
  F   F315      1.0  0.73971  0.91950  0.23776  1.0000
  F   F316      1.0  0.73268  0.91592  0.72708  1.0000
  F   F317      1.0  0.98815  0.43366  0.20647  1.0000
  F   F318      1.0  0.98154  0.42103  0.72617  1.0000
  F   F319      1.0  0.98054  0.91980  0.21944  1.0000
  F   F320      1.0  0.98894  0.91688  0.72670  1.0000
  F   F321      1.0  0.21131  0.47163  0.47277  1.0000
  F   F322      1.0  0.20566  0.47178  0.97513  1.0000
  F   F323      1.0  0.20535  0.96946  0.47109  1.0000
  F   F324      1.0  0.20548  0.97021  0.97847  1.0000
  F   F325      1.0  0.45788  0.45852  0.48713  1.0000
  F   F326      1.0  0.45913  0.45885  0.97382  1.0000
  F   F327      1.0  0.45499  0.97156  0.48715  1.0000
  F   F328      1.0  0.45845  0.97394  0.97525  1.0000
  F   F329      1.0  0.70670  0.48559  0.48482  1.0000
  F   F330      1.0  0.70175  0.46256  0.99326  1.0000
  F   F331      1.0  0.71493  0.96290  0.47665  1.0000
  F   F332      1.0  0.71144  0.96176  0.97839  1.0000
  F   F333      1.0  0.95917  0.47371  0.46397  1.0000
  F   F334      1.0  0.95263  0.47409  0.97332  1.0000
  F   F335      1.0  0.95911  0.96369  0.47272  1.0000
  F   F336      1.0  0.94914  0.97382  0.99717  1.0000
  F   F337      1.0  0.01665  0.09173  0.26029  1.0000
  F   F338      1.0  0.00826  0.08604  0.78297  1.0000
  F   F339      1.0  0.02155  0.56813  0.26661  1.0000
  F   F340      1.0  0.01517  0.58469  0.78616  1.0000
  F   F341      1.0  0.26381  0.07984  0.27519  1.0000
  F   F342      1.0  0.26970  0.10024  0.76588  1.0000
  F   F343      1.0  0.26667  0.58970  0.26714  1.0000
  F   F344      1.0  0.27532  0.56486  0.78653  1.0000
  F   F345      1.0  0.51422  0.07987  0.27870  1.0000
  F   F346      1.0  0.51248  0.07872  0.76577  1.0000
  F   F347      1.0  0.51616  0.58593  0.28230  1.0000
  F   F348      1.0  0.50852  0.62063  0.76188  1.0000
  F   F349      1.0  0.76164  0.08650  0.27350  1.0000
  F   F350      1.0  0.76920  0.09265  0.77406  1.0000
  F   F351      1.0  0.76253  0.58086  0.28369  1.0000
  F   F352      1.0  0.76901  0.59042  0.77112  1.0000
  F   F353      1.0  0.09618  0.40968  0.46181  1.0000
  F   F354      1.0  0.10915  0.41637  0.95676  1.0000
  F   F355      1.0  0.10711  0.89923  0.45473  1.0000
  F   F356      1.0  0.10166  0.89551  0.96522  1.0000
  F   F357      1.0  0.34735  0.41838  0.46652  1.0000
  F   F358      1.0  0.35048  0.38667  0.95928  1.0000
  F   F359      1.0  0.34695  0.91390  0.45244  1.0000
  F   F360      1.0  0.34674  0.90484  0.96399  1.0000
  F   F361      1.0  0.59926  0.38472  0.46827  1.0000
  F   F362      1.0  0.60004  0.39552  0.97964  1.0000
  F   F363      1.0  0.59954  0.90891  0.46125  1.0000
  F   F364      1.0  0.59815  0.92025  0.97820  1.0000
  F   F365      1.0  0.85386  0.40842  0.46885  1.0000
  F   F366      1.0  0.84507  0.42430  0.96627  1.0000
  F   F367      1.0  0.85651  0.92416  0.45159  1.0000
  F   F368      1.0  0.84870  0.90090  0.95574  1.0000
  F   F369      1.0  0.05137  0.31481  0.27145  1.0000
  F   F370      1.0  0.05196  0.29757  0.77639  1.0000
  F   F371      1.0  0.03367  0.79566  0.30039  1.0000
  F   F372      1.0  0.03721  0.79924  0.79979  1.0000
  F   F373      1.0  0.30224  0.29710  0.27850  1.0000
  F   F374      1.0  0.28704  0.30336  0.78454  1.0000
  F   F375      1.0  0.29701  0.80185  0.29380  1.0000
  F   F376      1.0  0.29109  0.79788  0.78663  1.0000
  F   F377      1.0  0.54015  0.29215  0.30385  1.0000
  F   F378      1.0  0.55379  0.28332  0.80079  1.0000
  F   F379      1.0  0.53823  0.80043  0.29886  1.0000
  F   F380      1.0  0.55773  0.78566  0.76315  1.0000
  F   F381      1.0  0.79567  0.29677  0.30057  1.0000
  F   F382      1.0  0.79561  0.29559  0.78695  1.0000
  F   F383      1.0  0.79828  0.80370  0.29341  1.0000
  F   F384      1.0  0.79322  0.80062  0.79493  1.0000
