data_image0
_chemical_formula_structural       Hf96F384
_chemical_formula_sum              "Hf96 F384"
_cell_length_a       31.0168
_cell_length_b       15.5076
_cell_length_c       15.5
_cell_angle_alpha    63.342
_cell_angle_beta     63.342
_cell_angle_gamma    80.1625

_space_group_name_H-M_alt    "P 1"
_space_group_IT_number       1

loop_
  _space_group_symop_operation_xyz
  'x, y, z'

loop_
  _atom_site_type_symbol
  _atom_site_label
  _atom_site_symmetry_multiplicity
  _atom_site_fract_x
  _atom_site_fract_y
  _atom_site_fract_z
  _atom_site_occupancy
  Hf  Hf1       1.0  0.19713  0.10588  0.36725  1.0000
  Hf  Hf2       1.0  0.19717  0.11150  0.86966  1.0000
  Hf  Hf3       1.0  0.19525  0.61404  0.36952  1.0000
  Hf  Hf4       1.0  0.19591  0.59956  0.88158  1.0000
  Hf  Hf5       1.0  0.44492  0.10646  0.37211  1.0000
  Hf  Hf6       1.0  0.44453  0.11278  0.87515  1.0000
  Hf  Hf7       1.0  0.44583  0.60245  0.38133  1.0000
  Hf  Hf8       1.0  0.44768  0.60629  0.87572  1.0000
  Hf  Hf9       1.0  0.69702  0.10817  0.36828  1.0000
  Hf  Hf10      1.0  0.69599  0.10036  0.87251  1.0000
  Hf  Hf11      1.0  0.69952  0.60618  0.36784  1.0000
  Hf  Hf12      1.0  0.69852  0.60553  0.87363  1.0000
  Hf  Hf13      1.0  0.94794  0.11018  0.37153  1.0000
  Hf  Hf14      1.0  0.94738  0.10545  0.87539  1.0000
  Hf  Hf15      1.0  0.94655  0.61107  0.37294  1.0000
  Hf  Hf16      1.0  0.94757  0.60573  0.87013  1.0000
  Hf  Hf17      1.0  0.05016  0.39744  0.13235  1.0000
  Hf  Hf18      1.0  0.05150  0.38795  0.63565  1.0000
  Hf  Hf19      1.0  0.05338  0.88570  0.12477  1.0000
  Hf  Hf20      1.0  0.05216  0.89624  0.62414  1.0000
  Hf  Hf21      1.0  0.30368  0.38817  0.12480  1.0000
  Hf  Hf22      1.0  0.30301  0.39233  0.62474  1.0000
  Hf  Hf23      1.0  0.30594  0.89619  0.12102  1.0000
  Hf  Hf24      1.0  0.30350  0.88721  0.62785  1.0000
  Hf  Hf25      1.0  0.55251  0.39321  0.12740  1.0000
  Hf  Hf26      1.0  0.55659  0.40171  0.61586  1.0000
  Hf  Hf27      1.0  0.55772  0.89719  0.12371  1.0000
  Hf  Hf28      1.0  0.55476  0.89224  0.62227  1.0000
  Hf  Hf29      1.0  0.80299  0.38615  0.13638  1.0000
  Hf  Hf30      1.0  0.80069  0.39291  0.63367  1.0000
  Hf  Hf31      1.0  0.80399  0.89194  0.12867  1.0000
  Hf  Hf32      1.0  0.80335  0.89345  0.63153  1.0000
  Hf  Hf33      1.0  0.05591  0.18623  0.41727  1.0000
  Hf  Hf34      1.0  0.05562  0.18193  0.92128  1.0000
  Hf  Hf35      1.0  0.05521  0.68095  0.41278  1.0000
  Hf  Hf36      1.0  0.05155  0.68025  0.92033  1.0000
  Hf  Hf37      1.0  0.30049  0.17604  0.41922  1.0000
  Hf  Hf38      1.0  0.30544  0.18422  0.91193  1.0000
  Hf  Hf39      1.0  0.30857  0.68506  0.40924  1.0000
  Hf  Hf40      1.0  0.30440  0.68073  0.91954  1.0000
  Hf  Hf41      1.0  0.55479  0.18305  0.41493  1.0000
  Hf  Hf42      1.0  0.55824  0.18702  0.91434  1.0000
  Hf  Hf43      1.0  0.55968  0.68303  0.41567  1.0000
  Hf  Hf44      1.0  0.55728  0.68093  0.91942  1.0000
  Hf  Hf45      1.0  0.80622  0.17359  0.42296  1.0000
  Hf  Hf46      1.0  0.80450  0.18457  0.91714  1.0000
  Hf  Hf47      1.0  0.80729  0.68259  0.41666  1.0000
  Hf  Hf48      1.0  0.80599  0.66760  0.92137  1.0000
  Hf  Hf49      1.0  0.15987  0.38994  0.32535  1.0000
  Hf  Hf50      1.0  0.15719  0.39159  0.83345  1.0000
  Hf  Hf51      1.0  0.15705  0.89045  0.33656  1.0000
  Hf  Hf52      1.0  0.16140  0.89138  0.82946  1.0000
  Hf  Hf53      1.0  0.40617  0.38361  0.33991  1.0000
  Hf  Hf54      1.0  0.41062  0.38934  0.83326  1.0000
  Hf  Hf55      1.0  0.40656  0.88600  0.33614  1.0000
  Hf  Hf56      1.0  0.40654  0.89139  0.83258  1.0000
  Hf  Hf57      1.0  0.65549  0.38705  0.33273  1.0000
  Hf  Hf58      1.0  0.65815  0.38460  0.83362  1.0000
  Hf  Hf59      1.0  0.65733  0.88544  0.33806  1.0000
  Hf  Hf60      1.0  0.65904  0.88086  0.84019  1.0000
  Hf  Hf61      1.0  0.90432  0.38024  0.34465  1.0000
  Hf  Hf62      1.0  0.90525  0.38635  0.83739  1.0000
  Hf  Hf63      1.0  0.90956  0.88779  0.33737  1.0000
  Hf  Hf64      1.0  0.90637  0.88818  0.83389  1.0000
  Hf  Hf65      1.0  0.18948  0.31488  0.08709  1.0000
  Hf  Hf66      1.0  0.19150  0.31426  0.58577  1.0000
  Hf  Hf67      1.0  0.19622  0.82611  0.07691  1.0000
  Hf  Hf68      1.0  0.19551  0.82355  0.58083  1.0000
  Hf  Hf69      1.0  0.44183  0.31246  0.09034  1.0000
  Hf  Hf70      1.0  0.44597  0.32576  0.57628  1.0000
  Hf  Hf71      1.0  0.44841  0.82751  0.07077  1.0000
  Hf  Hf72      1.0  0.44391  0.81373  0.58305  1.0000
  Hf  Hf73      1.0  0.69493  0.32505  0.07752  1.0000
  Hf  Hf74      1.0  0.69347  0.31349  0.57971  1.0000
  Hf  Hf75      1.0  0.69498  0.80991  0.08208  1.0000
  Hf  Hf76      1.0  0.69552  0.81599  0.58789  1.0000
  Hf  Hf77      1.0  0.94236  0.31284  0.09157  1.0000
  Hf  Hf78      1.0  0.94359  0.32092  0.58594  1.0000
  Hf  Hf79      1.0  0.94535  0.81460  0.08668  1.0000
  Hf  Hf80      1.0  0.94472  0.81887  0.58283  1.0000
  Hf  Hf81      1.0  0.09201  0.11131  0.16906  1.0000
  Hf  Hf82      1.0  0.09240  0.11545  0.66155  1.0000
  Hf  Hf83      1.0  0.09262  0.61413  0.16347  1.0000
  Hf  Hf84      1.0  0.09074  0.61730  0.65835  1.0000
  Hf  Hf85      1.0  0.34070  0.10933  0.16308  1.0000
  Hf  Hf86      1.0  0.34194  0.11376  0.65849  1.0000
  Hf  Hf87      1.0  0.34384  0.61737  0.16023  1.0000
  Hf  Hf88      1.0  0.33986  0.60871  0.67414  1.0000
  Hf  Hf89      1.0  0.59488  0.11055  0.16262  1.0000
  Hf  Hf90      1.0  0.59022  0.10674  0.66557  1.0000
  Hf  Hf91      1.0  0.59077  0.61139  0.16547  1.0000
  Hf  Hf92      1.0  0.59525  0.61461  0.66334  1.0000
  Hf  Hf93      1.0  0.84083  0.10971  0.17114  1.0000
  Hf  Hf94      1.0  0.84048  0.11789  0.67091  1.0000
  Hf  Hf95      1.0  0.84317  0.60422  0.16942  1.0000
  Hf  Hf96      1.0  0.84430  0.61504  0.66093  1.0000
  F   F1        1.0  0.07755  0.13041  0.30907  1.0000
  F   F2        1.0  0.07899  0.13789  0.80789  1.0000
  F   F3        1.0  0.08322  0.62476  0.30036  1.0000
  F   F4        1.0  0.08126  0.64248  0.79410  1.0000
  F   F5        1.0  0.33080  0.12481  0.29772  1.0000
  F   F6        1.0  0.33265  0.14432  0.79610  1.0000
  F   F7        1.0  0.32851  0.62431  0.30769  1.0000
  F   F8        1.0  0.32996  0.63268  0.81038  1.0000
  F   F9        1.0  0.58425  0.13202  0.30310  1.0000
  F   F10       1.0  0.58147  0.14290  0.78413  1.0000
  F   F11       1.0  0.57522  0.62112  0.30931  1.0000
  F   F12       1.0  0.58426  0.61910  0.80525  1.0000
  F   F13       1.0  0.83017  0.12359  0.30618  1.0000
  F   F14       1.0  0.82231  0.12393  0.81426  1.0000
  F   F15       1.0  0.82841  0.63017  0.30807  1.0000
  F   F16       1.0  0.83295  0.62034  0.79826  1.0000
  F   F17       1.0  0.18725  0.33659  0.44042  1.0000
  F   F18       1.0  0.18006  0.34145  0.95096  1.0000
  F   F19       1.0  0.18467  0.84795  0.45252  1.0000
  F   F20       1.0  0.19448  0.85438  0.93275  1.0000
  F   F21       1.0  0.44289  0.34504  0.43361  1.0000
  F   F22       1.0  0.43457  0.34494  0.94716  1.0000
  F   F23       1.0  0.43374  0.84233  0.44826  1.0000
  F   F24       1.0  0.43724  0.84580  0.93320  1.0000
  F   F25       1.0  0.67762  0.34225  0.44967  1.0000
  F   F26       1.0  0.68312  0.34313  0.94985  1.0000
  F   F27       1.0  0.67822  0.83514  0.46067  1.0000
  F   F28       1.0  0.68700  0.83834  0.94494  1.0000
  F   F29       1.0  0.93482  0.33252  0.45499  1.0000
  F   F30       1.0  0.93886  0.33866  0.93985  1.0000
  F   F31       1.0  0.93081  0.83110  0.45407  1.0000
  F   F32       1.0  0.92833  0.83893  0.96420  1.0000
  F   F33       1.0  0.17267  0.37319  0.19155  1.0000
  F   F34       1.0  0.16770  0.36307  0.69622  1.0000
  F   F35       1.0  0.17124  0.89197  0.19089  1.0000
  F   F36       1.0  0.17049  0.89047  0.68377  1.0000
  F   F37       1.0  0.41487  0.34803  0.21326  1.0000
  F   F38       1.0  0.41909  0.38305  0.69718  1.0000
  F   F39       1.0  0.42677  0.88388  0.17999  1.0000
  F   F40       1.0  0.41795  0.87192  0.69632  1.0000
  F   F41       1.0  0.66608  0.35589  0.20803  1.0000
  F   F42       1.0  0.67426  0.37627  0.69580  1.0000
  F   F43       1.0  0.66740  0.85421  0.19989  1.0000
  F   F44       1.0  0.66478  0.86958  0.70636  1.0000
  F   F45       1.0  0.91517  0.36798  0.20887  1.0000
  F   F46       1.0  0.92145  0.37095  0.69563  1.0000
  F   F47       1.0  0.92676  0.86891  0.19975  1.0000
  F   F48       1.0  0.92227  0.87941  0.69587  1.0000
  F   F49       1.0  0.05967  0.15553  0.06446  1.0000
  F   F50       1.0  0.06325  0.16727  0.55751  1.0000
  F   F51       1.0  0.06981  0.67688  0.03814  1.0000
  F   F52       1.0  0.05265  0.65280  0.55530  1.0000
  F   F53       1.0  0.31283  0.15846  0.05636  1.0000
  F   F54       1.0  0.31041  0.15058  0.55909  1.0000
  F   F55       1.0  0.31447  0.66598  0.05706  1.0000
  F   F56       1.0  0.31691  0.66675  0.55023  1.0000
  F   F57       1.0  0.57030  0.15754  0.04367  1.0000
  F   F58       1.0  0.56629  0.14870  0.55697  1.0000
  F   F59       1.0  0.56315  0.65151  0.06013  1.0000
  F   F60       1.0  0.56891  0.65934  0.55103  1.0000
  F   F61       1.0  0.80897  0.15911  0.05579  1.0000
  F   F62       1.0  0.80830  0.17009  0.55342  1.0000
  F   F63       1.0  0.81154  0.64113  0.06828  1.0000
  F   F64       1.0  0.82650  0.67478  0.53026  1.0000
  F   F65       1.0  0.20330  0.20066  0.20872  1.0000
  F   F66       1.0  0.20455  0.20370  0.70782  1.0000
  F   F67       1.0  0.19484  0.71120  0.21681  1.0000
  F   F68       1.0  0.19433  0.71079  0.71125  1.0000
  F   F69       1.0  0.45000  0.18760  0.20981  1.0000
  F   F70       1.0  0.45142  0.20649  0.70053  1.0000
  F   F71       1.0  0.44971  0.71366  0.19612  1.0000
  F   F72       1.0  0.45939  0.69906  0.70910  1.0000
  F   F73       1.0  0.70394  0.19592  0.21436  1.0000
  F   F74       1.0  0.70460  0.20050  0.71718  1.0000
  F   F75       1.0  0.70850  0.68677  0.21020  1.0000
  F   F76       1.0  0.71140  0.70714  0.70965  1.0000
  F   F77       1.0  0.96204  0.19853  0.20272  1.0000
  F   F78       1.0  0.95837  0.19873  0.70255  1.0000
  F   F79       1.0  0.95891  0.69543  0.20627  1.0000
  F   F80       1.0  0.95074  0.70451  0.71342  1.0000
  F   F81       1.0  0.15076  0.10377  0.03534  1.0000
  F   F82       1.0  0.14710  0.09890  0.53987  1.0000
  F   F83       1.0  0.15314  0.58459  0.04070  1.0000
  F   F84       1.0  0.14293  0.59433  0.53022  1.0000
  F   F85       1.0  0.40400  0.09183  0.03293  1.0000
  F   F86       1.0  0.40176  0.08536  0.53400  1.0000
  F   F87       1.0  0.40634  0.58693  0.04229  1.0000
  F   F88       1.0  0.40141  0.59544  0.54243  1.0000
  F   F89       1.0  0.65210  0.09641  0.03072  1.0000
  F   F90       1.0  0.64923  0.08122  0.54764  1.0000
  F   F91       1.0  0.64679  0.60304  0.04105  1.0000
  F   F92       1.0  0.65455  0.59192  0.53693  1.0000
  F   F93       1.0  0.89487  0.10491  0.03118  1.0000
  F   F94       1.0  0.89813  0.10513  0.53781  1.0000
  F   F95       1.0  0.89569  0.58615  0.03740  1.0000
  F   F96       1.0  0.90112  0.58137  0.53090  1.0000
  F   F97       1.0  0.15559  0.18998  0.13000  1.0000
  F   F98       1.0  0.15136  0.19833  0.63188  1.0000
  F   F99       1.0  0.15330  0.70372  0.12120  1.0000
  F   F100      1.0  0.14965  0.69165  0.61301  1.0000
  F   F101      1.0  0.39911  0.19761  0.12331  1.0000
  F   F102      1.0  0.40046  0.19890  0.60970  1.0000
  F   F103      1.0  0.39787  0.70915  0.10601  1.0000
  F   F104      1.0  0.40216  0.68828  0.63511  1.0000
  F   F105      1.0  0.65035  0.19467  0.12020  1.0000
  F   F106      1.0  0.65145  0.19757  0.62882  1.0000
  F   F107      1.0  0.65061  0.68934  0.13385  1.0000
  F   F108      1.0  0.65692  0.69330  0.62654  1.0000
  F   F109      1.0  0.90120  0.20226  0.12842  1.0000
  F   F110      1.0  0.89497  0.20346  0.64078  1.0000
  F   F111      1.0  0.90294  0.67756  0.14348  1.0000
  F   F112      1.0  0.90331  0.69100  0.61801  1.0000
  F   F113      1.0  0.09701  0.30638  0.35278  1.0000
  F   F114      1.0  0.09993  0.30158  0.87434  1.0000
  F   F115      1.0  0.09350  0.81551  0.37225  1.0000
  F   F116      1.0  0.09519  0.82357  0.86812  1.0000
  F   F117      1.0  0.34434  0.30258  0.39780  1.0000
  F   F118      1.0  0.35000  0.30244  0.86637  1.0000
  F   F119      1.0  0.34493  0.80777  0.37720  1.0000
  F   F120      1.0  0.34238  0.80169  0.87510  1.0000
  F   F121      1.0  0.59600  0.30595  0.36923  1.0000
  F   F122      1.0  0.59569  0.31552  0.88525  1.0000
  F   F123      1.0  0.59865  0.81302  0.38075  1.0000
  F   F124      1.0  0.59755  0.79632  0.89734  1.0000
  F   F125      1.0  0.84799  0.29704  0.38059  1.0000
  F   F126      1.0  0.85203  0.30079  0.86664  1.0000
  F   F127      1.0  0.85612  0.81094  0.36475  1.0000
  F   F128      1.0  0.84650  0.80392  0.88584  1.0000
  F   F129      1.0  0.07502  0.25635  0.13084  1.0000
  F   F130      1.0  0.06091  0.25113  0.64754  1.0000
  F   F131      1.0  0.06193  0.74358  0.14822  1.0000
  F   F132      1.0  0.06817  0.75197  0.62974  1.0000
  F   F133      1.0  0.31388  0.25075  0.14648  1.0000
  F   F134      1.0  0.31396  0.24370  0.65038  1.0000
  F   F135      1.0  0.30631  0.75425  0.15116  1.0000
  F   F136      1.0  0.31574  0.74796  0.64544  1.0000
  F   F137      1.0  0.56017  0.25346  0.15014  1.0000
  F   F138      1.0  0.56441  0.26410  0.62697  1.0000
  F   F139      1.0  0.56373  0.75242  0.14995  1.0000
  F   F140      1.0  0.56785  0.74920  0.63033  1.0000
  F   F141      1.0  0.81777  0.24146  0.14846  1.0000
  F   F142      1.0  0.80496  0.24905  0.66352  1.0000
  F   F143      1.0  0.82217  0.74472  0.13695  1.0000
  F   F144      1.0  0.81805  0.75786  0.63628  1.0000
  F   F145      1.0  0.12287  0.39476  0.09518  1.0000
  F   F146      1.0  0.12571  0.37050  0.59934  1.0000
  F   F147      1.0  0.12466  0.87280  0.11110  1.0000
  F   F148      1.0  0.12389  0.86682  0.61062  1.0000
  F   F149      1.0  0.37245  0.38059  0.10064  1.0000
  F   F150      1.0  0.37684  0.36924  0.59898  1.0000
  F   F151      1.0  0.37883  0.87746  0.09491  1.0000
  F   F152      1.0  0.37345  0.87454  0.60149  1.0000
  F   F153      1.0  0.62707  0.37963  0.09946  1.0000
  F   F154      1.0  0.62573  0.37504  0.61703  1.0000
  F   F155      1.0  0.62948  0.87912  0.09738  1.0000
  F   F156      1.0  0.62640  0.86636  0.61613  1.0000
  F   F157      1.0  0.87516  0.37914  0.10433  1.0000
  F   F158      1.0  0.87050  0.36824  0.62136  1.0000
  F   F159      1.0  0.87622  0.84948  0.14126  1.0000
  F   F160      1.0  0.87687  0.88193  0.60700  1.0000
  F   F161      1.0  0.17895  0.24606  0.35456  1.0000
  F   F162      1.0  0.19160  0.26541  0.85096  1.0000
  F   F163      1.0  0.17400  0.75169  0.36939  1.0000
  F   F164      1.0  0.18617  0.76004  0.85153  1.0000
  F   F165      1.0  0.43616  0.23814  0.36411  1.0000
  F   F166      1.0  0.43564  0.25333  0.85234  1.0000
  F   F167      1.0  0.43267  0.75839  0.34429  1.0000
  F   F168      1.0  0.42666  0.74219  0.86562  1.0000
  F   F169      1.0  0.68030  0.24596  0.36801  1.0000
  F   F170      1.0  0.68323  0.24388  0.84900  1.0000
  F   F171      1.0  0.68465  0.75565  0.35229  1.0000
  F   F172      1.0  0.68730  0.74678  0.86067  1.0000
  F   F173      1.0  0.93866  0.25057  0.34447  1.0000
  F   F174      1.0  0.93965  0.24881  0.85702  1.0000
  F   F175      1.0  0.94327  0.74952  0.34611  1.0000
  F   F176      1.0  0.93920  0.74342  0.86817  1.0000
  F   F177      1.0  0.12083  0.12044  0.40398  1.0000
  F   F178      1.0  0.12936  0.13639  0.88847  1.0000
  F   F179      1.0  0.12334  0.63614  0.38918  1.0000
  F   F180      1.0  0.12570  0.65517  0.88712  1.0000
  F   F181      1.0  0.37200  0.13560  0.38488  1.0000
  F   F182      1.0  0.37622  0.12504  0.89894  1.0000
  F   F183      1.0  0.37549  0.62434  0.40447  1.0000
  F   F184      1.0  0.37687  0.61105  0.90435  1.0000
  F   F185      1.0  0.62273  0.12091  0.40265  1.0000
  F   F186      1.0  0.62424  0.12685  0.88663  1.0000
  F   F187      1.0  0.62784  0.63727  0.37860  1.0000
  F   F188      1.0  0.62553  0.62868  0.90003  1.0000
  F   F189      1.0  0.87635  0.11247  0.40706  1.0000
  F   F190      1.0  0.87639  0.13415  0.88349  1.0000
  F   F191      1.0  0.88321  0.64544  0.37062  1.0000
  F   F192      1.0  0.87473  0.63238  0.88687  1.0000
  F   F193      1.0  0.00595  0.36130  0.08837  1.0000
  F   F194      1.0  0.00849  0.35763  0.57608  1.0000
  F   F195      1.0  0.00917  0.85701  0.06795  1.0000
  F   F196      1.0  0.01337  0.86240  0.56817  1.0000
  F   F197      1.0  0.25342  0.36241  0.08439  1.0000
  F   F198      1.0  0.26053  0.34734  0.58682  1.0000
  F   F199      1.0  0.25865  0.86445  0.07069  1.0000
  F   F200      1.0  0.25787  0.87410  0.57186  1.0000
  F   F201      1.0  0.50556  0.35900  0.07520  1.0000
  F   F202      1.0  0.50466  0.38480  0.56304  1.0000
  F   F203      1.0  0.51360  0.87767  0.05637  1.0000
  F   F204      1.0  0.50818  0.86427  0.57210  1.0000
  F   F205      1.0  0.75527  0.35250  0.08992  1.0000
  F   F206      1.0  0.75885  0.36006  0.56778  1.0000
  F   F207      1.0  0.76135  0.84338  0.07875  1.0000
  F   F208      1.0  0.75807  0.86728  0.57352  1.0000
  F   F209      1.0  0.06837  0.49046  0.17581  1.0000
  F   F210      1.0  0.06574  0.48627  0.68330  1.0000
  F   F211      1.0  0.07268  0.98546  0.17760  1.0000
  F   F212      1.0  0.06617  0.98910  0.67903  1.0000
  F   F213      1.0  0.31842  0.48679  0.17084  1.0000
  F   F214      1.0  0.31516  0.48797  0.67982  1.0000
  F   F215      1.0  0.31961  0.98721  0.16987  1.0000
  F   F216      1.0  0.31999  0.97668  0.67450  1.0000
  F   F217      1.0  0.56950  0.47698  0.18105  1.0000
  F   F218      1.0  0.57420  0.48399  0.67631  1.0000
  F   F219      1.0  0.56568  0.99031  0.18037  1.0000
  F   F220      1.0  0.56959  0.98064  0.67485  1.0000
  F   F221      1.0  0.81369  0.48062  0.18790  1.0000
  F   F222      1.0  0.82491  0.49869  0.65443  1.0000
  F   F223      1.0  0.82504  0.99382  0.17001  1.0000
  F   F224      1.0  0.82097  0.98507  0.68327  1.0000
  F   F225      1.0  0.23977  0.15290  0.41257  1.0000
  F   F226      1.0  0.24482  0.14078  0.91999  1.0000
  F   F227      1.0  0.24161  0.65344  0.41529  1.0000
  F   F228      1.0  0.23890  0.63258  0.93588  1.0000
  F   F229      1.0  0.49637  0.13837  0.41727  1.0000
  F   F230      1.0  0.49383  0.14007  0.92054  1.0000
  F   F231      1.0  0.48992  0.64830  0.42433  1.0000
  F   F232      1.0  0.48943  0.64762  0.92202  1.0000
  F   F233      1.0  0.74356  0.11926  0.43079  1.0000
  F   F234      1.0  0.74379  0.15240  0.90941  1.0000
  F   F235      1.0  0.74532  0.64240  0.42028  1.0000
  F   F236      1.0  0.74340  0.62389  0.92806  1.0000
  F   F237      1.0  0.99210  0.14337  0.42361  1.0000
  F   F238      1.0  0.99097  0.12305  0.94325  1.0000
  F   F239      1.0  0.99203  0.63207  0.43834  1.0000
  F   F240      1.0  0.99664  0.60857  0.93304  1.0000
  F   F241      1.0  0.18502  0.01188  0.31714  1.0000
  F   F242      1.0  0.17783  0.02127  0.82979  1.0000
  F   F243      1.0  0.17325  0.51143  0.34423  1.0000
  F   F244      1.0  0.17798  0.52507  0.82859  1.0000
  F   F245      1.0  0.43430  0.01076  0.31577  1.0000
  F   F246      1.0  0.42651  0.01606  0.82057  1.0000
  F   F247      1.0  0.43681  0.51150  0.32111  1.0000
  F   F248      1.0  0.43379  0.51215  0.82118  1.0000
  F   F249      1.0  0.68535  0.01222  0.32738  1.0000
  F   F250      1.0  0.69005  0.00982  0.81668  1.0000
  F   F251      1.0  0.67833  0.50997  0.32108  1.0000
  F   F252      1.0  0.68530  0.52599  0.81422  1.0000
  F   F253      1.0  0.93626  0.01724  0.31876  1.0000
  F   F254      1.0  0.92673  0.01331  0.83216  1.0000
  F   F255      1.0  0.92042  0.50642  0.34570  1.0000
  F   F256      1.0  0.93219  0.51706  0.81016  1.0000
  F   F257      1.0  0.99871  0.25145  0.00486  1.0000
  F   F258      1.0  0.00245  0.25831  0.49543  1.0000
  F   F259      1.0  0.99414  0.73484  0.01018  1.0000
  F   F260      1.0  0.99628  0.75921  0.49464  1.0000
  F   F261      1.0  0.25143  0.24231  0.00265  1.0000
  F   F262      1.0  0.25102  0.24865  0.50178  1.0000
  F   F263      1.0  0.24816  0.74794  0.00949  1.0000
  F   F264      1.0  0.25120  0.74771  0.49780  1.0000
  F   F265      1.0  0.49727  0.25255  0.98866  1.0000
  F   F266      1.0  0.50117  0.25773  0.49855  1.0000
  F   F267      1.0  0.50176  0.75435  0.99283  1.0000
  F   F268      1.0  0.50425  0.75930  0.49487  1.0000
  F   F269      1.0  0.74979  0.25619  0.00259  1.0000
  F   F270      1.0  0.74602  0.24606  0.49721  1.0000
  F   F271      1.0  0.74799  0.74410  0.99869  1.0000
  F   F272      1.0  0.75133  0.74909  0.50511  1.0000
  F   F273      1.0  0.12967  0.00805  0.23995  1.0000
  F   F274      1.0  0.12076  0.01093  0.75711  1.0000
  F   F275      1.0  0.12903  0.50089  0.24815  1.0000
  F   F276      1.0  0.13211  0.51020  0.73504  1.0000
  F   F277      1.0  0.37177  0.99613  0.25589  1.0000
  F   F278      1.0  0.36904  0.99707  0.75310  1.0000
  F   F279      1.0  0.37299  0.49512  0.25284  1.0000
  F   F280      1.0  0.36777  0.50090  0.77381  1.0000
  F   F281      1.0  0.62610  0.99948  0.25100  1.0000
  F   F282      1.0  0.62161  0.99147  0.75987  1.0000
  F   F283      1.0  0.62304  0.48889  0.25010  1.0000
  F   F284      1.0  0.62448  0.49168  0.75751  1.0000
  F   F285      1.0  0.88352  0.00851  0.24545  1.0000
  F   F286      1.0  0.87676  0.00223  0.75503  1.0000
  F   F287      1.0  0.86705  0.48308  0.26640  1.0000
  F   F288      1.0  0.87361  0.49806  0.74622  1.0000
  F   F289      1.0  0.05495  0.02784  0.01890  1.0000
  F   F290      1.0  0.03381  0.04018  0.53324  1.0000
  F   F291      1.0  0.04605  0.54090  0.02665  1.0000
  F   F292      1.0  0.04902  0.52371  0.52305  1.0000
  F   F293      1.0  0.29407  0.03611  0.01414  1.0000
  F   F294      1.0  0.28718  0.03151  0.52691  1.0000
  F   F295      1.0  0.28905  0.53784  0.02444  1.0000
  F   F296      1.0  0.29161  0.54123  0.51606  1.0000
  F   F297      1.0  0.54836  0.03004  0.01533  1.0000
  F   F298      1.0  0.53910  0.02973  0.52392  1.0000
  F   F299      1.0  0.53959  0.52976  0.02408  1.0000
  F   F300      1.0  0.53627  0.54541  0.52913  1.0000
  F   F301      1.0  0.78558  0.02117  0.03662  1.0000
  F   F302      1.0  0.78321  0.03557  0.55069  1.0000
  F   F303      1.0  0.79879  0.51615  0.01733  1.0000
  F   F304      1.0  0.80031  0.53693  0.50766  1.0000
  F   F305      1.0  0.23874  0.41650  0.22033  1.0000
  F   F306      1.0  0.22904  0.42943  0.71777  1.0000
  F   F307      1.0  0.23810  0.89901  0.24222  1.0000
  F   F308      1.0  0.23220  0.92689  0.72253  1.0000
  F   F309      1.0  0.48299  0.40662  0.22433  1.0000
  F   F310      1.0  0.48719  0.40920  0.72732  1.0000
  F   F311      1.0  0.48950  0.89355  0.22698  1.0000
  F   F312      1.0  0.48408  0.91593  0.71885  1.0000
  F   F313      1.0  0.73538  0.41896  0.22465  1.0000
  F   F314      1.0  0.73209  0.41480  0.72478  1.0000
  F   F315      1.0  0.73085  0.92168  0.22039  1.0000
  F   F316      1.0  0.73204  0.89989  0.74065  1.0000
  F   F317      1.0  0.97822  0.41776  0.23676  1.0000
  F   F318      1.0  0.98650  0.42080  0.71645  1.0000
  F   F319      1.0  0.98718  0.91602  0.22048  1.0000
  F   F320      1.0  0.97631  0.90823  0.74136  1.0000
  F   F321      1.0  0.21006  0.47304  0.47106  1.0000
  F   F322      1.0  0.20509  0.46354  0.98314  1.0000
  F   F323      1.0  0.21129  0.98132  0.47170  1.0000
  F   F324      1.0  0.20734  0.97879  0.97523  1.0000
  F   F325      1.0  0.46041  0.47000  0.47237  1.0000
  F   F326      1.0  0.46489  0.46345  0.96831  1.0000
  F   F327      1.0  0.45730  0.96412  0.47620  1.0000
  F   F328      1.0  0.46285  0.97924  0.96330  1.0000
  F   F329      1.0  0.70100  0.46817  0.47117  1.0000
  F   F330      1.0  0.71284  0.46380  0.97872  1.0000
  F   F331      1.0  0.70925  0.95725  0.48171  1.0000
  F   F332      1.0  0.70968  0.96437  0.96654  1.0000
  F   F333      1.0  0.96484  0.46311  0.47153  1.0000
  F   F334      1.0  0.95009  0.46109  0.98235  1.0000
  F   F335      1.0  0.95913  0.96344  0.47243  1.0000
  F   F336      1.0  0.95005  0.96935  0.98596  1.0000
  F   F337      1.0  0.01476  0.07958  0.28363  1.0000
  F   F338      1.0  0.01914  0.09102  0.77521  1.0000
  F   F339      1.0  0.01925  0.58920  0.27666  1.0000
  F   F340      1.0  0.01425  0.58275  0.77760  1.0000
  F   F341      1.0  0.26631  0.07843  0.28365  1.0000
  F   F342      1.0  0.26588  0.08956  0.77272  1.0000
  F   F343      1.0  0.26433  0.58967  0.27342  1.0000
  F   F344      1.0  0.26165  0.59402  0.76795  1.0000
  F   F345      1.0  0.51744  0.10124  0.26837  1.0000
  F   F346      1.0  0.51237  0.08623  0.76761  1.0000
  F   F347      1.0  0.51257  0.59265  0.26462  1.0000
  F   F348      1.0  0.52371  0.57751  0.77912  1.0000
  F   F349      1.0  0.76969  0.08516  0.26887  1.0000
  F   F350      1.0  0.76512  0.09039  0.76759  1.0000
  F   F351      1.0  0.76690  0.58294  0.28101  1.0000
  F   F352      1.0  0.76937  0.56852  0.78128  1.0000
  F   F353      1.0  0.10376  0.38774  0.45313  1.0000
  F   F354      1.0  0.09785  0.42565  0.94446  1.0000
  F   F355      1.0  0.10039  0.91928  0.46845  1.0000
  F   F356      1.0  0.10440  0.88799  0.97436  1.0000
  F   F357      1.0  0.35440  0.41824  0.45958  1.0000
  F   F358      1.0  0.35235  0.41461  0.95728  1.0000
  F   F359      1.0  0.35330  0.91848  0.45200  1.0000
  F   F360      1.0  0.34938  0.89824  0.96093  1.0000
  F   F361      1.0  0.59678  0.42648  0.46222  1.0000
  F   F362      1.0  0.59775  0.40938  0.96597  1.0000
  F   F363      1.0  0.59694  0.92732  0.45766  1.0000
  F   F364      1.0  0.60763  0.91421  0.96325  1.0000
  F   F365      1.0  0.84911  0.38731  0.47986  1.0000
  F   F366      1.0  0.85371  0.40338  0.96070  1.0000
  F   F367      1.0  0.85193  0.91459  0.46112  1.0000
  F   F368      1.0  0.84532  0.92747  0.97173  1.0000
  F   F369      1.0  0.03825  0.30490  0.28784  1.0000
  F   F370      1.0  0.04511  0.30219  0.78832  1.0000
  F   F371      1.0  0.04170  0.79075  0.29166  1.0000
  F   F372      1.0  0.03874  0.80502  0.79062  1.0000
  F   F373      1.0  0.30830  0.30632  0.28048  1.0000
  F   F374      1.0  0.29431  0.31509  0.78183  1.0000
  F   F375      1.0  0.30560  0.79797  0.27600  1.0000
  F   F376      1.0  0.28888  0.80499  0.78841  1.0000
  F   F377      1.0  0.54761  0.30493  0.28726  1.0000
  F   F378      1.0  0.55183  0.29585  0.78484  1.0000
  F   F379      1.0  0.55288  0.80128  0.28428  1.0000
  F   F380      1.0  0.54832  0.80020  0.78701  1.0000
  F   F381      1.0  0.79202  0.28943  0.29451  1.0000
  F   F382      1.0  0.79341  0.30752  0.79838  1.0000
  F   F383      1.0  0.79260  0.80863  0.29099  1.0000
  F   F384      1.0  0.80030  0.79215  0.79399  1.0000
