data_image0
_chemical_formula_structural       Hf96F384
_chemical_formula_sum              "Hf96 F384"
_cell_length_a       31.0498
_cell_length_b       15.5256
_cell_length_c       15.5151
_cell_angle_alpha    63.342
_cell_angle_beta     63.342
_cell_angle_gamma    80.1625

_space_group_name_H-M_alt    "P 1"
_space_group_IT_number       1

loop_
  _space_group_symop_operation_xyz
  'x, y, z'

loop_
  _atom_site_type_symbol
  _atom_site_label
  _atom_site_symmetry_multiplicity
  _atom_site_fract_x
  _atom_site_fract_y
  _atom_site_fract_z
  _atom_site_occupancy
  Hf  Hf1       1.0  0.19555  0.11178  0.36730  1.0000
  Hf  Hf2       1.0  0.19663  0.10870  0.87385  1.0000
  Hf  Hf3       1.0  0.19884  0.61305  0.36950  1.0000
  Hf  Hf4       1.0  0.19818  0.60991  0.86811  1.0000
  Hf  Hf5       1.0  0.45084  0.11662  0.36130  1.0000
  Hf  Hf6       1.0  0.44122  0.10471  0.88708  1.0000
  Hf  Hf7       1.0  0.44612  0.60221  0.38020  1.0000
  Hf  Hf8       1.0  0.44350  0.60227  0.87944  1.0000
  Hf  Hf9       1.0  0.69627  0.10441  0.37206  1.0000
  Hf  Hf10      1.0  0.69821  0.10681  0.86724  1.0000
  Hf  Hf11      1.0  0.69473  0.60273  0.37905  1.0000
  Hf  Hf12      1.0  0.69282  0.61313  0.88080  1.0000
  Hf  Hf13      1.0  0.94685  0.09428  0.38714  1.0000
  Hf  Hf14      1.0  0.94499  0.11254  0.87852  1.0000
  Hf  Hf15      1.0  0.94653  0.60296  0.38348  1.0000
  Hf  Hf16      1.0  0.94730  0.60251  0.88490  1.0000
  Hf  Hf17      1.0  0.05277  0.39707  0.12146  1.0000
  Hf  Hf18      1.0  0.05355  0.39769  0.62273  1.0000
  Hf  Hf19      1.0  0.05150  0.89613  0.13014  1.0000
  Hf  Hf20      1.0  0.05708  0.89256  0.62486  1.0000
  Hf  Hf21      1.0  0.30567  0.39698  0.11577  1.0000
  Hf  Hf22      1.0  0.30487  0.40358  0.61780  1.0000
  Hf  Hf23      1.0  0.30517  0.89339  0.12226  1.0000
  Hf  Hf24      1.0  0.30708  0.90045  0.61037  1.0000
  Hf  Hf25      1.0  0.55518  0.39131  0.11916  1.0000
  Hf  Hf26      1.0  0.54827  0.38670  0.63910  1.0000
  Hf  Hf27      1.0  0.55480  0.88312  0.13376  1.0000
  Hf  Hf28      1.0  0.55277  0.89840  0.62643  1.0000
  Hf  Hf29      1.0  0.80570  0.39390  0.12398  1.0000
  Hf  Hf30      1.0  0.80080  0.39177  0.62316  1.0000
  Hf  Hf31      1.0  0.80604  0.88820  0.12384  1.0000
  Hf  Hf32      1.0  0.80547  0.89207  0.61864  1.0000
  Hf  Hf33      1.0  0.05533  0.18485  0.41776  1.0000
  Hf  Hf34      1.0  0.05541  0.18832  0.91696  1.0000
  Hf  Hf35      1.0  0.05527  0.68870  0.41590  1.0000
  Hf  Hf36      1.0  0.05904  0.69318  0.90911  1.0000
  Hf  Hf37      1.0  0.30583  0.19004  0.41290  1.0000
  Hf  Hf38      1.0  0.30628  0.17987  0.91215  1.0000
  Hf  Hf39      1.0  0.30843  0.68621  0.41093  1.0000
  Hf  Hf40      1.0  0.30626  0.68541  0.91013  1.0000
  Hf  Hf41      1.0  0.55842  0.18086  0.41127  1.0000
  Hf  Hf42      1.0  0.55641  0.17742  0.91994  1.0000
  Hf  Hf43      1.0  0.55441  0.68531  0.41334  1.0000
  Hf  Hf44      1.0  0.55295  0.67615  0.92184  1.0000
  Hf  Hf45      1.0  0.80340  0.17505  0.42824  1.0000
  Hf  Hf46      1.0  0.80658  0.17799  0.92010  1.0000
  Hf  Hf47      1.0  0.80705  0.67928  0.42007  1.0000
  Hf  Hf48      1.0  0.80716  0.67907  0.91302  1.0000
  Hf  Hf49      1.0  0.15556  0.39346  0.33167  1.0000
  Hf  Hf50      1.0  0.16133  0.39060  0.82787  1.0000
  Hf  Hf51      1.0  0.16066  0.88792  0.33285  1.0000
  Hf  Hf52      1.0  0.15812  0.89460  0.83021  1.0000
  Hf  Hf53      1.0  0.40545  0.39077  0.33536  1.0000
  Hf  Hf54      1.0  0.40762  0.38630  0.83543  1.0000
  Hf  Hf55      1.0  0.41230  0.89916  0.32338  1.0000
  Hf  Hf56      1.0  0.40736  0.90401  0.82872  1.0000
  Hf  Hf57      1.0  0.65296  0.37995  0.34295  1.0000
  Hf  Hf58      1.0  0.66352  0.38711  0.83866  1.0000
  Hf  Hf59      1.0  0.65948  0.88497  0.32618  1.0000
  Hf  Hf60      1.0  0.65932  0.88496  0.83215  1.0000
  Hf  Hf61      1.0  0.90579  0.38216  0.34707  1.0000
  Hf  Hf62      1.0  0.90947  0.38627  0.83879  1.0000
  Hf  Hf63      1.0  0.90550  0.88237  0.33881  1.0000
  Hf  Hf64      1.0  0.90757  0.87693  0.84027  1.0000
  Hf  Hf65      1.0  0.19657  0.32237  0.07772  1.0000
  Hf  Hf66      1.0  0.19466  0.32161  0.58204  1.0000
  Hf  Hf67      1.0  0.19531  0.82201  0.08209  1.0000
  Hf  Hf68      1.0  0.19916  0.82027  0.57947  1.0000
  Hf  Hf69      1.0  0.44308  0.31709  0.08280  1.0000
  Hf  Hf70      1.0  0.44222  0.31808  0.58448  1.0000
  Hf  Hf71      1.0  0.44400  0.81989  0.08519  1.0000
  Hf  Hf72      1.0  0.44364  0.82599  0.57839  1.0000
  Hf  Hf73      1.0  0.69410  0.31797  0.08633  1.0000
  Hf  Hf74      1.0  0.69243  0.31779  0.58849  1.0000
  Hf  Hf75      1.0  0.69738  0.81702  0.07012  1.0000
  Hf  Hf76      1.0  0.69461  0.81250  0.58016  1.0000
  Hf  Hf77      1.0  0.94541  0.31375  0.08469  1.0000
  Hf  Hf78      1.0  0.94113  0.30985  0.59144  1.0000
  Hf  Hf79      1.0  0.94637  0.82113  0.07659  1.0000
  Hf  Hf80      1.0  0.94504  0.81712  0.58249  1.0000
  Hf  Hf81      1.0  0.08759  0.11274  0.16880  1.0000
  Hf  Hf82      1.0  0.09086  0.11716  0.66419  1.0000
  Hf  Hf83      1.0  0.08872  0.61869  0.17258  1.0000
  Hf  Hf84      1.0  0.09073  0.61191  0.66728  1.0000
  Hf  Hf85      1.0  0.34131  0.11976  0.16297  1.0000
  Hf  Hf86      1.0  0.34014  0.11662  0.66036  1.0000
  Hf  Hf87      1.0  0.33743  0.60849  0.16737  1.0000
  Hf  Hf88      1.0  0.34325  0.61473  0.66546  1.0000
  Hf  Hf89      1.0  0.59955  0.11291  0.15542  1.0000
  Hf  Hf90      1.0  0.58928  0.10918  0.67237  1.0000
  Hf  Hf91      1.0  0.59230  0.60583  0.16751  1.0000
  Hf  Hf92      1.0  0.59073  0.61099  0.66861  1.0000
  Hf  Hf93      1.0  0.84249  0.11036  0.17746  1.0000
  Hf  Hf94      1.0  0.84062  0.10540  0.67556  1.0000
  Hf  Hf95      1.0  0.83781  0.60464  0.17618  1.0000
  Hf  Hf96      1.0  0.84162  0.60935  0.67142  1.0000
  F   F1        1.0  0.07685  0.12312  0.30506  1.0000
  F   F2        1.0  0.08291  0.13526  0.80145  1.0000
  F   F3        1.0  0.07985  0.63917  0.30916  1.0000
  F   F4        1.0  0.07774  0.64156  0.79868  1.0000
  F   F5        1.0  0.32729  0.12451  0.30804  1.0000
  F   F6        1.0  0.33523  0.12800  0.80186  1.0000
  F   F7        1.0  0.32883  0.64562  0.29363  1.0000
  F   F8        1.0  0.32693  0.61977  0.80670  1.0000
  F   F9        1.0  0.58431  0.13205  0.28431  1.0000
  F   F10       1.0  0.57239  0.12500  0.80718  1.0000
  F   F11       1.0  0.57899  0.63178  0.30616  1.0000
  F   F12       1.0  0.58359  0.63473  0.78852  1.0000
  F   F13       1.0  0.81321  0.09930  0.33352  1.0000
  F   F14       1.0  0.83919  0.13937  0.78683  1.0000
  F   F15       1.0  0.82458  0.60495  0.31614  1.0000
  F   F16       1.0  0.83517  0.63563  0.79683  1.0000
  F   F17       1.0  0.18679  0.35321  0.43242  1.0000
  F   F18       1.0  0.18428  0.33018  0.94069  1.0000
  F   F19       1.0  0.18629  0.83665  0.44953  1.0000
  F   F20       1.0  0.18047  0.84104  0.95899  1.0000
  F   F21       1.0  0.42518  0.33397  0.45737  1.0000
  F   F22       1.0  0.43663  0.34524  0.93493  1.0000
  F   F23       1.0  0.43250  0.84223  0.44467  1.0000
  F   F24       1.0  0.43337  0.83859  0.94032  1.0000
  F   F25       1.0  0.68206  0.32371  0.46656  1.0000
  F   F26       1.0  0.68719  0.33494  0.94861  1.0000
  F   F27       1.0  0.68793  0.83061  0.44269  1.0000
  F   F28       1.0  0.69139  0.84088  0.93831  1.0000
  F   F29       1.0  0.93449  0.32963  0.45099  1.0000
  F   F30       1.0  0.92593  0.32876  0.95954  1.0000
  F   F31       1.0  0.93882  0.82579  0.44343  1.0000
  F   F32       1.0  0.94175  0.85018  0.93567  1.0000
  F   F33       1.0  0.16676  0.36204  0.19732  1.0000
  F   F34       1.0  0.16891  0.37251  0.69165  1.0000
  F   F35       1.0  0.17220  0.86036  0.20680  1.0000
  F   F36       1.0  0.17864  0.88433  0.67879  1.0000
  F   F37       1.0  0.42150  0.38403  0.18876  1.0000
  F   F38       1.0  0.42458  0.37175  0.68742  1.0000
  F   F39       1.0  0.42191  0.88173  0.18579  1.0000
  F   F40       1.0  0.41496  0.87630  0.70072  1.0000
  F   F41       1.0  0.67053  0.39128  0.18720  1.0000
  F   F42       1.0  0.67216  0.37499  0.70551  1.0000
  F   F43       1.0  0.67159  0.86768  0.19027  1.0000
  F   F44       1.0  0.66608  0.85608  0.70550  1.0000
  F   F45       1.0  0.92598  0.37123  0.19161  1.0000
  F   F46       1.0  0.91081  0.35581  0.71758  1.0000
  F   F47       1.0  0.91748  0.87048  0.19554  1.0000
  F   F48       1.0  0.91298  0.86171  0.70158  1.0000
  F   F49       1.0  0.06612  0.16475  0.05438  1.0000
  F   F50       1.0  0.05969  0.15135  0.56717  1.0000
  F   F51       1.0  0.07673  0.66921  0.04010  1.0000
  F   F52       1.0  0.05825  0.65348  0.56499  1.0000
  F   F53       1.0  0.31585  0.15925  0.05281  1.0000
  F   F54       1.0  0.30708  0.16545  0.55489  1.0000
  F   F55       1.0  0.31139  0.65243  0.05206  1.0000
  F   F56       1.0  0.31782  0.67442  0.54551  1.0000
  F   F57       1.0  0.56381  0.14308  0.05848  1.0000
  F   F58       1.0  0.55326  0.14937  0.56484  1.0000
  F   F59       1.0  0.55926  0.66108  0.05473  1.0000
  F   F60       1.0  0.56770  0.65970  0.55013  1.0000
  F   F61       1.0  0.81089  0.14038  0.07818  1.0000
  F   F62       1.0  0.81119  0.14712  0.56213  1.0000
  F   F63       1.0  0.81632  0.64866  0.05246  1.0000
  F   F64       1.0  0.82006  0.65139  0.55709  1.0000
  F   F65       1.0  0.21334  0.19837  0.20262  1.0000
  F   F66       1.0  0.20649  0.20217  0.70004  1.0000
  F   F67       1.0  0.19925  0.70113  0.21666  1.0000
  F   F68       1.0  0.21202  0.71216  0.70751  1.0000
  F   F69       1.0  0.45211  0.20080  0.21648  1.0000
  F   F70       1.0  0.44477  0.20003  0.70041  1.0000
  F   F71       1.0  0.45108  0.70623  0.20029  1.0000
  F   F72       1.0  0.45201  0.69633  0.71132  1.0000
  F   F73       1.0  0.69550  0.20269  0.22744  1.0000
  F   F74       1.0  0.71495  0.19666  0.70469  1.0000
  F   F75       1.0  0.70134  0.69411  0.21940  1.0000
  F   F76       1.0  0.70835  0.70346  0.71315  1.0000
  F   F77       1.0  0.95658  0.19251  0.19188  1.0000
  F   F78       1.0  0.94667  0.18414  0.71749  1.0000
  F   F79       1.0  0.94725  0.70379  0.20062  1.0000
  F   F80       1.0  0.96066  0.70907  0.70667  1.0000
  F   F81       1.0  0.14651  0.09459  0.04201  1.0000
  F   F82       1.0  0.14529  0.09471  0.54583  1.0000
  F   F83       1.0  0.15474  0.57678  0.02979  1.0000
  F   F84       1.0  0.14630  0.58850  0.54198  1.0000
  F   F85       1.0  0.40379  0.10467  0.03988  1.0000
  F   F86       1.0  0.40010  0.10658  0.51657  1.0000
  F   F87       1.0  0.39871  0.57398  0.04642  1.0000
  F   F88       1.0  0.40633  0.58348  0.54234  1.0000
  F   F89       1.0  0.65444  0.09487  0.02307  1.0000
  F   F90       1.0  0.64369  0.09270  0.55051  1.0000
  F   F91       1.0  0.65350  0.59064  0.04045  1.0000
  F   F92       1.0  0.64972  0.59552  0.54297  1.0000
  F   F93       1.0  0.90089  0.09617  0.05137  1.0000
  F   F94       1.0  0.89895  0.06728  0.54755  1.0000
  F   F95       1.0  0.90107  0.57673  0.04860  1.0000
  F   F96       1.0  0.90050  0.57895  0.54212  1.0000
  F   F97       1.0  0.14906  0.21386  0.11941  1.0000
  F   F98       1.0  0.15176  0.21648  0.61181  1.0000
  F   F99       1.0  0.15597  0.68348  0.12156  1.0000
  F   F100      1.0  0.15560  0.69845  0.61965  1.0000
  F   F101      1.0  0.39636  0.20181  0.13946  1.0000
  F   F102      1.0  0.40134  0.18748  0.61607  1.0000
  F   F103      1.0  0.39943  0.68525  0.11694  1.0000
  F   F104      1.0  0.39943  0.69895  0.62528  1.0000
  F   F105      1.0  0.65762  0.19189  0.12373  1.0000
  F   F106      1.0  0.64887  0.20097  0.64409  1.0000
  F   F107      1.0  0.64863  0.69709  0.11986  1.0000
  F   F108      1.0  0.65657  0.68814  0.63227  1.0000
  F   F109      1.0  0.89419  0.20461  0.14222  1.0000
  F   F110      1.0  0.90390  0.18610  0.61516  1.0000
  F   F111      1.0  0.89462  0.70186  0.12110  1.0000
  F   F112      1.0  0.89991  0.69795  0.62956  1.0000
  F   F113      1.0  0.09152  0.29436  0.39875  1.0000
  F   F114      1.0  0.09630  0.30111  0.87806  1.0000
  F   F115      1.0  0.10015  0.80456  0.36634  1.0000
  F   F116      1.0  0.09998  0.82336  0.85834  1.0000
  F   F117      1.0  0.35208  0.30171  0.38918  1.0000
  F   F118      1.0  0.34516  0.29817  0.87225  1.0000
  F   F119      1.0  0.35465  0.79563  0.37861  1.0000
  F   F120      1.0  0.35717  0.79516  0.88338  1.0000
  F   F121      1.0  0.59771  0.30631  0.35825  1.0000
  F   F122      1.0  0.60142  0.29745  0.88644  1.0000
  F   F123      1.0  0.59672  0.79996  0.37168  1.0000
  F   F124      1.0  0.59468  0.78989  0.87152  1.0000
  F   F125      1.0  0.84816  0.29895  0.39173  1.0000
  F   F126      1.0  0.84444  0.28977  0.89902  1.0000
  F   F127      1.0  0.84616  0.80467  0.38516  1.0000
  F   F128      1.0  0.84358  0.79807  0.87671  1.0000
  F   F129      1.0  0.06100  0.25062  0.15157  1.0000
  F   F130      1.0  0.07561  0.25733  0.61831  1.0000
  F   F131      1.0  0.06702  0.75606  0.15439  1.0000
  F   F132      1.0  0.07053  0.75246  0.63509  1.0000
  F   F133      1.0  0.30795  0.25208  0.15142  1.0000
  F   F134      1.0  0.32294  0.25578  0.62742  1.0000
  F   F135      1.0  0.31249  0.74631  0.13328  1.0000
  F   F136      1.0  0.31382  0.75204  0.64529  1.0000
  F   F137      1.0  0.57216  0.25982  0.11339  1.0000
  F   F138      1.0  0.56889  0.25540  0.63740  1.0000
  F   F139      1.0  0.56656  0.74217  0.14574  1.0000
  F   F140      1.0  0.56833  0.75624  0.63567  1.0000
  F   F141      1.0  0.81015  0.25375  0.14027  1.0000
  F   F142      1.0  0.81516  0.24267  0.64521  1.0000
  F   F143      1.0  0.81367  0.74752  0.13409  1.0000
  F   F144      1.0  0.82131  0.75167  0.63799  1.0000
  F   F145      1.0  0.12590  0.38683  0.09022  1.0000
  F   F146      1.0  0.12310  0.38262  0.59798  1.0000
  F   F147      1.0  0.12338  0.85649  0.12459  1.0000
  F   F148      1.0  0.12583  0.87401  0.61165  1.0000
  F   F149      1.0  0.37435  0.36416  0.10762  1.0000
  F   F150      1.0  0.37327  0.37566  0.61158  1.0000
  F   F151      1.0  0.37549  0.85431  0.11129  1.0000
  F   F152      1.0  0.37214  0.87281  0.60111  1.0000
  F   F153      1.0  0.62501  0.36862  0.11475  1.0000
  F   F154      1.0  0.62229  0.38223  0.61662  1.0000
  F   F155      1.0  0.62453  0.85780  0.11350  1.0000
  F   F156      1.0  0.62745  0.88551  0.59129  1.0000
  F   F157      1.0  0.87589  0.38813  0.09711  1.0000
  F   F158      1.0  0.87112  0.35468  0.61704  1.0000
  F   F159      1.0  0.87411  0.86952  0.10266  1.0000
  F   F160      1.0  0.87818  0.88555  0.58342  1.0000
  F   F161      1.0  0.18084  0.24694  0.35311  1.0000
  F   F162      1.0  0.18399  0.25421  0.83615  1.0000
  F   F163      1.0  0.18290  0.74319  0.37922  1.0000
  F   F164      1.0  0.17829  0.75247  0.87451  1.0000
  F   F165      1.0  0.44037  0.24995  0.34975  1.0000
  F   F166      1.0  0.43024  0.23775  0.86008  1.0000
  F   F167      1.0  0.44576  0.74480  0.35381  1.0000
  F   F168      1.0  0.44834  0.74835  0.83398  1.0000
  F   F169      1.0  0.66861  0.23331  0.38712  1.0000
  F   F170      1.0  0.69280  0.24226  0.86018  1.0000
  F   F171      1.0  0.67786  0.73787  0.36354  1.0000
  F   F172      1.0  0.67619  0.74362  0.86544  1.0000
  F   F173      1.0  0.93314  0.24137  0.35317  1.0000
  F   F174      1.0  0.93563  0.24754  0.86026  1.0000
  F   F175      1.0  0.93363  0.74368  0.34775  1.0000
  F   F176      1.0  0.93129  0.74070  0.87336  1.0000
  F   F177      1.0  0.12623  0.13977  0.37915  1.0000
  F   F178      1.0  0.12653  0.12480  0.89370  1.0000
  F   F179      1.0  0.12843  0.61748  0.38968  1.0000
  F   F180      1.0  0.12834  0.64842  0.87397  1.0000
  F   F181      1.0  0.37331  0.13722  0.39602  1.0000
  F   F182      1.0  0.37338  0.12467  0.90722  1.0000
  F   F183      1.0  0.37725  0.63205  0.38364  1.0000
  F   F184      1.0  0.37590  0.63973  0.88182  1.0000
  F   F185      1.0  0.62155  0.11562  0.40435  1.0000
  F   F186      1.0  0.62877  0.13928  0.87987  1.0000
  F   F187      1.0  0.62365  0.60872  0.40696  1.0000
  F   F188      1.0  0.61935  0.60824  0.91502  1.0000
  F   F189      1.0  0.87641  0.11959  0.38727  1.0000
  F   F190      1.0  0.87144  0.12002  0.91304  1.0000
  F   F191      1.0  0.87480  0.63429  0.38481  1.0000
  F   F192      1.0  0.87963  0.62150  0.89771  1.0000
  F   F193      1.0  0.00660  0.37339  0.07591  1.0000
  F   F194      1.0  0.00527  0.35906  0.58494  1.0000
  F   F195      1.0  0.00886  0.86624  0.06836  1.0000
  F   F196      1.0  0.00901  0.87018  0.55930  1.0000
  F   F197      1.0  0.26527  0.36510  0.05467  1.0000
  F   F198      1.0  0.25992  0.36274  0.57103  1.0000
  F   F199      1.0  0.25679  0.86257  0.07453  1.0000
  F   F200      1.0  0.26138  0.87593  0.56091  1.0000
  F   F201      1.0  0.50403  0.36260  0.08073  1.0000
  F   F202      1.0  0.50835  0.36691  0.57430  1.0000
  F   F203      1.0  0.50956  0.85732  0.07650  1.0000
  F   F204      1.0  0.50377  0.86172  0.57567  1.0000
  F   F205      1.0  0.75627  0.37572  0.05604  1.0000
  F   F206      1.0  0.75652  0.36533  0.56601  1.0000
  F   F207      1.0  0.76132  0.84933  0.06665  1.0000
  F   F208      1.0  0.75726  0.85646  0.57475  1.0000
  F   F209      1.0  0.06420  0.49456  0.18243  1.0000
  F   F210      1.0  0.06381  0.48179  0.68404  1.0000
  F   F211      1.0  0.07225  0.98594  0.16932  1.0000
  F   F212      1.0  0.06945  0.97618  0.68739  1.0000
  F   F213      1.0  0.31353  0.48283  0.17341  1.0000
  F   F214      1.0  0.31862  0.50109  0.66234  1.0000
  F   F215      1.0  0.32735  0.98661  0.16324  1.0000
  F   F216      1.0  0.31753  0.99314  0.66147  1.0000
  F   F217      1.0  0.56850  0.48700  0.16348  1.0000
  F   F218      1.0  0.56359  0.48673  0.69980  1.0000
  F   F219      1.0  0.56878  0.96676  0.18460  1.0000
  F   F220      1.0  0.56436  0.98257  0.69703  1.0000
  F   F221      1.0  0.81080  0.47973  0.19164  1.0000
  F   F222      1.0  0.82224  0.47616  0.66882  1.0000
  F   F223      1.0  0.82212  0.97342  0.18151  1.0000
  F   F224      1.0  0.81545  0.98340  0.67378  1.0000
  F   F225      1.0  0.24320  0.14594  0.41016  1.0000
  F   F226      1.0  0.24091  0.14059  0.92111  1.0000
  F   F227      1.0  0.24510  0.63653  0.43024  1.0000
  F   F228      1.0  0.24428  0.65298  0.91608  1.0000
  F   F229      1.0  0.50426  0.13446  0.40756  1.0000
  F   F230      1.0  0.48870  0.12055  0.94727  1.0000
  F   F231      1.0  0.49445  0.62306  0.43786  1.0000
  F   F232      1.0  0.49110  0.62136  0.93325  1.0000
  F   F233      1.0  0.73429  0.13546  0.43928  1.0000
  F   F234      1.0  0.74785  0.12104  0.93386  1.0000
  F   F235      1.0  0.73903  0.63647  0.42318  1.0000
  F   F236      1.0  0.74155  0.64093  0.91442  1.0000
  F   F237      1.0  0.99029  0.13943  0.43653  1.0000
  F   F238      1.0  0.98981  0.14023  0.93049  1.0000
  F   F239      1.0  0.99000  0.62031  0.44211  1.0000
  F   F240      1.0  0.99536  0.63294  0.92979  1.0000
  F   F241      1.0  0.17566  0.01916  0.31786  1.0000
  F   F242      1.0  0.17621  0.01364  0.83575  1.0000
  F   F243      1.0  0.18083  0.50854  0.32100  1.0000
  F   F244      1.0  0.17880  0.51496  0.83205  1.0000
  F   F245      1.0  0.43398  0.03023  0.31331  1.0000
  F   F246      1.0  0.42289  0.02535  0.82258  1.0000
  F   F247      1.0  0.43548  0.52159  0.31518  1.0000
  F   F248      1.0  0.43023  0.50308  0.83247  1.0000
  F   F249      1.0  0.68668  0.01054  0.32498  1.0000
  F   F250      1.0  0.68200  0.01286  0.81397  1.0000
  F   F251      1.0  0.67951  0.49162  0.33111  1.0000
  F   F252      1.0  0.67954  0.52389  0.82579  1.0000
  F   F253      1.0  0.93177  0.00904  0.32527  1.0000
  F   F254      1.0  0.92698  0.01485  0.83160  1.0000
  F   F255      1.0  0.93317  0.51694  0.32862  1.0000
  F   F256      1.0  0.93478  0.51374  0.82483  1.0000
  F   F257      1.0  0.00352  0.25484  0.99323  1.0000
  F   F258      1.0  0.00125  0.25436  0.50049  1.0000
  F   F259      1.0  0.00253  0.73694  0.01538  1.0000
  F   F260      1.0  0.99236  0.73170  0.50749  1.0000
  F   F261      1.0  0.24874  0.23788  0.00439  1.0000
  F   F262      1.0  0.24925  0.25975  0.49883  1.0000
  F   F263      1.0  0.25665  0.75978  0.98691  1.0000
  F   F264      1.0  0.25594  0.76218  0.48858  1.0000
  F   F265      1.0  0.50097  0.24919  0.01184  1.0000
  F   F266      1.0  0.50342  0.26590  0.48122  1.0000
  F   F267      1.0  0.49828  0.76564  0.98034  1.0000
  F   F268      1.0  0.49998  0.75595  0.50052  1.0000
  F   F269      1.0  0.75392  0.24648  0.00179  1.0000
  F   F270      1.0  0.74700  0.24591  0.51105  1.0000
  F   F271      1.0  0.74670  0.72733  0.01105  1.0000
  F   F272      1.0  0.74892  0.72229  0.52133  1.0000
  F   F273      1.0  0.12300  0.98960  0.24727  1.0000
  F   F274      1.0  0.12820  0.01445  0.73909  1.0000
  F   F275      1.0  0.11952  0.51320  0.24999  1.0000
  F   F276      1.0  0.12582  0.49864  0.74498  1.0000
  F   F277      1.0  0.38089  0.01102  0.24345  1.0000
  F   F278      1.0  0.36968  0.00144  0.74058  1.0000
  F   F279      1.0  0.36489  0.49975  0.26055  1.0000
  F   F280      1.0  0.36883  0.49402  0.75043  1.0000
  F   F281      1.0  0.63344  0.00192  0.22976  1.0000
  F   F282      1.0  0.62561  0.99442  0.75036  1.0000
  F   F283      1.0  0.61619  0.49648  0.25826  1.0000
  F   F284      1.0  0.62765  0.49838  0.75386  1.0000
  F   F285      1.0  0.87260  0.00196  0.26476  1.0000
  F   F286      1.0  0.87100  0.99743  0.76796  1.0000
  F   F287      1.0  0.88225  0.49983  0.23557  1.0000
  F   F288      1.0  0.87299  0.49051  0.76295  1.0000
  F   F289      1.0  0.04215  0.03128  0.02505  1.0000
  F   F290      1.0  0.04222  0.03389  0.52520  1.0000
  F   F291      1.0  0.05439  0.54259  0.01347  1.0000
  F   F292      1.0  0.03873  0.53739  0.52536  1.0000
  F   F293      1.0  0.28796  0.02813  0.02725  1.0000
  F   F294      1.0  0.28534  0.03976  0.53091  1.0000
  F   F295      1.0  0.30224  0.52902  0.99778  1.0000
  F   F296      1.0  0.29390  0.54096  0.52208  1.0000
  F   F297      1.0  0.54816  0.02726  0.01708  1.0000
  F   F298      1.0  0.55043  0.01881  0.51067  1.0000
  F   F299      1.0  0.54035  0.53326  0.02667  1.0000
  F   F300      1.0  0.54067  0.52267  0.53925  1.0000
  F   F301      1.0  0.79603  0.02086  0.01961  1.0000
  F   F302      1.0  0.78205  0.03430  0.53075  1.0000
  F   F303      1.0  0.79651  0.53022  0.01191  1.0000
  F   F304      1.0  0.78778  0.53116  0.53685  1.0000
  F   F305      1.0  0.23260  0.41339  0.21763  1.0000
  F   F306      1.0  0.23465  0.43090  0.72691  1.0000
  F   F307      1.0  0.23927  0.91477  0.23044  1.0000
  F   F308      1.0  0.23644  0.91884  0.72753  1.0000
  F   F309      1.0  0.48220  0.41491  0.22595  1.0000
  F   F310      1.0  0.48354  0.40500  0.73160  1.0000
  F   F311      1.0  0.48812  0.92298  0.22870  1.0000
  F   F312      1.0  0.48193  0.93895  0.71044  1.0000
  F   F313      1.0  0.73542  0.38286  0.23894  1.0000
  F   F314      1.0  0.73665  0.41076  0.73535  1.0000
  F   F315      1.0  0.73446  0.89848  0.22765  1.0000
  F   F316      1.0  0.73623  0.90270  0.73036  1.0000
  F   F317      1.0  0.98776  0.41112  0.23261  1.0000
  F   F318      1.0  0.98179  0.39884  0.73456  1.0000
  F   F319      1.0  0.98051  0.91050  0.22673  1.0000
  F   F320      1.0  0.98214  0.91620  0.71815  1.0000
  F   F321      1.0  0.21073  0.47242  0.46261  1.0000
  F   F322      1.0  0.21729  0.46492  0.95907  1.0000
  F   F323      1.0  0.20587  0.97957  0.46634  1.0000
  F   F324      1.0  0.20752  0.98124  0.98258  1.0000
  F   F325      1.0  0.45485  0.46674  0.47828  1.0000
  F   F326      1.0  0.45530  0.46566  0.97115  1.0000
  F   F327      1.0  0.46392  0.97535  0.47046  1.0000
  F   F328      1.0  0.45704  0.96801  0.96990  1.0000
  F   F329      1.0  0.70625  0.46376  0.49143  1.0000
  F   F330      1.0  0.70000  0.47253  0.97739  1.0000
  F   F331      1.0  0.70620  0.96808  0.48784  1.0000
  F   F332      1.0  0.70482  0.95680  0.98091  1.0000
  F   F333      1.0  0.95990  0.46022  0.47962  1.0000
  F   F334      1.0  0.96183  0.46399  0.96655  1.0000
  F   F335      1.0  0.96044  0.96193  0.47521  1.0000
  F   F336      1.0  0.96078  0.97038  0.97372  1.0000
  F   F337      1.0  0.01191  0.08721  0.27643  1.0000
  F   F338      1.0  0.01213  0.09484  0.78164  1.0000
  F   F339      1.0  0.01667  0.61393  0.26855  1.0000
  F   F340      1.0  0.01595  0.58889  0.77396  1.0000
  F   F341      1.0  0.26936  0.08258  0.27016  1.0000
  F   F342      1.0  0.26327  0.08022  0.77573  1.0000
  F   F343      1.0  0.26350  0.58697  0.27015  1.0000
  F   F344      1.0  0.26731  0.58604  0.77152  1.0000
  F   F345      1.0  0.51835  0.10180  0.26181  1.0000
  F   F346      1.0  0.51241  0.11169  0.77089  1.0000
  F   F347      1.0  0.51348  0.59197  0.27596  1.0000
  F   F348      1.0  0.51337  0.59109  0.77521  1.0000
  F   F349      1.0  0.76178  0.10573  0.26160  1.0000
  F   F350      1.0  0.77064  0.07248  0.79629  1.0000
  F   F351      1.0  0.75844  0.57968  0.27677  1.0000
  F   F352      1.0  0.76897  0.57584  0.77108  1.0000
  F   F353      1.0  0.09960  0.41289  0.45039  1.0000
  F   F354      1.0  0.10026  0.40491  0.95604  1.0000
  F   F355      1.0  0.10233  0.91304  0.45558  1.0000
  F   F356      1.0  0.10247  0.90788  0.96065  1.0000
  F   F357      1.0  0.35594  0.42223  0.46043  1.0000
  F   F358      1.0  0.35441  0.39499  0.96266  1.0000
  F   F359      1.0  0.34968  0.92583  0.45188  1.0000
  F   F360      1.0  0.35533  0.91257  0.96642  1.0000
  F   F361      1.0  0.59869  0.41255  0.46396  1.0000
  F   F362      1.0  0.60106  0.40985  0.96661  1.0000
  F   F363      1.0  0.60777  0.91331  0.44494  1.0000
  F   F364      1.0  0.59995  0.89861  0.95881  1.0000
  F   F365      1.0  0.85179  0.42161  0.45813  1.0000
  F   F366      1.0  0.84695  0.39387  0.97049  1.0000
  F   F367      1.0  0.84616  0.91540  0.45985  1.0000
  F   F368      1.0  0.85314  0.89619  0.97089  1.0000
  F   F369      1.0  0.05635  0.30331  0.28137  1.0000
  F   F370      1.0  0.04368  0.29602  0.78284  1.0000
  F   F371      1.0  0.04271  0.80769  0.30056  1.0000
  F   F372      1.0  0.04445  0.80488  0.78858  1.0000
  F   F373      1.0  0.30094  0.31173  0.28357  1.0000
  F   F374      1.0  0.29126  0.29819  0.77339  1.0000
  F   F375      1.0  0.29822  0.80575  0.28416  1.0000
  F   F376      1.0  0.30268  0.79816  0.77589  1.0000
  F   F377      1.0  0.54505  0.30085  0.27211  1.0000
  F   F378      1.0  0.54167  0.28407  0.80341  1.0000
  F   F379      1.0  0.53616  0.79246  0.29044  1.0000
  F   F380      1.0  0.54063  0.81399  0.78469  1.0000
  F   F381      1.0  0.80038  0.28995  0.28343  1.0000
  F   F382      1.0  0.78789  0.28703  0.80041  1.0000
  F   F383      1.0  0.79998  0.79368  0.29326  1.0000
  F   F384      1.0  0.79949  0.79544  0.78198  1.0000
