data_image0
_chemical_formula_structural       Hf96F384
_chemical_formula_sum              "Hf96 F384"
_cell_length_a       31.0307
_cell_length_b       15.5153
_cell_length_c       15.5087
_cell_angle_alpha    63.342
_cell_angle_beta     63.342
_cell_angle_gamma    80.1625

_space_group_name_H-M_alt    "P 1"
_space_group_IT_number       1

loop_
  _space_group_symop_operation_xyz
  'x, y, z'

loop_
  _atom_site_type_symbol
  _atom_site_label
  _atom_site_symmetry_multiplicity
  _atom_site_fract_x
  _atom_site_fract_y
  _atom_site_fract_z
  _atom_site_occupancy
  Hf  Hf1       1.0  0.19797  0.10993  0.37414  1.0000
  Hf  Hf2       1.0  0.19660  0.11511  0.87028  1.0000
  Hf  Hf3       1.0  0.19636  0.61358  0.36627  1.0000
  Hf  Hf4       1.0  0.19547  0.61813  0.87463  1.0000
  Hf  Hf5       1.0  0.44647  0.09644  0.38600  1.0000
  Hf  Hf6       1.0  0.44488  0.11146  0.86667  1.0000
  Hf  Hf7       1.0  0.44277  0.60339  0.38820  1.0000
  Hf  Hf8       1.0  0.44506  0.60238  0.87880  1.0000
  Hf  Hf9       1.0  0.70085  0.10907  0.36863  1.0000
  Hf  Hf10      1.0  0.69609  0.10982  0.87779  1.0000
  Hf  Hf11      1.0  0.69266  0.60055  0.37559  1.0000
  Hf  Hf12      1.0  0.69791  0.60108  0.87065  1.0000
  Hf  Hf13      1.0  0.94506  0.10513  0.38163  1.0000
  Hf  Hf14      1.0  0.95056  0.10737  0.85871  1.0000
  Hf  Hf15      1.0  0.94739  0.61073  0.37154  1.0000
  Hf  Hf16      1.0  0.94614  0.60700  0.87853  1.0000
  Hf  Hf17      1.0  0.05712  0.39974  0.11703  1.0000
  Hf  Hf18      1.0  0.05314  0.38867  0.63329  1.0000
  Hf  Hf19      1.0  0.05145  0.89719  0.13064  1.0000
  Hf  Hf20      1.0  0.05224  0.89894  0.62325  1.0000
  Hf  Hf21      1.0  0.30459  0.38915  0.13078  1.0000
  Hf  Hf22      1.0  0.30202  0.39358  0.62268  1.0000
  Hf  Hf23      1.0  0.30613  0.89480  0.13008  1.0000
  Hf  Hf24      1.0  0.30290  0.89601  0.62910  1.0000
  Hf  Hf25      1.0  0.55282  0.38359  0.13095  1.0000
  Hf  Hf26      1.0  0.55583  0.39007  0.62726  1.0000
  Hf  Hf27      1.0  0.55342  0.88366  0.12898  1.0000
  Hf  Hf28      1.0  0.55272  0.89237  0.62425  1.0000
  Hf  Hf29      1.0  0.80158  0.39370  0.12491  1.0000
  Hf  Hf30      1.0  0.80610  0.38774  0.61662  1.0000
  Hf  Hf31      1.0  0.80687  0.89465  0.12513  1.0000
  Hf  Hf32      1.0  0.80297  0.89813  0.62578  1.0000
  Hf  Hf33      1.0  0.05674  0.18844  0.41145  1.0000
  Hf  Hf34      1.0  0.05412  0.18334  0.91888  1.0000
  Hf  Hf35      1.0  0.05220  0.68088  0.42358  1.0000
  Hf  Hf36      1.0  0.05610  0.68524  0.91792  1.0000
  Hf  Hf37      1.0  0.30659  0.18066  0.42122  1.0000
  Hf  Hf38      1.0  0.30154  0.17731  0.92504  1.0000
  Hf  Hf39      1.0  0.30453  0.68134  0.41776  1.0000
  Hf  Hf40      1.0  0.30485  0.67974  0.92465  1.0000
  Hf  Hf41      1.0  0.55252  0.18086  0.42476  1.0000
  Hf  Hf42      1.0  0.55203  0.17304  0.92121  1.0000
  Hf  Hf43      1.0  0.55200  0.67591  0.42147  1.0000
  Hf  Hf44      1.0  0.55658  0.68641  0.91164  1.0000
  Hf  Hf45      1.0  0.80410  0.17669  0.42610  1.0000
  Hf  Hf46      1.0  0.80798  0.18711  0.91214  1.0000
  Hf  Hf47      1.0  0.80612  0.67262  0.42107  1.0000
  Hf  Hf48      1.0  0.80672  0.67653  0.91655  1.0000
  Hf  Hf49      1.0  0.15796  0.38966  0.33304  1.0000
  Hf  Hf50      1.0  0.15870  0.39239  0.83274  1.0000
  Hf  Hf51      1.0  0.15592  0.89549  0.32856  1.0000
  Hf  Hf52      1.0  0.15374  0.89403  0.82962  1.0000
  Hf  Hf53      1.0  0.40988  0.38873  0.33125  1.0000
  Hf  Hf54      1.0  0.41065  0.38564  0.83340  1.0000
  Hf  Hf55      1.0  0.40623  0.88718  0.33824  1.0000
  Hf  Hf56      1.0  0.40864  0.88585  0.83573  1.0000
  Hf  Hf57      1.0  0.65861  0.38622  0.32911  1.0000
  Hf  Hf58      1.0  0.65898  0.38574  0.83343  1.0000
  Hf  Hf59      1.0  0.66041  0.89178  0.32643  1.0000
  Hf  Hf60      1.0  0.66007  0.88047  0.83398  1.0000
  Hf  Hf61      1.0  0.91398  0.39088  0.32771  1.0000
  Hf  Hf62      1.0  0.91304  0.39547  0.82385  1.0000
  Hf  Hf63      1.0  0.90750  0.88788  0.33581  1.0000
  Hf  Hf64      1.0  0.90545  0.88278  0.83736  1.0000
  Hf  Hf65      1.0  0.19830  0.33382  0.07590  1.0000
  Hf  Hf66      1.0  0.19501  0.32480  0.57268  1.0000
  Hf  Hf67      1.0  0.19419  0.82847  0.07474  1.0000
  Hf  Hf68      1.0  0.19646  0.82546  0.57350  1.0000
  Hf  Hf69      1.0  0.44481  0.31238  0.08375  1.0000
  Hf  Hf70      1.0  0.44268  0.31699  0.58785  1.0000
  Hf  Hf71      1.0  0.44499  0.81912  0.07958  1.0000
  Hf  Hf72      1.0  0.44266  0.80308  0.59348  1.0000
  Hf  Hf73      1.0  0.69419  0.31587  0.07391  1.0000
  Hf  Hf74      1.0  0.69616  0.30779  0.58279  1.0000
  Hf  Hf75      1.0  0.69478  0.81560  0.08296  1.0000
  Hf  Hf76      1.0  0.69101  0.81629  0.58146  1.0000
  Hf  Hf77      1.0  0.94295  0.31988  0.08672  1.0000
  Hf  Hf78      1.0  0.94559  0.31750  0.58310  1.0000
  Hf  Hf79      1.0  0.94382  0.81151  0.08550  1.0000
  Hf  Hf80      1.0  0.94373  0.81985  0.58419  1.0000
  Hf  Hf81      1.0  0.09130  0.12358  0.16216  1.0000
  Hf  Hf82      1.0  0.09407  0.11379  0.65566  1.0000
  Hf  Hf83      1.0  0.09539  0.62330  0.15952  1.0000
  Hf  Hf84      1.0  0.08979  0.61861  0.66376  1.0000
  Hf  Hf85      1.0  0.34067  0.11068  0.16923  1.0000
  Hf  Hf86      1.0  0.34073  0.10994  0.66867  1.0000
  Hf  Hf87      1.0  0.33988  0.60210  0.17600  1.0000
  Hf  Hf88      1.0  0.33540  0.61641  0.66952  1.0000
  Hf  Hf89      1.0  0.59077  0.10949  0.17051  1.0000
  Hf  Hf90      1.0  0.59215  0.10960  0.66922  1.0000
  Hf  Hf91      1.0  0.59033  0.61393  0.16689  1.0000
  Hf  Hf92      1.0  0.59426  0.60687  0.67121  1.0000
  Hf  Hf93      1.0  0.84412  0.11178  0.16278  1.0000
  Hf  Hf94      1.0  0.84390  0.10797  0.67084  1.0000
  Hf  Hf95      1.0  0.83935  0.61101  0.16688  1.0000
  Hf  Hf96      1.0  0.84125  0.60821  0.66747  1.0000
  F   F1        1.0  0.08170  0.12939  0.30176  1.0000
  F   F2        1.0  0.08682  0.12708  0.78757  1.0000
  F   F3        1.0  0.07566  0.63505  0.30221  1.0000
  F   F4        1.0  0.07610  0.64606  0.79854  1.0000
  F   F5        1.0  0.33316  0.14157  0.29383  1.0000
  F   F6        1.0  0.32304  0.11285  0.82169  1.0000
  F   F7        1.0  0.33099  0.62814  0.31019  1.0000
  F   F8        1.0  0.32746  0.63418  0.80930  1.0000
  F   F9        1.0  0.57963  0.12775  0.31086  1.0000
  F   F10       1.0  0.57145  0.11550  0.81574  1.0000
  F   F11       1.0  0.58125  0.62022  0.30712  1.0000
  F   F12       1.0  0.57868  0.62735  0.80517  1.0000
  F   F13       1.0  0.83135  0.12816  0.30150  1.0000
  F   F14       1.0  0.83103  0.12468  0.80129  1.0000
  F   F15       1.0  0.83321  0.62719  0.28862  1.0000
  F   F16       1.0  0.83411  0.62771  0.80090  1.0000
  F   F17       1.0  0.19264  0.36225  0.43369  1.0000
  F   F18       1.0  0.18675  0.35285  0.93806  1.0000
  F   F19       1.0  0.17747  0.83960  0.44999  1.0000
  F   F20       1.0  0.18243  0.84850  0.94628  1.0000
  F   F21       1.0  0.43385  0.34805  0.44959  1.0000
  F   F22       1.0  0.43587  0.32792  0.95591  1.0000
  F   F23       1.0  0.42327  0.82697  0.46647  1.0000
  F   F24       1.0  0.44028  0.84719  0.93633  1.0000
  F   F25       1.0  0.68865  0.32554  0.45292  1.0000
  F   F26       1.0  0.69261  0.34693  0.93252  1.0000
  F   F27       1.0  0.67179  0.83897  0.45996  1.0000
  F   F28       1.0  0.69306  0.84340  0.94210  1.0000
  F   F29       1.0  0.94760  0.35324  0.43089  1.0000
  F   F30       1.0  0.93877  0.33603  0.93343  1.0000
  F   F31       1.0  0.93306  0.83141  0.45561  1.0000
  F   F32       1.0  0.93817  0.85199  0.93420  1.0000
  F   F33       1.0  0.16779  0.36373  0.20993  1.0000
  F   F34       1.0  0.17051  0.38016  0.69159  1.0000
  F   F35       1.0  0.16976  0.87394  0.19667  1.0000
  F   F36       1.0  0.16646  0.87096  0.69880  1.0000
  F   F37       1.0  0.42022  0.37506  0.20079  1.0000
  F   F38       1.0  0.41632  0.37879  0.69880  1.0000
  F   F39       1.0  0.41948  0.87551  0.19260  1.0000
  F   F40       1.0  0.42489  0.87865  0.69179  1.0000
  F   F41       1.0  0.66311  0.34925  0.20676  1.0000
  F   F42       1.0  0.67264  0.36711  0.69077  1.0000
  F   F43       1.0  0.67611  0.86888  0.19294  1.0000
  F   F44       1.0  0.67065  0.85522  0.69809  1.0000
  F   F45       1.0  0.92030  0.36889  0.19895  1.0000
  F   F46       1.0  0.92149  0.37187  0.69524  1.0000
  F   F47       1.0  0.91609  0.86837  0.20716  1.0000
  F   F48       1.0  0.91867  0.86122  0.70364  1.0000
  F   F49       1.0  0.06576  0.16300  0.04906  1.0000
  F   F50       1.0  0.06611  0.17299  0.54373  1.0000
  F   F51       1.0  0.06569  0.66492  0.05117  1.0000
  F   F52       1.0  0.05933  0.64701  0.56036  1.0000
  F   F53       1.0  0.30647  0.15096  0.06074  1.0000
  F   F54       1.0  0.31543  0.15943  0.55778  1.0000
  F   F55       1.0  0.32363  0.65734  0.04993  1.0000
  F   F56       1.0  0.30408  0.65300  0.56310  1.0000
  F   F57       1.0  0.55949  0.14818  0.06393  1.0000
  F   F58       1.0  0.56227  0.16416  0.55451  1.0000
  F   F59       1.0  0.56382  0.66641  0.05046  1.0000
  F   F60       1.0  0.56579  0.65131  0.55629  1.0000
  F   F61       1.0  0.81091  0.15564  0.05339  1.0000
  F   F62       1.0  0.82893  0.16190  0.53946  1.0000
  F   F63       1.0  0.81357  0.64676  0.05588  1.0000
  F   F64       1.0  0.81417  0.64476  0.55194  1.0000
  F   F65       1.0  0.21009  0.21309  0.21303  1.0000
  F   F66       1.0  0.19829  0.20093  0.71136  1.0000
  F   F67       1.0  0.21217  0.70038  0.21047  1.0000
  F   F68       1.0  0.20312  0.71132  0.71451  1.0000
  F   F69       1.0  0.45075  0.20388  0.23117  1.0000
  F   F70       1.0  0.44924  0.20567  0.71391  1.0000
  F   F71       1.0  0.45345  0.70339  0.19496  1.0000
  F   F72       1.0  0.45212  0.70080  0.71860  1.0000
  F   F73       1.0  0.70232  0.17151  0.21542  1.0000
  F   F74       1.0  0.70804  0.19827  0.71338  1.0000
  F   F75       1.0  0.69389  0.69653  0.20180  1.0000
  F   F76       1.0  0.70634  0.69835  0.71294  1.0000
  F   F77       1.0  0.94808  0.21006  0.22677  1.0000
  F   F78       1.0  0.95655  0.19421  0.69337  1.0000
  F   F79       1.0  0.95583  0.70323  0.20292  1.0000
  F   F80       1.0  0.95872  0.70633  0.69675  1.0000
  F   F81       1.0  0.15558  0.10277  0.02681  1.0000
  F   F82       1.0  0.14758  0.07857  0.54262  1.0000
  F   F83       1.0  0.14973  0.59855  0.04092  1.0000
  F   F84       1.0  0.14784  0.60754  0.53560  1.0000
  F   F85       1.0  0.39023  0.11820  0.03107  1.0000
  F   F86       1.0  0.40283  0.08148  0.54288  1.0000
  F   F87       1.0  0.40310  0.56915  0.03935  1.0000
  F   F88       1.0  0.38874  0.61144  0.53655  1.0000
  F   F89       1.0  0.64167  0.10300  0.04298  1.0000
  F   F90       1.0  0.64755  0.09679  0.54262  1.0000
  F   F91       1.0  0.65382  0.58121  0.02043  1.0000
  F   F92       1.0  0.65308  0.58799  0.53398  1.0000
  F   F93       1.0  0.90367  0.08895  0.04380  1.0000
  F   F94       1.0  0.90476  0.08931  0.53778  1.0000
  F   F95       1.0  0.90127  0.59121  0.03608  1.0000
  F   F96       1.0  0.89353  0.59341  0.53250  1.0000
  F   F97       1.0  0.15364  0.21785  0.11843  1.0000
  F   F98       1.0  0.15488  0.20457  0.59739  1.0000
  F   F99       1.0  0.15253  0.69636  0.13175  1.0000
  F   F100      1.0  0.15118  0.70506  0.63102  1.0000
  F   F101      1.0  0.40668  0.19463  0.13458  1.0000
  F   F102      1.0  0.39767  0.19195  0.63404  1.0000
  F   F103      1.0  0.39955  0.68397  0.11853  1.0000
  F   F104      1.0  0.40203  0.67176  0.64495  1.0000
  F   F105      1.0  0.65366  0.20507  0.11360  1.0000
  F   F106      1.0  0.64729  0.19719  0.64118  1.0000
  F   F107      1.0  0.64689  0.69184  0.10598  1.0000
  F   F108      1.0  0.65324  0.69071  0.63224  1.0000
  F   F109      1.0  0.90453  0.21148  0.11114  1.0000
  F   F110      1.0  0.89772  0.20819  0.60514  1.0000
  F   F111      1.0  0.89996  0.70556  0.12052  1.0000
  F   F112      1.0  0.90064  0.68298  0.63241  1.0000
  F   F113      1.0  0.09737  0.31979  0.36139  1.0000
  F   F114      1.0  0.10700  0.30287  0.87377  1.0000
  F   F115      1.0  0.09455  0.81960  0.37009  1.0000
  F   F116      1.0  0.09514  0.80547  0.85465  1.0000
  F   F117      1.0  0.34676  0.30033  0.36868  1.0000
  F   F118      1.0  0.35435  0.30068  0.87757  1.0000
  F   F119      1.0  0.34707  0.80982  0.37499  1.0000
  F   F120      1.0  0.35150  0.80951  0.87042  1.0000
  F   F121      1.0  0.59931  0.30637  0.37387  1.0000
  F   F122      1.0  0.59686  0.29645  0.87421  1.0000
  F   F123      1.0  0.60106  0.80406  0.36830  1.0000
  F   F124      1.0  0.59641  0.80796  0.86002  1.0000
  F   F125      1.0  0.84849  0.29129  0.37483  1.0000
  F   F126      1.0  0.85337  0.30293  0.88352  1.0000
  F   F127      1.0  0.84774  0.79044  0.38535  1.0000
  F   F128      1.0  0.84508  0.80395  0.88671  1.0000
  F   F129      1.0  0.06379  0.25841  0.13857  1.0000
  F   F130      1.0  0.06364  0.25129  0.64824  1.0000
  F   F131      1.0  0.07129  0.76640  0.12649  1.0000
  F   F132      1.0  0.07046  0.75275  0.61826  1.0000
  F   F133      1.0  0.31357  0.25342  0.13206  1.0000
  F   F134      1.0  0.31075  0.24655  0.65918  1.0000
  F   F135      1.0  0.31147  0.74551  0.15446  1.0000
  F   F136      1.0  0.32511  0.75576  0.61267  1.0000
  F   F137      1.0  0.56068  0.24016  0.16072  1.0000
  F   F138      1.0  0.56220  0.25165  0.64806  1.0000
  F   F139      1.0  0.56186  0.74568  0.15212  1.0000
  F   F140      1.0  0.57619  0.76113  0.62178  1.0000
  F   F141      1.0  0.81191  0.25524  0.13910  1.0000
  F   F142      1.0  0.80459  0.25059  0.65506  1.0000
  F   F143      1.0  0.80512  0.73949  0.16410  1.0000
  F   F144      1.0  0.82155  0.74963  0.62844  1.0000
  F   F145      1.0  0.12184  0.38157  0.11878  1.0000
  F   F146      1.0  0.12178  0.35123  0.62925  1.0000
  F   F147      1.0  0.12502  0.88637  0.10273  1.0000
  F   F148      1.0  0.12139  0.88551  0.59331  1.0000
  F   F149      1.0  0.37569  0.35256  0.12240  1.0000
  F   F150      1.0  0.36785  0.36344  0.62771  1.0000
  F   F151      1.0  0.37266  0.84244  0.12592  1.0000
  F   F152      1.0  0.37526  0.86728  0.61951  1.0000
  F   F153      1.0  0.62579  0.37695  0.09691  1.0000
  F   F154      1.0  0.63019  0.37972  0.59353  1.0000
  F   F155      1.0  0.62358  0.85581  0.11902  1.0000
  F   F156      1.0  0.62506  0.88404  0.60603  1.0000
  F   F157      1.0  0.87266  0.37126  0.10271  1.0000
  F   F158      1.0  0.87777  0.37092  0.59832  1.0000
  F   F159      1.0  0.87445  0.87347  0.10770  1.0000
  F   F160      1.0  0.87427  0.88259  0.60709  1.0000
  F   F161      1.0  0.17960  0.24641  0.38415  1.0000
  F   F162      1.0  0.19912  0.25752  0.84244  1.0000
  F   F163      1.0  0.18861  0.75477  0.35453  1.0000
  F   F164      1.0  0.17604  0.75854  0.85582  1.0000
  F   F165      1.0  0.43142  0.24991  0.37876  1.0000
  F   F166      1.0  0.44290  0.25083  0.83831  1.0000
  F   F167      1.0  0.43614  0.75010  0.35477  1.0000
  F   F168      1.0  0.43181  0.74016  0.87460  1.0000
  F   F169      1.0  0.68174  0.24645  0.35305  1.0000
  F   F170      1.0  0.68721  0.25036  0.86130  1.0000
  F   F171      1.0  0.68940  0.74756  0.33951  1.0000
  F   F172      1.0  0.68702  0.74506  0.85940  1.0000
  F   F173      1.0  0.92977  0.24181  0.37970  1.0000
  F   F174      1.0  0.94747  0.24907  0.82769  1.0000
  F   F175      1.0  0.93692  0.74364  0.35753  1.0000
  F   F176      1.0  0.93094  0.74757  0.86702  1.0000
  F   F177      1.0  0.12629  0.14060  0.39167  1.0000
  F   F178      1.0  0.12939  0.14349  0.88443  1.0000
  F   F179      1.0  0.12687  0.64277  0.38821  1.0000
  F   F180      1.0  0.12118  0.61178  0.90805  1.0000
  F   F181      1.0  0.37275  0.12578  0.40798  1.0000
  F   F182      1.0  0.37500  0.14005  0.87738  1.0000
  F   F183      1.0  0.37330  0.63758  0.38563  1.0000
  F   F184      1.0  0.36956  0.61962  0.90130  1.0000
  F   F185      1.0  0.62931  0.12868  0.39580  1.0000
  F   F186      1.0  0.62796  0.12890  0.87858  1.0000
  F   F187      1.0  0.62100  0.62355  0.40522  1.0000
  F   F188      1.0  0.62637  0.63369  0.87753  1.0000
  F   F189      1.0  0.87288  0.10477  0.40825  1.0000
  F   F190      1.0  0.88078  0.14533  0.86824  1.0000
  F   F191      1.0  0.87856  0.62511  0.37988  1.0000
  F   F192      1.0  0.87911  0.65052  0.87177  1.0000
  F   F193      1.0  0.00565  0.35910  0.07205  1.0000
  F   F194      1.0  0.01188  0.37038  0.55922  1.0000
  F   F195      1.0  0.00745  0.85252  0.09014  1.0000
  F   F196      1.0  0.00749  0.88230  0.56200  1.0000
  F   F197      1.0  0.26191  0.37104  0.06104  1.0000
  F   F198      1.0  0.25450  0.36056  0.57970  1.0000
  F   F199      1.0  0.25728  0.87398  0.07022  1.0000
  F   F200      1.0  0.25612  0.85075  0.59208  1.0000
  F   F201      1.0  0.50828  0.36242  0.07885  1.0000
  F   F202      1.0  0.50805  0.34998  0.57703  1.0000
  F   F203      1.0  0.50417  0.86719  0.08250  1.0000
  F   F204      1.0  0.50026  0.85169  0.59092  1.0000
  F   F205      1.0  0.75425  0.36538  0.08464  1.0000
  F   F206      1.0  0.76163  0.35180  0.55443  1.0000
  F   F207      1.0  0.75869  0.84545  0.08319  1.0000
  F   F208      1.0  0.75702  0.86042  0.58339  1.0000
  F   F209      1.0  0.07030  0.48232  0.19006  1.0000
  F   F210      1.0  0.06913  0.48216  0.68407  1.0000
  F   F211      1.0  0.06596  0.99270  0.19121  1.0000
  F   F212      1.0  0.06715  0.98831  0.67416  1.0000
  F   F213      1.0  0.31681  0.47375  0.18316  1.0000
  F   F214      1.0  0.31733  0.48544  0.68037  1.0000
  F   F215      1.0  0.32363  0.97283  0.18045  1.0000
  F   F216      1.0  0.31806  0.98668  0.67209  1.0000
  F   F217      1.0  0.56840  0.49027  0.17379  1.0000
  F   F218      1.0  0.57370  0.47877  0.68293  1.0000
  F   F219      1.0  0.57081  0.97373  0.17534  1.0000
  F   F220      1.0  0.56549  0.98651  0.68340  1.0000
  F   F221      1.0  0.82068  0.46826  0.19578  1.0000
  F   F222      1.0  0.81635  0.47191  0.67477  1.0000
  F   F223      1.0  0.82518  0.99061  0.16184  1.0000
  F   F224      1.0  0.81788  0.99214  0.66533  1.0000
  F   F225      1.0  0.24701  0.14529  0.41928  1.0000
  F   F226      1.0  0.24246  0.11780  0.94337  1.0000
  F   F227      1.0  0.24357  0.63342  0.43130  1.0000
  F   F228      1.0  0.23509  0.64758  0.94091  1.0000
  F   F229      1.0  0.49375  0.13327  0.42263  1.0000
  F   F230      1.0  0.49071  0.12273  0.93458  1.0000
  F   F231      1.0  0.48876  0.62588  0.43939  1.0000
  F   F232      1.0  0.49575  0.62621  0.92373  1.0000
  F   F233      1.0  0.74179  0.13726  0.42374  1.0000
  F   F234      1.0  0.74489  0.14496  0.93530  1.0000
  F   F235      1.0  0.74868  0.64334  0.41699  1.0000
  F   F236      1.0  0.74942  0.62539  0.91467  1.0000
  F   F237      1.0  0.99224  0.14192  0.42856  1.0000
  F   F238      1.0  0.99405  0.13063  0.92811  1.0000
  F   F239      1.0  0.98846  0.63499  0.44777  1.0000
  F   F240      1.0  0.99063  0.63806  0.92910  1.0000
  F   F241      1.0  0.18379  0.01327  0.33585  1.0000
  F   F242      1.0  0.17144  0.01527  0.83221  1.0000
  F   F243      1.0  0.18189  0.52475  0.31725  1.0000
  F   F244      1.0  0.18396  0.52682  0.82252  1.0000
  F   F245      1.0  0.43201  0.01090  0.32107  1.0000
  F   F246      1.0  0.42438  0.01045  0.83912  1.0000
  F   F247      1.0  0.42719  0.52281  0.32675  1.0000
  F   F248      1.0  0.43376  0.51845  0.82164  1.0000
  F   F249      1.0  0.68086  0.00403  0.33435  1.0000
  F   F250      1.0  0.68379  0.02043  0.82351  1.0000
  F   F251      1.0  0.67906  0.51426  0.31765  1.0000
  F   F252      1.0  0.68209  0.50680  0.82355  1.0000
  F   F253      1.0  0.93463  0.00987  0.31792  1.0000
  F   F254      1.0  0.92091  0.01754  0.83373  1.0000
  F   F255      1.0  0.93755  0.51955  0.30264  1.0000
  F   F256      1.0  0.93666  0.52570  0.81823  1.0000
  F   F257      1.0  0.00234  0.24801  0.00012  1.0000
  F   F258      1.0  0.00180  0.25406  0.50253  1.0000
  F   F259      1.0  0.00215  0.74500  0.00773  1.0000
  F   F260      1.0  0.00473  0.75901  0.49716  1.0000
  F   F261      1.0  0.24625  0.25776  0.99687  1.0000
  F   F262      1.0  0.25057  0.25014  0.50740  1.0000
  F   F263      1.0  0.25771  0.76827  0.98639  1.0000
  F   F264      1.0  0.24942  0.76594  0.48610  1.0000
  F   F265      1.0  0.49850  0.24073  0.00384  1.0000
  F   F266      1.0  0.49223  0.23975  0.51651  1.0000
  F   F267      1.0  0.49792  0.75473  0.99939  1.0000
  F   F268      1.0  0.49768  0.75120  0.49817  1.0000
  F   F269      1.0  0.75584  0.26517  0.99630  1.0000
  F   F270      1.0  0.74368  0.22228  0.52208  1.0000
  F   F271      1.0  0.74852  0.72911  0.00654  1.0000
  F   F272      1.0  0.75045  0.76643  0.49236  1.0000
  F   F273      1.0  0.13459  0.01947  0.23469  1.0000
  F   F274      1.0  0.12629  0.00234  0.73959  1.0000
  F   F275      1.0  0.12828  0.50580  0.25008  1.0000
  F   F276      1.0  0.13044  0.51577  0.74364  1.0000
  F   F277      1.0  0.37366  0.00309  0.25442  1.0000
  F   F278      1.0  0.37456  0.99658  0.74397  1.0000
  F   F279      1.0  0.36864  0.48818  0.26669  1.0000
  F   F280      1.0  0.37815  0.50001  0.75199  1.0000
  F   F281      1.0  0.63616  0.01412  0.23273  1.0000
  F   F282      1.0  0.62722  0.99705  0.74311  1.0000
  F   F283      1.0  0.62626  0.48794  0.24930  1.0000
  F   F284      1.0  0.62261  0.49743  0.76294  1.0000
  F   F285      1.0  0.87672  0.99755  0.24826  1.0000
  F   F286      1.0  0.87331  0.99404  0.75855  1.0000
  F   F287      1.0  0.87910  0.50592  0.23621  1.0000
  F   F288      1.0  0.88400  0.50711  0.73040  1.0000
  F   F289      1.0  0.04929  0.03606  0.01772  1.0000
  F   F290      1.0  0.04684  0.04351  0.51948  1.0000
  F   F291      1.0  0.03681  0.52887  0.02444  1.0000
  F   F292      1.0  0.05270  0.52894  0.51547  1.0000
  F   F293      1.0  0.29835  0.02208  0.02763  1.0000
  F   F294      1.0  0.28683  0.03528  0.53162  1.0000
  F   F295      1.0  0.28840  0.53035  0.02800  1.0000
  F   F296      1.0  0.29949  0.52684  0.51576  1.0000
  F   F297      1.0  0.54090  0.02676  0.02682  1.0000
  F   F298      1.0  0.54180  0.03412  0.51915  1.0000
  F   F299      1.0  0.54696  0.52586  0.01811  1.0000
  F   F300      1.0  0.54312  0.52484  0.52950  1.0000
  F   F301      1.0  0.80043  0.02502  0.01831  1.0000
  F   F302      1.0  0.78708  0.02866  0.52928  1.0000
  F   F303      1.0  0.80047  0.52673  0.01321  1.0000
  F   F304      1.0  0.79903  0.52027  0.49877  1.0000
  F   F305      1.0  0.23438  0.41063  0.22794  1.0000
  F   F306      1.0  0.23820  0.42490  0.71280  1.0000
  F   F307      1.0  0.22953  0.92663  0.22135  1.0000
  F   F308      1.0  0.23008  0.93081  0.71931  1.0000
  F   F309      1.0  0.48525  0.40891  0.23440  1.0000
  F   F310      1.0  0.48589  0.42161  0.71958  1.0000
  F   F311      1.0  0.48503  0.90494  0.23624  1.0000
  F   F312      1.0  0.48273  0.91857  0.72399  1.0000
  F   F313      1.0  0.73138  0.41746  0.21607  1.0000
  F   F314      1.0  0.73677  0.40028  0.71959  1.0000
  F   F315      1.0  0.73598  0.92854  0.21366  1.0000
  F   F316      1.0  0.73014  0.90869  0.73078  1.0000
  F   F317      1.0  0.98636  0.41245  0.22476  1.0000
  F   F318      1.0  0.98698  0.42788  0.70496  1.0000
  F   F319      1.0  0.98296  0.93466  0.20413  1.0000
  F   F320      1.0  0.97846  0.92100  0.72314  1.0000
  F   F321      1.0  0.20753  0.47723  0.47447  1.0000
  F   F322      1.0  0.20970  0.47975  0.97271  1.0000
  F   F323      1.0  0.21566  0.96924  0.48053  1.0000
  F   F324      1.0  0.20693  0.97579  0.98445  1.0000
  F   F325      1.0  0.45045  0.47271  0.49967  1.0000
  F   F326      1.0  0.46506  0.46253  0.96603  1.0000
  F   F327      1.0  0.45339  0.95340  0.48330  1.0000
  F   F328      1.0  0.44950  0.97584  0.98548  1.0000
  F   F329      1.0  0.70956  0.47518  0.46892  1.0000
  F   F330      1.0  0.71550  0.46316  0.97634  1.0000
  F   F331      1.0  0.70991  0.96495  0.47566  1.0000
  F   F332      1.0  0.69317  0.97193  0.99789  1.0000
  F   F333      1.0  0.96039  0.46981  0.47104  1.0000
  F   F334      1.0  0.95252  0.47025  0.98713  1.0000
  F   F335      1.0  0.96189  0.96161  0.45700  1.0000
  F   F336      1.0  0.96180  0.96398  0.97615  1.0000
  F   F337      1.0  0.01561  0.10336  0.26715  1.0000
  F   F338      1.0  0.01672  0.08250  0.76505  1.0000
  F   F339      1.0  0.01502  0.60161  0.26194  1.0000
  F   F340      1.0  0.01567  0.59041  0.77960  1.0000
  F   F341      1.0  0.26997  0.08320  0.27689  1.0000
  F   F342      1.0  0.26312  0.09778  0.76398  1.0000
  F   F343      1.0  0.26726  0.58079  0.27385  1.0000
  F   F344      1.0  0.26641  0.61361  0.77417  1.0000
  F   F345      1.0  0.51551  0.07740  0.28117  1.0000
  F   F346      1.0  0.51294  0.08201  0.77885  1.0000
  F   F347      1.0  0.51303  0.59404  0.28350  1.0000
  F   F348      1.0  0.52063  0.60498  0.75129  1.0000
  F   F349      1.0  0.77071  0.07489  0.27203  1.0000
  F   F350      1.0  0.76418  0.07664  0.78799  1.0000
  F   F351      1.0  0.76395  0.58842  0.26591  1.0000
  F   F352      1.0  0.76591  0.56740  0.76943  1.0000
  F   F353      1.0  0.10300  0.40415  0.47486  1.0000
  F   F354      1.0  0.10363  0.42241  0.95934  1.0000
  F   F355      1.0  0.10032  0.92781  0.44466  1.0000
  F   F356      1.0  0.09679  0.90915  0.95798  1.0000
  F   F357      1.0  0.34772  0.40475  0.46608  1.0000
  F   F358      1.0  0.34997  0.41460  0.97631  1.0000
  F   F359      1.0  0.35034  0.92548  0.46451  1.0000
  F   F360      1.0  0.35301  0.89413  0.97454  1.0000
  F   F361      1.0  0.60044  0.39747  0.46652  1.0000
  F   F362      1.0  0.60224  0.38078  0.97333  1.0000
  F   F363      1.0  0.59498  0.91375  0.45433  1.0000
  F   F364      1.0  0.60139  0.88893  0.95401  1.0000
  F   F365      1.0  0.85564  0.40037  0.45243  1.0000
  F   F366      1.0  0.85947  0.42607  0.93703  1.0000
  F   F367      1.0  0.85237  0.91463  0.45452  1.0000
  F   F368      1.0  0.84983  0.89879  0.97176  1.0000
  F   F369      1.0  0.04668  0.30240  0.28004  1.0000
  F   F370      1.0  0.04026  0.30384  0.80241  1.0000
  F   F371      1.0  0.04737  0.79711  0.27999  1.0000
  F   F372      1.0  0.03653  0.79659  0.78105  1.0000
  F   F373      1.0  0.29461  0.29708  0.29108  1.0000
  F   F374      1.0  0.29864  0.29310  0.80715  1.0000
  F   F375      1.0  0.29043  0.79798  0.29917  1.0000
  F   F376      1.0  0.29301  0.79319  0.79022  1.0000
  F   F377      1.0  0.54499  0.30416  0.29797  1.0000
  F   F378      1.0  0.54433  0.28682  0.79218  1.0000
  F   F379      1.0  0.54570  0.78409  0.29745  1.0000
  F   F380      1.0  0.54390  0.80507  0.78357  1.0000
  F   F381      1.0  0.78982  0.28576  0.30371  1.0000
  F   F382      1.0  0.80086  0.29999  0.78204  1.0000
  F   F383      1.0  0.80005  0.80279  0.28920  1.0000
  F   F384      1.0  0.79726  0.80469  0.78837  1.0000
