data_image0
_chemical_formula_structural       Hf96F384
_chemical_formula_sum              "Hf96 F384"
_cell_length_a       31.0329
_cell_length_b       15.5227
_cell_length_c       15.5109
_cell_angle_alpha    63.342
_cell_angle_beta     63.342
_cell_angle_gamma    80.1625

_space_group_name_H-M_alt    "P 1"
_space_group_IT_number       1

loop_
  _space_group_symop_operation_xyz
  'x, y, z'

loop_
  _atom_site_type_symbol
  _atom_site_label
  _atom_site_symmetry_multiplicity
  _atom_site_fract_x
  _atom_site_fract_y
  _atom_site_fract_z
  _atom_site_occupancy
  Hf  Hf1       1.0  0.19825  0.11446  0.36201  1.0000
  Hf  Hf2       1.0  0.19109  0.10799  0.88124  1.0000
  Hf  Hf3       1.0  0.19471  0.60762  0.37701  1.0000
  Hf  Hf4       1.0  0.19240  0.61171  0.87916  1.0000
  Hf  Hf5       1.0  0.44560  0.10534  0.37547  1.0000
  Hf  Hf6       1.0  0.44923  0.10911  0.87055  1.0000
  Hf  Hf7       1.0  0.44404  0.59908  0.38378  1.0000
  Hf  Hf8       1.0  0.44421  0.60677  0.87509  1.0000
  Hf  Hf9       1.0  0.69731  0.10813  0.37550  1.0000
  Hf  Hf10      1.0  0.70126  0.10860  0.86427  1.0000
  Hf  Hf11      1.0  0.69370  0.60115  0.37657  1.0000
  Hf  Hf12      1.0  0.69650  0.59792  0.89428  1.0000
  Hf  Hf13      1.0  0.94642  0.11014  0.36778  1.0000
  Hf  Hf14      1.0  0.94962  0.11203  0.86275  1.0000
  Hf  Hf15      1.0  0.94603  0.60962  0.36981  1.0000
  Hf  Hf16      1.0  0.95225  0.61832  0.84791  1.0000
  Hf  Hf17      1.0  0.05532  0.39706  0.11499  1.0000
  Hf  Hf18      1.0  0.05165  0.39127  0.62961  1.0000
  Hf  Hf19      1.0  0.04919  0.89760  0.13466  1.0000
  Hf  Hf20      1.0  0.05096  0.89062  0.62831  1.0000
  Hf  Hf21      1.0  0.30644  0.39419  0.12407  1.0000
  Hf  Hf22      1.0  0.30481  0.38910  0.62122  1.0000
  Hf  Hf23      1.0  0.30424  0.89114  0.13184  1.0000
  Hf  Hf24      1.0  0.30127  0.89109  0.62551  1.0000
  Hf  Hf25      1.0  0.55413  0.38843  0.12409  1.0000
  Hf  Hf26      1.0  0.55445  0.39203  0.63288  1.0000
  Hf  Hf27      1.0  0.55508  0.89512  0.13117  1.0000
  Hf  Hf28      1.0  0.55504  0.89009  0.63066  1.0000
  Hf  Hf29      1.0  0.80320  0.39598  0.13014  1.0000
  Hf  Hf30      1.0  0.80353  0.38315  0.63053  1.0000
  Hf  Hf31      1.0  0.80319  0.89579  0.13242  1.0000
  Hf  Hf32      1.0  0.80234  0.88114  0.62944  1.0000
  Hf  Hf33      1.0  0.05711  0.18102  0.42015  1.0000
  Hf  Hf34      1.0  0.05716  0.19260  0.91295  1.0000
  Hf  Hf35      1.0  0.05062  0.68323  0.42178  1.0000
  Hf  Hf36      1.0  0.05532  0.68180  0.91613  1.0000
  Hf  Hf37      1.0  0.30344  0.18578  0.41105  1.0000
  Hf  Hf38      1.0  0.30814  0.18451  0.91738  1.0000
  Hf  Hf39      1.0  0.30395  0.68578  0.42217  1.0000
  Hf  Hf40      1.0  0.30134  0.68748  0.92320  1.0000
  Hf  Hf41      1.0  0.55645  0.18352  0.41455  1.0000
  Hf  Hf42      1.0  0.55942  0.17725  0.91587  1.0000
  Hf  Hf43      1.0  0.55689  0.68609  0.42117  1.0000
  Hf  Hf44      1.0  0.55833  0.68211  0.92158  1.0000
  Hf  Hf45      1.0  0.80606  0.18352  0.40736  1.0000
  Hf  Hf46      1.0  0.80841  0.18183  0.90441  1.0000
  Hf  Hf47      1.0  0.80355  0.66758  0.42103  1.0000
  Hf  Hf48      1.0  0.80813  0.68205  0.91233  1.0000
  Hf  Hf49      1.0  0.15955  0.39225  0.32819  1.0000
  Hf  Hf50      1.0  0.15862  0.38892  0.83162  1.0000
  Hf  Hf51      1.0  0.15686  0.88333  0.33813  1.0000
  Hf  Hf52      1.0  0.16075  0.88537  0.83984  1.0000
  Hf  Hf53      1.0  0.40927  0.38533  0.32946  1.0000
  Hf  Hf54      1.0  0.40957  0.39114  0.82905  1.0000
  Hf  Hf55      1.0  0.40767  0.89470  0.33307  1.0000
  Hf  Hf56      1.0  0.41283  0.88466  0.83109  1.0000
  Hf  Hf57      1.0  0.65766  0.38877  0.33153  1.0000
  Hf  Hf58      1.0  0.66056  0.38926  0.83437  1.0000
  Hf  Hf59      1.0  0.65849  0.88185  0.33680  1.0000
  Hf  Hf60      1.0  0.65900  0.88601  0.83387  1.0000
  Hf  Hf61      1.0  0.91338  0.39234  0.32993  1.0000
  Hf  Hf62      1.0  0.90621  0.39484  0.83068  1.0000
  Hf  Hf63      1.0  0.90321  0.88911  0.33431  1.0000
  Hf  Hf64      1.0  0.90587  0.88693  0.83636  1.0000
  Hf  Hf65      1.0  0.19555  0.32494  0.08054  1.0000
  Hf  Hf66      1.0  0.19080  0.30927  0.59045  1.0000
  Hf  Hf67      1.0  0.18750  0.81429  0.09868  1.0000
  Hf  Hf68      1.0  0.19257  0.82628  0.57827  1.0000
  Hf  Hf69      1.0  0.44882  0.31056  0.07203  1.0000
  Hf  Hf70      1.0  0.44417  0.31747  0.58005  1.0000
  Hf  Hf71      1.0  0.44143  0.81579  0.09405  1.0000
  Hf  Hf72      1.0  0.44541  0.82697  0.58108  1.0000
  Hf  Hf73      1.0  0.69393  0.30827  0.09188  1.0000
  Hf  Hf74      1.0  0.69431  0.32124  0.58159  1.0000
  Hf  Hf75      1.0  0.69798  0.82460  0.07995  1.0000
  Hf  Hf76      1.0  0.69496  0.81771  0.57885  1.0000
  Hf  Hf77      1.0  0.94439  0.33256  0.07539  1.0000
  Hf  Hf78      1.0  0.94808  0.31958  0.57705  1.0000
  Hf  Hf79      1.0  0.94254  0.82201  0.07825  1.0000
  Hf  Hf80      1.0  0.94274  0.82476  0.57727  1.0000
  Hf  Hf81      1.0  0.09097  0.11109  0.16740  1.0000
  Hf  Hf82      1.0  0.09352  0.11341  0.66662  1.0000
  Hf  Hf83      1.0  0.08757  0.61678  0.16739  1.0000
  Hf  Hf84      1.0  0.09376  0.61580  0.65939  1.0000
  Hf  Hf85      1.0  0.34721  0.11609  0.15497  1.0000
  Hf  Hf86      1.0  0.33796  0.10230  0.67690  1.0000
  Hf  Hf87      1.0  0.33899  0.60712  0.17176  1.0000
  Hf  Hf88      1.0  0.33678  0.61137  0.66741  1.0000
  Hf  Hf89      1.0  0.59377  0.11023  0.16307  1.0000
  Hf  Hf90      1.0  0.58952  0.10813  0.67171  1.0000
  Hf  Hf91      1.0  0.59076  0.61680  0.17373  1.0000
  Hf  Hf92      1.0  0.59161  0.60986  0.66939  1.0000
  Hf  Hf93      1.0  0.84418  0.11959  0.15697  1.0000
  Hf  Hf94      1.0  0.84522  0.10341  0.66076  1.0000
  Hf  Hf95      1.0  0.84469  0.61955  0.15927  1.0000
  Hf  Hf96      1.0  0.83894  0.59973  0.67263  1.0000
  F   F1        1.0  0.08198  0.11518  0.29940  1.0000
  F   F2        1.0  0.08062  0.13246  0.80565  1.0000
  F   F3        1.0  0.07700  0.63639  0.30802  1.0000
  F   F4        1.0  0.08097  0.63342  0.80326  1.0000
  F   F5        1.0  0.33496  0.14477  0.29246  1.0000
  F   F6        1.0  0.32495  0.11405  0.82423  1.0000
  F   F7        1.0  0.32789  0.63006  0.31412  1.0000
  F   F8        1.0  0.33057  0.62269  0.80737  1.0000
  F   F9        1.0  0.58046  0.12571  0.29816  1.0000
  F   F10       1.0  0.57769  0.11516  0.80930  1.0000
  F   F11       1.0  0.57548  0.62752  0.32050  1.0000
  F   F12       1.0  0.58969  0.63809  0.79454  1.0000
  F   F13       1.0  0.82981  0.13176  0.29294  1.0000
  F   F14       1.0  0.83358  0.12548  0.79952  1.0000
  F   F15       1.0  0.81851  0.60932  0.31446  1.0000
  F   F16       1.0  0.82934  0.61887  0.80258  1.0000
  F   F17       1.0  0.18345  0.34048  0.43975  1.0000
  F   F18       1.0  0.18536  0.33318  0.94566  1.0000
  F   F19       1.0  0.18217  0.84894  0.44878  1.0000
  F   F20       1.0  0.18412  0.83330  0.95919  1.0000
  F   F21       1.0  0.43389  0.33262  0.44848  1.0000
  F   F22       1.0  0.44301  0.34622  0.93665  1.0000
  F   F23       1.0  0.43351  0.85954  0.44700  1.0000
  F   F24       1.0  0.43583  0.83639  0.94940  1.0000
  F   F25       1.0  0.68454  0.33066  0.45633  1.0000
  F   F26       1.0  0.69585  0.33847  0.94189  1.0000
  F   F27       1.0  0.68391  0.83990  0.44317  1.0000
  F   F28       1.0  0.68932  0.83412  0.94445  1.0000
  F   F29       1.0  0.94870  0.34409  0.43267  1.0000
  F   F30       1.0  0.93396  0.35193  0.94601  1.0000
  F   F31       1.0  0.93452  0.84041  0.43781  1.0000
  F   F32       1.0  0.93102  0.82877  0.95371  1.0000
  F   F33       1.0  0.16499  0.37355  0.19808  1.0000
  F   F34       1.0  0.17188  0.37282  0.69002  1.0000
  F   F35       1.0  0.16414  0.85612  0.22259  1.0000
  F   F36       1.0  0.17087  0.88422  0.69157  1.0000
  F   F37       1.0  0.42502  0.36574  0.19486  1.0000
  F   F38       1.0  0.42579  0.39667  0.68421  1.0000
  F   F39       1.0  0.41690  0.89531  0.18962  1.0000
  F   F40       1.0  0.42129  0.88274  0.69737  1.0000
  F   F41       1.0  0.66266  0.36327  0.21246  1.0000
  F   F42       1.0  0.67407  0.37560  0.69620  1.0000
  F   F43       1.0  0.67552  0.89587  0.17904  1.0000
  F   F44       1.0  0.67102  0.86532  0.70861  1.0000
  F   F45       1.0  0.92338  0.37061  0.19478  1.0000
  F   F46       1.0  0.92475  0.36693  0.69635  1.0000
  F   F47       1.0  0.92152  0.87263  0.19500  1.0000
  F   F48       1.0  0.91723  0.86378  0.69594  1.0000
  F   F49       1.0  0.06868  0.16974  0.05092  1.0000
  F   F50       1.0  0.06634  0.14831  0.55840  1.0000
  F   F51       1.0  0.06049  0.66167  0.06219  1.0000
  F   F52       1.0  0.05876  0.65196  0.55629  1.0000
  F   F53       1.0  0.31939  0.14859  0.05419  1.0000
  F   F54       1.0  0.31062  0.15793  0.55792  1.0000
  F   F55       1.0  0.31449  0.66857  0.05317  1.0000
  F   F56       1.0  0.30843  0.66881  0.55626  1.0000
  F   F57       1.0  0.57699  0.16004  0.03787  1.0000
  F   F58       1.0  0.56100  0.14810  0.56229  1.0000
  F   F59       1.0  0.55841  0.66063  0.06804  1.0000
  F   F60       1.0  0.57185  0.66688  0.54821  1.0000
  F   F61       1.0  0.82025  0.15628  0.04069  1.0000
  F   F62       1.0  0.82595  0.16529  0.53851  1.0000
  F   F63       1.0  0.81893  0.65762  0.04386  1.0000
  F   F64       1.0  0.80512  0.65281  0.55925  1.0000
  F   F65       1.0  0.20306  0.21077  0.20716  1.0000
  F   F66       1.0  0.20213  0.20516  0.70971  1.0000
  F   F67       1.0  0.20119  0.69183  0.22602  1.0000
  F   F68       1.0  0.18635  0.70000  0.72952  1.0000
  F   F69       1.0  0.45201  0.18764  0.21589  1.0000
  F   F70       1.0  0.45112  0.21481  0.71945  1.0000
  F   F71       1.0  0.45532  0.69878  0.20760  1.0000
  F   F72       1.0  0.44944  0.70273  0.70643  1.0000
  F   F73       1.0  0.70701  0.19822  0.20977  1.0000
  F   F74       1.0  0.70148  0.20274  0.71623  1.0000
  F   F75       1.0  0.69479  0.70457  0.21956  1.0000
  F   F76       1.0  0.70509  0.70758  0.69674  1.0000
  F   F77       1.0  0.96168  0.21292  0.22311  1.0000
  F   F78       1.0  0.95674  0.19328  0.71121  1.0000
  F   F79       1.0  0.96268  0.69901  0.20203  1.0000
  F   F80       1.0  0.95893  0.71547  0.70077  1.0000
  F   F81       1.0  0.15308  0.09463  0.04521  1.0000
  F   F82       1.0  0.15108  0.09990  0.53443  1.0000
  F   F83       1.0  0.15057  0.61754  0.03077  1.0000
  F   F84       1.0  0.14818  0.58731  0.54321  1.0000
  F   F85       1.0  0.39864  0.08613  0.02674  1.0000
  F   F86       1.0  0.39775  0.10738  0.53845  1.0000
  F   F87       1.0  0.39924  0.58600  0.03120  1.0000
  F   F88       1.0  0.40049  0.59529  0.53498  1.0000
  F   F89       1.0  0.64994  0.07096  0.05700  1.0000
  F   F90       1.0  0.64945  0.08537  0.53647  1.0000
  F   F91       1.0  0.65250  0.59895  0.05190  1.0000
  F   F92       1.0  0.64790  0.58834  0.55121  1.0000
  F   F93       1.0  0.90229  0.09690  0.03342  1.0000
  F   F94       1.0  0.90604  0.10055  0.52691  1.0000
  F   F95       1.0  0.90612  0.61541  0.03842  1.0000
  F   F96       1.0  0.89694  0.59619  0.53808  1.0000
  F   F97       1.0  0.15041  0.20686  0.13462  1.0000
  F   F98       1.0  0.15373  0.18989  0.62440  1.0000
  F   F99       1.0  0.14934  0.69310  0.12617  1.0000
  F   F100      1.0  0.15050  0.70825  0.60670  1.0000
  F   F101      1.0  0.41034  0.18786  0.10486  1.0000
  F   F102      1.0  0.40023  0.20360  0.63436  1.0000
  F   F103      1.0  0.39902  0.68492  0.12432  1.0000
  F   F104      1.0  0.39804  0.70927  0.61679  1.0000
  F   F105      1.0  0.65194  0.19338  0.12813  1.0000
  F   F106      1.0  0.65106  0.18981  0.62769  1.0000
  F   F107      1.0  0.64593  0.70187  0.14092  1.0000
  F   F108      1.0  0.65032  0.69647  0.61714  1.0000
  F   F109      1.0  0.90855  0.20250  0.13162  1.0000
  F   F110      1.0  0.90896  0.20408  0.61457  1.0000
  F   F111      1.0  0.89566  0.70141  0.15472  1.0000
  F   F112      1.0  0.90259  0.69878  0.62385  1.0000
  F   F113      1.0  0.09688  0.29865  0.39227  1.0000
  F   F114      1.0  0.10015  0.30588  0.85582  1.0000
  F   F115      1.0  0.08824  0.81011  0.38174  1.0000
  F   F116      1.0  0.10608  0.79084  0.87457  1.0000
  F   F117      1.0  0.34730  0.29551  0.35997  1.0000
  F   F118      1.0  0.35201  0.30629  0.88295  1.0000
  F   F119      1.0  0.34683  0.80591  0.36976  1.0000
  F   F120      1.0  0.34868  0.80750  0.87281  1.0000
  F   F121      1.0  0.59523  0.29863  0.38805  1.0000
  F   F122      1.0  0.59835  0.30631  0.86733  1.0000
  F   F123      1.0  0.60051  0.79248  0.36479  1.0000
  F   F124      1.0  0.60426  0.78469  0.88233  1.0000
  F   F125      1.0  0.84771  0.29997  0.36546  1.0000
  F   F126      1.0  0.84767  0.30719  0.84966  1.0000
  F   F127      1.0  0.84454  0.79977  0.37554  1.0000
  F   F128      1.0  0.84871  0.80429  0.87333  1.0000
  F   F129      1.0  0.06632  0.25342  0.14485  1.0000
  F   F130      1.0  0.06417  0.23971  0.64742  1.0000
  F   F131      1.0  0.06364  0.75057  0.14270  1.0000
  F   F132      1.0  0.06014  0.74744  0.64227  1.0000
  F   F133      1.0  0.31866  0.26511  0.12735  1.0000
  F   F134      1.0  0.31218  0.23932  0.65844  1.0000
  F   F135      1.0  0.30426  0.74082  0.16366  1.0000
  F   F136      1.0  0.31482  0.75475  0.64512  1.0000
  F   F137      1.0  0.55744  0.24658  0.15140  1.0000
  F   F138      1.0  0.57249  0.25498  0.62891  1.0000
  F   F139      1.0  0.55857  0.74770  0.16470  1.0000
  F   F140      1.0  0.55956  0.74772  0.66746  1.0000
  F   F141      1.0  0.82219  0.26152  0.11956  1.0000
  F   F142      1.0  0.81660  0.24309  0.64048  1.0000
  F   F143      1.0  0.81735  0.74617  0.13782  1.0000
  F   F144      1.0  0.81148  0.73587  0.64849  1.0000
  F   F145      1.0  0.12903  0.39336  0.08273  1.0000
  F   F146      1.0  0.12223  0.36498  0.61531  1.0000
  F   F147      1.0  0.12146  0.86453  0.12318  1.0000
  F   F148      1.0  0.11727  0.85135  0.62318  1.0000
  F   F149      1.0  0.37815  0.35396  0.11886  1.0000
  F   F150      1.0  0.37780  0.38599  0.60384  1.0000
  F   F151      1.0  0.36996  0.84101  0.13499  1.0000
  F   F152      1.0  0.37600  0.87659  0.61336  1.0000
  F   F153      1.0  0.62244  0.35115  0.12223  1.0000
  F   F154      1.0  0.62653  0.36999  0.60485  1.0000
  F   F155      1.0  0.62984  0.87859  0.10537  1.0000
  F   F156      1.0  0.62903  0.87185  0.60040  1.0000
  F   F157      1.0  0.87327  0.38808  0.10140  1.0000
  F   F158      1.0  0.87877  0.36715  0.60399  1.0000
  F   F159      1.0  0.87319  0.88744  0.09260  1.0000
  F   F160      1.0  0.87433  0.88513  0.59311  1.0000
  F   F161      1.0  0.18613  0.24518  0.35735  1.0000
  F   F162      1.0  0.17632  0.24624  0.86600  1.0000
  F   F163      1.0  0.18392  0.74669  0.37780  1.0000
  F   F164      1.0  0.19352  0.75857  0.84950  1.0000
  F   F165      1.0  0.42649  0.24231  0.36167  1.0000
  F   F166      1.0  0.43875  0.24767  0.86492  1.0000
  F   F167      1.0  0.42849  0.75391  0.35922  1.0000
  F   F168      1.0  0.44328  0.75408  0.83753  1.0000
  F   F169      1.0  0.69606  0.25494  0.34694  1.0000
  F   F170      1.0  0.68733  0.24949  0.86468  1.0000
  F   F171      1.0  0.68431  0.73997  0.36005  1.0000
  F   F172      1.0  0.68740  0.73836  0.86180  1.0000
  F   F173      1.0  0.93145  0.25346  0.36783  1.0000
  F   F174      1.0  0.93464  0.25333  0.86181  1.0000
  F   F175      1.0  0.92926  0.74743  0.35498  1.0000
  F   F176      1.0  0.93499  0.74605  0.85797  1.0000
  F   F177      1.0  0.12402  0.10997  0.40454  1.0000
  F   F178      1.0  0.12307  0.11939  0.89983  1.0000
  F   F179      1.0  0.12446  0.63736  0.39572  1.0000
  F   F180      1.0  0.11873  0.61657  0.91989  1.0000
  F   F181      1.0  0.37309  0.09683  0.41098  1.0000
  F   F182      1.0  0.37904  0.13765  0.88168  1.0000
  F   F183      1.0  0.36831  0.61829  0.41225  1.0000
  F   F184      1.0  0.37333  0.63888  0.88211  1.0000
  F   F185      1.0  0.63156  0.15089  0.37411  1.0000
  F   F186      1.0  0.63058  0.13645  0.88068  1.0000
  F   F187      1.0  0.62140  0.60384  0.41236  1.0000
  F   F188      1.0  0.62851  0.61021  0.91642  1.0000
  F   F189      1.0  0.87446  0.13755  0.38631  1.0000
  F   F190      1.0  0.87794  0.13410  0.87273  1.0000
  F   F191      1.0  0.87516  0.61880  0.37715  1.0000
  F   F192      1.0  0.87946  0.63148  0.87729  1.0000
  F   F193      1.0  0.00812  0.36530  0.06368  1.0000
  F   F194      1.0  0.01202  0.36824  0.56137  1.0000
  F   F195      1.0  0.01117  0.86694  0.06851  1.0000
  F   F196      1.0  0.00921  0.87677  0.56361  1.0000
  F   F197      1.0  0.26029  0.36490  0.07330  1.0000
  F   F198      1.0  0.26323  0.37183  0.56572  1.0000
  F   F199      1.0  0.24961  0.85945  0.08353  1.0000
  F   F200      1.0  0.25579  0.86499  0.57190  1.0000
  F   F201      1.0  0.50958  0.35991  0.05718  1.0000
  F   F202      1.0  0.50750  0.36907  0.57284  1.0000
  F   F203      1.0  0.50456  0.86463  0.08951  1.0000
  F   F204      1.0  0.50841  0.85914  0.57692  1.0000
  F   F205      1.0  0.75648  0.35998  0.08297  1.0000
  F   F206      1.0  0.75650  0.35477  0.57680  1.0000
  F   F207      1.0  0.75857  0.85933  0.07707  1.0000
  F   F208      1.0  0.75330  0.87031  0.58149  1.0000
  F   F209      1.0  0.06844  0.48889  0.15835  1.0000
  F   F210      1.0  0.06683  0.48609  0.66811  1.0000
  F   F211      1.0  0.07308  0.98816  0.17211  1.0000
  F   F212      1.0  0.07395  0.98542  0.66229  1.0000
  F   F213      1.0  0.32343  0.47570  0.18205  1.0000
  F   F214      1.0  0.30953  0.49589  0.68081  1.0000
  F   F215      1.0  0.31803  0.97675  0.18511  1.0000
  F   F216      1.0  0.31031  0.98883  0.67920  1.0000
  F   F217      1.0  0.56666  0.47131  0.18179  1.0000
  F   F218      1.0  0.56670  0.48081  0.68571  1.0000
  F   F219      1.0  0.56699  0.98633  0.17720  1.0000
  F   F220      1.0  0.57379  0.99148  0.66070  1.0000
  F   F221      1.0  0.81472  0.49243  0.18603  1.0000
  F   F222      1.0  0.81461  0.48122  0.67609  1.0000
  F   F223      1.0  0.81621  0.97953  0.18518  1.0000
  F   F224      1.0  0.82482  0.97844  0.68259  1.0000
  F   F225      1.0  0.23965  0.13463  0.43244  1.0000
  F   F226      1.0  0.24326  0.14014  0.91141  1.0000
  F   F227      1.0  0.24094  0.63689  0.42846  1.0000
  F   F228      1.0  0.24519  0.63713  0.93186  1.0000
  F   F229      1.0  0.49419  0.14619  0.42558  1.0000
  F   F230      1.0  0.49577  0.12424  0.92409  1.0000
  F   F231      1.0  0.49008  0.64352  0.41937  1.0000
  F   F232      1.0  0.49593  0.64182  0.93929  1.0000
  F   F233      1.0  0.74333  0.12206  0.44640  1.0000
  F   F234      1.0  0.74308  0.12675  0.92475  1.0000
  F   F235      1.0  0.73459  0.62942  0.45193  1.0000
  F   F236      1.0  0.74632  0.64138  0.92072  1.0000
  F   F237      1.0  0.00084  0.14398  0.39187  1.0000
  F   F238      1.0  0.99328  0.12693  0.92611  1.0000
  F   F239      1.0  0.98834  0.63058  0.42896  1.0000
  F   F240      1.0  0.99427  0.64058  0.90997  1.0000
  F   F241      1.0  0.18502  0.01743  0.32356  1.0000
  F   F242      1.0  0.17887  0.01981  0.82428  1.0000
  F   F243      1.0  0.17746  0.51359  0.32321  1.0000
  F   F244      1.0  0.18626  0.52238  0.80359  1.0000
  F   F245      1.0  0.43371  0.01333  0.31581  1.0000
  F   F246      1.0  0.43565  0.02107  0.81331  1.0000
  F   F247      1.0  0.42898  0.50640  0.32672  1.0000
  F   F248      1.0  0.42387  0.51520  0.83453  1.0000
  F   F249      1.0  0.67650  0.01957  0.32955  1.0000
  F   F250      1.0  0.67795  0.01689  0.82349  1.0000
  F   F251      1.0  0.67107  0.51160  0.33555  1.0000
  F   F252      1.0  0.68787  0.51447  0.81715  1.0000
  F   F253      1.0  0.91904  0.02411  0.33086  1.0000
  F   F254      1.0  0.93574  0.00783  0.82436  1.0000
  F   F255      1.0  0.93512  0.51161  0.31534  1.0000
  F   F256      1.0  0.93030  0.51669  0.80919  1.0000
  F   F257      1.0  0.99683  0.25888  0.99372  1.0000
  F   F258      1.0  0.99666  0.22930  0.50720  1.0000
  F   F259      1.0  0.00458  0.76495  0.99184  1.0000
  F   F260      1.0  0.99367  0.73882  0.51289  1.0000
  F   F261      1.0  0.25186  0.25354  0.99731  1.0000
  F   F262      1.0  0.24836  0.24480  0.50944  1.0000
  F   F263      1.0  0.24173  0.74893  0.00809  1.0000
  F   F264      1.0  0.24426  0.74843  0.50691  1.0000
  F   F265      1.0  0.50069  0.22059  0.01136  1.0000
  F   F266      1.0  0.49906  0.25154  0.50153  1.0000
  F   F267      1.0  0.50104  0.76250  0.00406  1.0000
  F   F268      1.0  0.49782  0.75060  0.50288  1.0000
  F   F269      1.0  0.74826  0.23606  0.00294  1.0000
  F   F270      1.0  0.74993  0.25123  0.50244  1.0000
  F   F271      1.0  0.75446  0.75655  0.99485  1.0000
  F   F272      1.0  0.75439  0.77286  0.47677  1.0000
  F   F273      1.0  0.13316  0.00343  0.24131  1.0000
  F   F274      1.0  0.11726  0.99245  0.76662  1.0000
  F   F275      1.0  0.12273  0.51027  0.25091  1.0000
  F   F276      1.0  0.11708  0.49640  0.76821  1.0000
  F   F277      1.0  0.36824  0.00697  0.25035  1.0000
  F   F278      1.0  0.37588  0.99338  0.75108  1.0000
  F   F279      1.0  0.37761  0.49548  0.24534  1.0000
  F   F280      1.0  0.37049  0.50662  0.74985  1.0000
  F   F281      1.0  0.61756  0.99202  0.26484  1.0000
  F   F282      1.0  0.61996  0.98600  0.75660  1.0000
  F   F283      1.0  0.62556  0.50321  0.25291  1.0000
  F   F284      1.0  0.62333  0.49280  0.75709  1.0000
  F   F285      1.0  0.87205  0.98997  0.25014  1.0000
  F   F286      1.0  0.87791  0.00321  0.74483  1.0000
  F   F287      1.0  0.88135  0.50911  0.23804  1.0000
  F   F288      1.0  0.87437  0.48924  0.73896  1.0000
  F   F289      1.0  0.04467  0.03660  0.02782  1.0000
  F   F290      1.0  0.04166  0.03216  0.52702  1.0000
  F   F291      1.0  0.03832  0.52869  0.02621  1.0000
  F   F292      1.0  0.03376  0.52838  0.53549  1.0000
  F   F293      1.0  0.28816  0.04003  0.03085  1.0000
  F   F294      1.0  0.28595  0.02578  0.52760  1.0000
  F   F295      1.0  0.29582  0.52950  0.01745  1.0000
  F   F296      1.0  0.28477  0.53159  0.53565  1.0000
  F   F297      1.0  0.55335  0.02543  0.01494  1.0000
  F   F298      1.0  0.55915  0.01992  0.49892  1.0000
  F   F299      1.0  0.54840  0.52208  0.01709  1.0000
  F   F300      1.0  0.53551  0.52659  0.54184  1.0000
  F   F301      1.0  0.79172  0.03277  0.01492  1.0000
  F   F302      1.0  0.80604  0.03419  0.51549  1.0000
  F   F303      1.0  0.79531  0.53280  0.02421  1.0000
  F   F304      1.0  0.79748  0.51680  0.51474  1.0000
  F   F305      1.0  0.23691  0.43277  0.20831  1.0000
  F   F306      1.0  0.23952  0.39325  0.73329  1.0000
  F   F307      1.0  0.23202  0.92192  0.22119  1.0000
  F   F308      1.0  0.23601  0.91181  0.72761  1.0000
  F   F309      1.0  0.48645  0.39520  0.23579  1.0000
  F   F310      1.0  0.48822  0.41426  0.73675  1.0000
  F   F311      1.0  0.48327  0.92094  0.22813  1.0000
  F   F312      1.0  0.48868  0.93150  0.70863  1.0000
  F   F313      1.0  0.73552  0.42382  0.22168  1.0000
  F   F314      1.0  0.73781  0.41578  0.72265  1.0000
  F   F315      1.0  0.73335  0.91575  0.23655  1.0000
  F   F316      1.0  0.73570  0.91127  0.73146  1.0000
  F   F317      1.0  0.98629  0.42335  0.22382  1.0000
  F   F318      1.0  0.98386  0.40827  0.72183  1.0000
  F   F319      1.0  0.98064  0.90736  0.23955  1.0000
  F   F320      1.0  0.98755  0.89710  0.74436  1.0000
  F   F321      1.0  0.20476  0.47229  0.47680  1.0000
  F   F322      1.0  0.20974  0.47102  0.96648  1.0000
  F   F323      1.0  0.19989  0.97945  0.47878  1.0000
  F   F324      1.0  0.19752  0.96860  0.99051  1.0000
  F   F325      1.0  0.45525  0.46319  0.46670  1.0000
  F   F326      1.0  0.45343  0.46400  0.98240  1.0000
  F   F327      1.0  0.45636  0.98312  0.48266  1.0000
  F   F328      1.0  0.45732  0.95754  0.97270  1.0000
  F   F329      1.0  0.70363  0.46112  0.48241  1.0000
  F   F330      1.0  0.69907  0.46100  0.00395  1.0000
  F   F331      1.0  0.71340  0.96607  0.45636  1.0000
  F   F332      1.0  0.71926  0.96676  0.95206  1.0000
  F   F333      1.0  0.95287  0.47594  0.48342  1.0000
  F   F334      1.0  0.95592  0.47794  0.97499  1.0000
  F   F335      1.0  0.95723  0.96486  0.46310  1.0000
  F   F336      1.0  0.95725  0.96811  0.96976  1.0000
  F   F337      1.0  0.01317  0.06188  0.27252  1.0000
  F   F338      1.0  0.01413  0.08166  0.77805  1.0000
  F   F339      1.0  0.01475  0.57515  0.28335  1.0000
  F   F340      1.0  0.02027  0.58250  0.76999  1.0000
  F   F341      1.0  0.26975  0.10035  0.27217  1.0000
  F   F342      1.0  0.26123  0.08041  0.77736  1.0000
  F   F343      1.0  0.26638  0.57312  0.27858  1.0000
  F   F344      1.0  0.26095  0.62111  0.76259  1.0000
  F   F345      1.0  0.51591  0.07344  0.27552  1.0000
  F   F346      1.0  0.51388  0.08115  0.76952  1.0000
  F   F347      1.0  0.51685  0.58805  0.26860  1.0000
  F   F348      1.0  0.51487  0.59757  0.76824  1.0000
  F   F349      1.0  0.76851  0.09800  0.26207  1.0000
  F   F350      1.0  0.76343  0.09759  0.74797  1.0000
  F   F351      1.0  0.75387  0.57141  0.28702  1.0000
  F   F352      1.0  0.76444  0.57941  0.77748  1.0000
  F   F353      1.0  0.10272  0.40261  0.45869  1.0000
  F   F354      1.0  0.10356  0.39597  0.96458  1.0000
  F   F355      1.0  0.10145  0.91310  0.45084  1.0000
  F   F356      1.0  0.09768  0.91128  0.97203  1.0000
  F   F357      1.0  0.35177  0.38847  0.47130  1.0000
  F   F358      1.0  0.36036  0.40292  0.96865  1.0000
  F   F359      1.0  0.34969  0.89516  0.46412  1.0000
  F   F360      1.0  0.35245  0.91101  0.97609  1.0000
  F   F361      1.0  0.60167  0.40785  0.46395  1.0000
  F   F362      1.0  0.60420  0.39231  0.97448  1.0000
  F   F363      1.0  0.59599  0.87887  0.47207  1.0000
  F   F364      1.0  0.60542  0.88643  0.97401  1.0000
  F   F365      1.0  0.85455  0.40303  0.45764  1.0000
  F   F366      1.0  0.84701  0.41656  0.94285  1.0000
  F   F367      1.0  0.84597  0.87774  0.47743  1.0000
  F   F368      1.0  0.85373  0.90143  0.96106  1.0000
  F   F369      1.0  0.05746  0.30366  0.28344  1.0000
  F   F370      1.0  0.03793  0.29012  0.78372  1.0000
  F   F371      1.0  0.03694  0.79579  0.29790  1.0000
  F   F372      1.0  0.04722  0.79271  0.79883  1.0000
  F   F373      1.0  0.28791  0.29814  0.28658  1.0000
  F   F374      1.0  0.30736  0.30215  0.78872  1.0000
  F   F375      1.0  0.29071  0.80434  0.30347  1.0000
  F   F376      1.0  0.29520  0.80598  0.78594  1.0000
  F   F377      1.0  0.54704  0.29458  0.28838  1.0000
  F   F378      1.0  0.54483  0.29349  0.79275  1.0000
  F   F379      1.0  0.55086  0.81306  0.28428  1.0000
  F   F380      1.0  0.55033  0.80931  0.79615  1.0000
  F   F381      1.0  0.79282  0.29496  0.28553  1.0000
  F   F382      1.0  0.79537  0.28927  0.78673  1.0000
  F   F383      1.0  0.79513  0.78574  0.28754  1.0000
  F   F384      1.0  0.79965  0.79990  0.78637  1.0000
