data_image0
_chemical_formula_structural       Hf96F384
_chemical_formula_sum              "Hf96 F384"
_cell_length_a       31.026
_cell_length_b       15.5108
_cell_length_c       15.5032
_cell_angle_alpha    63.342
_cell_angle_beta     63.342
_cell_angle_gamma    80.1625

_space_group_name_H-M_alt    "P 1"
_space_group_IT_number       1

loop_
  _space_group_symop_operation_xyz
  'x, y, z'

loop_
  _atom_site_type_symbol
  _atom_site_label
  _atom_site_symmetry_multiplicity
  _atom_site_fract_x
  _atom_site_fract_y
  _atom_site_fract_z
  _atom_site_occupancy
  Hf  Hf1       1.0  0.19936  0.11322  0.36878  1.0000
  Hf  Hf2       1.0  0.19819  0.11185  0.86607  1.0000
  Hf  Hf3       1.0  0.19820  0.61017  0.37192  1.0000
  Hf  Hf4       1.0  0.19357  0.61474  0.87339  1.0000
  Hf  Hf5       1.0  0.45019  0.10876  0.37214  1.0000
  Hf  Hf6       1.0  0.44429  0.10334  0.88323  1.0000
  Hf  Hf7       1.0  0.44704  0.60827  0.37388  1.0000
  Hf  Hf8       1.0  0.44847  0.60683  0.86882  1.0000
  Hf  Hf9       1.0  0.70049  0.10981  0.35875  1.0000
  Hf  Hf10      1.0  0.69792  0.10275  0.87190  1.0000
  Hf  Hf11      1.0  0.69945  0.60358  0.37312  1.0000
  Hf  Hf12      1.0  0.69554  0.60348  0.87612  1.0000
  Hf  Hf13      1.0  0.94729  0.10977  0.36457  1.0000
  Hf  Hf14      1.0  0.94821  0.10598  0.87211  1.0000
  Hf  Hf15      1.0  0.94653  0.60280  0.37876  1.0000
  Hf  Hf16      1.0  0.94348  0.60641  0.87807  1.0000
  Hf  Hf17      1.0  0.05340  0.40202  0.12417  1.0000
  Hf  Hf18      1.0  0.05089  0.39206  0.62740  1.0000
  Hf  Hf19      1.0  0.05244  0.90104  0.12735  1.0000
  Hf  Hf20      1.0  0.05160  0.89751  0.62136  1.0000
  Hf  Hf21      1.0  0.30402  0.39106  0.11577  1.0000
  Hf  Hf22      1.0  0.30301  0.39400  0.62594  1.0000
  Hf  Hf23      1.0  0.30439  0.89613  0.12764  1.0000
  Hf  Hf24      1.0  0.30465  0.89304  0.63150  1.0000
  Hf  Hf25      1.0  0.55560  0.38983  0.13049  1.0000
  Hf  Hf26      1.0  0.55737  0.38477  0.61897  1.0000
  Hf  Hf27      1.0  0.55225  0.89056  0.13308  1.0000
  Hf  Hf28      1.0  0.55248  0.89329  0.62953  1.0000
  Hf  Hf29      1.0  0.80026  0.38636  0.12638  1.0000
  Hf  Hf30      1.0  0.80402  0.39601  0.62236  1.0000
  Hf  Hf31      1.0  0.80353  0.88477  0.13207  1.0000
  Hf  Hf32      1.0  0.80432  0.89760  0.62696  1.0000
  Hf  Hf33      1.0  0.05592  0.18461  0.41172  1.0000
  Hf  Hf34      1.0  0.05540  0.19049  0.91371  1.0000
  Hf  Hf35      1.0  0.05380  0.68646  0.41907  1.0000
  Hf  Hf36      1.0  0.05558  0.68707  0.91313  1.0000
  Hf  Hf37      1.0  0.30731  0.18726  0.41806  1.0000
  Hf  Hf38      1.0  0.30823  0.18883  0.90991  1.0000
  Hf  Hf39      1.0  0.30614  0.67639  0.41781  1.0000
  Hf  Hf40      1.0  0.30502  0.67224  0.92358  1.0000
  Hf  Hf41      1.0  0.55815  0.17899  0.41722  1.0000
  Hf  Hf42      1.0  0.55540  0.17710  0.91691  1.0000
  Hf  Hf43      1.0  0.55633  0.67710  0.42390  1.0000
  Hf  Hf44      1.0  0.55574  0.67158  0.92315  1.0000
  Hf  Hf45      1.0  0.80763  0.18517  0.41476  1.0000
  Hf  Hf46      1.0  0.80246  0.17389  0.92611  1.0000
  Hf  Hf47      1.0  0.80665  0.68040  0.41637  1.0000
  Hf  Hf48      1.0  0.80853  0.67491  0.91660  1.0000
  Hf  Hf49      1.0  0.15867  0.39203  0.32799  1.0000
  Hf  Hf50      1.0  0.15709  0.39134  0.82870  1.0000
  Hf  Hf51      1.0  0.15835  0.89030  0.33611  1.0000
  Hf  Hf52      1.0  0.16119  0.89879  0.82689  1.0000
  Hf  Hf53      1.0  0.40946  0.39172  0.33357  1.0000
  Hf  Hf54      1.0  0.41315  0.38487  0.83322  1.0000
  Hf  Hf55      1.0  0.40827  0.88130  0.33928  1.0000
  Hf  Hf56      1.0  0.40245  0.87873  0.85369  1.0000
  Hf  Hf57      1.0  0.66136  0.38309  0.33144  1.0000
  Hf  Hf58      1.0  0.65935  0.38058  0.83699  1.0000
  Hf  Hf59      1.0  0.65687  0.88196  0.33692  1.0000
  Hf  Hf60      1.0  0.65393  0.87912  0.84121  1.0000
  Hf  Hf61      1.0  0.90908  0.38555  0.33130  1.0000
  Hf  Hf62      1.0  0.90407  0.38076  0.83934  1.0000
  Hf  Hf63      1.0  0.90646  0.88877  0.33560  1.0000
  Hf  Hf64      1.0  0.90361  0.88305  0.83521  1.0000
  Hf  Hf65      1.0  0.19563  0.32696  0.07918  1.0000
  Hf  Hf66      1.0  0.19180  0.31760  0.58533  1.0000
  Hf  Hf67      1.0  0.19486  0.81974  0.08147  1.0000
  Hf  Hf68      1.0  0.19223  0.82146  0.58348  1.0000
  Hf  Hf69      1.0  0.44548  0.32055  0.08415  1.0000
  Hf  Hf70      1.0  0.44372  0.31497  0.58453  1.0000
  Hf  Hf71      1.0  0.44713  0.81944  0.08481  1.0000
  Hf  Hf72      1.0  0.44611  0.82245  0.58146  1.0000
  Hf  Hf73      1.0  0.69244  0.31924  0.08227  1.0000
  Hf  Hf74      1.0  0.69387  0.31763  0.57940  1.0000
  Hf  Hf75      1.0  0.69272  0.81568  0.08061  1.0000
  Hf  Hf76      1.0  0.69560  0.82571  0.58467  1.0000
  Hf  Hf77      1.0  0.94417  0.32452  0.07948  1.0000
  Hf  Hf78      1.0  0.94607  0.31484  0.58457  1.0000
  Hf  Hf79      1.0  0.94341  0.82347  0.07931  1.0000
  Hf  Hf80      1.0  0.94318  0.81703  0.58248  1.0000
  Hf  Hf81      1.0  0.09290  0.12395  0.15929  1.0000
  Hf  Hf82      1.0  0.09052  0.11684  0.66050  1.0000
  Hf  Hf83      1.0  0.08855  0.62322  0.16500  1.0000
  Hf  Hf84      1.0  0.08706  0.61733  0.66605  1.0000
  Hf  Hf85      1.0  0.34144  0.11224  0.16704  1.0000
  Hf  Hf86      1.0  0.34080  0.11207  0.66824  1.0000
  Hf  Hf87      1.0  0.33951  0.61391  0.16613  1.0000
  Hf  Hf88      1.0  0.33919  0.61136  0.66962  1.0000
  Hf  Hf89      1.0  0.59377  0.10357  0.17392  1.0000
  Hf  Hf90      1.0  0.59358  0.11111  0.66436  1.0000
  Hf  Hf91      1.0  0.59307  0.60822  0.16821  1.0000
  Hf  Hf92      1.0  0.59125  0.60575  0.66765  1.0000
  Hf  Hf93      1.0  0.84208  0.11313  0.16500  1.0000
  Hf  Hf94      1.0  0.84387  0.11221  0.66937  1.0000
  Hf  Hf95      1.0  0.84358  0.60932  0.16547  1.0000
  Hf  Hf96      1.0  0.84058  0.61271  0.66643  1.0000
  F   F1        1.0  0.07467  0.13039  0.30179  1.0000
  F   F2        1.0  0.07918  0.12923  0.80827  1.0000
  F   F3        1.0  0.07299  0.63200  0.31325  1.0000
  F   F4        1.0  0.07664  0.63563  0.80103  1.0000
  F   F5        1.0  0.33099  0.12814  0.30502  1.0000
  F   F6        1.0  0.32758  0.12713  0.80278  1.0000
  F   F7        1.0  0.33005  0.62596  0.30458  1.0000
  F   F8        1.0  0.32712  0.62867  0.80521  1.0000
  F   F9        1.0  0.58459  0.12714  0.30383  1.0000
  F   F10       1.0  0.57953  0.10911  0.80886  1.0000
  F   F11       1.0  0.58186  0.63121  0.30536  1.0000
  F   F12       1.0  0.58243  0.62960  0.79836  1.0000
  F   F13       1.0  0.82112  0.11668  0.31561  1.0000
  F   F14       1.0  0.83243  0.13209  0.80007  1.0000
  F   F15       1.0  0.83191  0.62815  0.30299  1.0000
  F   F16       1.0  0.83063  0.60779  0.81120  1.0000
  F   F17       1.0  0.19472  0.34548  0.43840  1.0000
  F   F18       1.0  0.17733  0.33755  0.94509  1.0000
  F   F19       1.0  0.18318  0.83822  0.44915  1.0000
  F   F20       1.0  0.19043  0.84575  0.94254  1.0000
  F   F21       1.0  0.43731  0.35081  0.44622  1.0000
  F   F22       1.0  0.45190  0.35886  0.93014  1.0000
  F   F23       1.0  0.44019  0.83452  0.44885  1.0000
  F   F24       1.0  0.43298  0.83397  0.95965  1.0000
  F   F25       1.0  0.68708  0.32870  0.44212  1.0000
  F   F26       1.0  0.69030  0.34892  0.94491  1.0000
  F   F27       1.0  0.68638  0.84500  0.44209  1.0000
  F   F28       1.0  0.67576  0.83181  0.95876  1.0000
  F   F29       1.0  0.93609  0.35713  0.44168  1.0000
  F   F30       1.0  0.93247  0.32843  0.95658  1.0000
  F   F31       1.0  0.93236  0.83183  0.44754  1.0000
  F   F32       1.0  0.93506  0.85261  0.94052  1.0000
  F   F33       1.0  0.16573  0.37679  0.19165  1.0000
  F   F34       1.0  0.17367  0.38531  0.67817  1.0000
  F   F35       1.0  0.16859  0.88325  0.19417  1.0000
  F   F36       1.0  0.18013  0.89870  0.68250  1.0000
  F   F37       1.0  0.41847  0.37488  0.20188  1.0000
  F   F38       1.0  0.41807  0.36566  0.70425  1.0000
  F   F39       1.0  0.42229  0.87350  0.19289  1.0000
  F   F40       1.0  0.41620  0.85650  0.70881  1.0000
  F   F41       1.0  0.67569  0.38297  0.17947  1.0000
  F   F42       1.0  0.66951  0.35023  0.70801  1.0000
  F   F43       1.0  0.66689  0.86318  0.19804  1.0000
  F   F44       1.0  0.67030  0.88047  0.69558  1.0000
  F   F45       1.0  0.91845  0.36164  0.19807  1.0000
  F   F46       1.0  0.91954  0.35422  0.70794  1.0000
  F   F47       1.0  0.93134  0.88478  0.18445  1.0000
  F   F48       1.0  0.91648  0.86178  0.69988  1.0000
  F   F49       1.0  0.07032  0.16913  0.04333  1.0000
  F   F50       1.0  0.06497  0.15549  0.55140  1.0000
  F   F51       1.0  0.06311  0.66979  0.04874  1.0000
  F   F52       1.0  0.05887  0.65977  0.55362  1.0000
  F   F53       1.0  0.31008  0.15661  0.06353  1.0000
  F   F54       1.0  0.31497  0.15426  0.54928  1.0000
  F   F55       1.0  0.30101  0.64385  0.07414  1.0000
  F   F56       1.0  0.31330  0.65581  0.54680  1.0000
  F   F57       1.0  0.56721  0.16206  0.05593  1.0000
  F   F58       1.0  0.56189  0.16238  0.55539  1.0000
  F   F59       1.0  0.56252  0.64737  0.06447  1.0000
  F   F60       1.0  0.55892  0.64865  0.56768  1.0000
  F   F61       1.0  0.81910  0.16048  0.05596  1.0000
  F   F62       1.0  0.82006  0.15995  0.54397  1.0000
  F   F63       1.0  0.81602  0.65306  0.05336  1.0000
  F   F64       1.0  0.81269  0.65694  0.55170  1.0000
  F   F65       1.0  0.20481  0.21916  0.21270  1.0000
  F   F66       1.0  0.20004  0.19932  0.70464  1.0000
  F   F67       1.0  0.20551  0.70799  0.20897  1.0000
  F   F68       1.0  0.19320  0.70463  0.72156  1.0000
  F   F69       1.0  0.44925  0.20878  0.21646  1.0000
  F   F70       1.0  0.44549  0.19445  0.71511  1.0000
  F   F71       1.0  0.45918  0.71040  0.21351  1.0000
  F   F72       1.0  0.46435  0.69886  0.71893  1.0000
  F   F73       1.0  0.70255  0.19717  0.19791  1.0000
  F   F74       1.0  0.71149  0.20582  0.72263  1.0000
  F   F75       1.0  0.69878  0.68894  0.22223  1.0000
  F   F76       1.0  0.70208  0.69438  0.71039  1.0000
  F   F77       1.0  0.95686  0.20379  0.21061  1.0000
  F   F78       1.0  0.95957  0.19491  0.70913  1.0000
  F   F79       1.0  0.95034  0.71047  0.19826  1.0000
  F   F80       1.0  0.95267  0.70847  0.72490  1.0000
  F   F81       1.0  0.15073  0.11349  0.02422  1.0000
  F   F82       1.0  0.14993  0.10462  0.53454  1.0000
  F   F83       1.0  0.14637  0.61289  0.03299  1.0000
  F   F84       1.0  0.14435  0.61572  0.53133  1.0000
  F   F85       1.0  0.39635  0.08505  0.03500  1.0000
  F   F86       1.0  0.40339  0.09744  0.55320  1.0000
  F   F87       1.0  0.39676  0.59807  0.04858  1.0000
  F   F88       1.0  0.40017  0.60596  0.53895  1.0000
  F   F89       1.0  0.64659  0.06977  0.04272  1.0000
  F   F90       1.0  0.64670  0.11463  0.52892  1.0000
  F   F91       1.0  0.64729  0.58602  0.03667  1.0000
  F   F92       1.0  0.64914  0.57121  0.54217  1.0000
  F   F93       1.0  0.90663  0.10037  0.03510  1.0000
  F   F94       1.0  0.89952  0.08813  0.54604  1.0000
  F   F95       1.0  0.89845  0.57578  0.04147  1.0000
  F   F96       1.0  0.89938  0.58631  0.54101  1.0000
  F   F97       1.0  0.15039  0.21884  0.13389  1.0000
  F   F98       1.0  0.15429  0.20134  0.61590  1.0000
  F   F99       1.0  0.14637  0.70564  0.14144  1.0000
  F   F100      1.0  0.15197  0.70009  0.62922  1.0000
  F   F101      1.0  0.40201  0.19337  0.12393  1.0000
  F   F102      1.0  0.39276  0.20859  0.63035  1.0000
  F   F103      1.0  0.39841  0.70219  0.14343  1.0000
  F   F104      1.0  0.40516  0.69524  0.64545  1.0000
  F   F105      1.0  0.65016  0.19348  0.11973  1.0000
  F   F106      1.0  0.65250  0.20065  0.63769  1.0000
  F   F107      1.0  0.65359  0.69288  0.13024  1.0000
  F   F108      1.0  0.65011  0.68725  0.61961  1.0000
  F   F109      1.0  0.89977  0.20067  0.12440  1.0000
  F   F110      1.0  0.90550  0.19548  0.62539  1.0000
  F   F111      1.0  0.90233  0.69326  0.11583  1.0000
  F   F112      1.0  0.90145  0.69728  0.64196  1.0000
  F   F113      1.0  0.10048  0.30234  0.37423  1.0000
  F   F114      1.0  0.09861  0.30654  0.85641  1.0000
  F   F115      1.0  0.09701  0.80915  0.38767  1.0000
  F   F116      1.0  0.10124  0.79368  0.85650  1.0000
  F   F117      1.0  0.34928  0.29888  0.38221  1.0000
  F   F118      1.0  0.35110  0.30198  0.87257  1.0000
  F   F119      1.0  0.35262  0.79672  0.36484  1.0000
  F   F120      1.0  0.34503  0.78629  0.90918  1.0000
  F   F121      1.0  0.60551  0.29518  0.36521  1.0000
  F   F122      1.0  0.59258  0.29339  0.87893  1.0000
  F   F123      1.0  0.59891  0.80250  0.37155  1.0000
  F   F124      1.0  0.59933  0.79230  0.89108  1.0000
  F   F125      1.0  0.84933  0.31001  0.36634  1.0000
  F   F126      1.0  0.83974  0.30628  0.88205  1.0000
  F   F127      1.0  0.85011  0.80345  0.35544  1.0000
  F   F128      1.0  0.84036  0.80130  0.88927  1.0000
  F   F129      1.0  0.06162  0.25993  0.14358  1.0000
  F   F130      1.0  0.04987  0.24983  0.65682  1.0000
  F   F131      1.0  0.06431  0.75845  0.14010  1.0000
  F   F132      1.0  0.06335  0.75239  0.63251  1.0000
  F   F133      1.0  0.31026  0.25795  0.14003  1.0000
  F   F134      1.0  0.30698  0.25289  0.63762  1.0000
  F   F135      1.0  0.31709  0.75898  0.12261  1.0000
  F   F136      1.0  0.32379  0.75276  0.62930  1.0000
  F   F137      1.0  0.56409  0.24837  0.15766  1.0000
  F   F138      1.0  0.57568  0.25111  0.62835  1.0000
  F   F139      1.0  0.56109  0.74283  0.14044  1.0000
  F   F140      1.0  0.55919  0.75243  0.65787  1.0000
  F   F141      1.0  0.80770  0.24169  0.16420  1.0000
  F   F142      1.0  0.81522  0.24971  0.63403  1.0000
  F   F143      1.0  0.81581  0.74974  0.13745  1.0000
  F   F144      1.0  0.81851  0.74974  0.62597  1.0000
  F   F145      1.0  0.12752  0.40135  0.07486  1.0000
  F   F146      1.0  0.12155  0.35916  0.61037  1.0000
  F   F147      1.0  0.12841  0.89210  0.07891  1.0000
  F   F148      1.0  0.12423  0.86356  0.62285  1.0000
  F   F149      1.0  0.37609  0.35823  0.11126  1.0000
  F   F150      1.0  0.37483  0.38247  0.60051  1.0000
  F   F151      1.0  0.37565  0.87130  0.10567  1.0000
  F   F152      1.0  0.37560  0.88481  0.59563  1.0000
  F   F153      1.0  0.62572  0.37770  0.10100  1.0000
  F   F154      1.0  0.63022  0.38006  0.58298  1.0000
  F   F155      1.0  0.62314  0.87780  0.10154  1.0000
  F   F156      1.0  0.62796  0.86208  0.61925  1.0000
  F   F157      1.0  0.87114  0.36388  0.10795  1.0000
  F   F158      1.0  0.87842  0.37248  0.59889  1.0000
  F   F159      1.0  0.87503  0.87061  0.12257  1.0000
  F   F160      1.0  0.87589  0.87428  0.60005  1.0000
  F   F161      1.0  0.18778  0.25456  0.35454  1.0000
  F   F162      1.0  0.18720  0.25508  0.83895  1.0000
  F   F163      1.0  0.18537  0.75371  0.35370  1.0000
  F   F164      1.0  0.18090  0.75650  0.85225  1.0000
  F   F165      1.0  0.44007  0.24950  0.36173  1.0000
  F   F166      1.0  0.43808  0.25264  0.85964  1.0000
  F   F167      1.0  0.43443  0.74901  0.35760  1.0000
  F   F168      1.0  0.43349  0.74174  0.87436  1.0000
  F   F169      1.0  0.69642  0.24908  0.33097  1.0000
  F   F170      1.0  0.68187  0.23558  0.87274  1.0000
  F   F171      1.0  0.68980  0.74458  0.35443  1.0000
  F   F172      1.0  0.67928  0.74601  0.85477  1.0000
  F   F173      1.0  0.93175  0.24736  0.36459  1.0000
  F   F174      1.0  0.93625  0.24034  0.86461  1.0000
  F   F175      1.0  0.92759  0.74399  0.36230  1.0000
  F   F176      1.0  0.92209  0.74413  0.88260  1.0000
  F   F177      1.0  0.12354  0.12937  0.39015  1.0000
  F   F178      1.0  0.12548  0.12478  0.89487  1.0000
  F   F179      1.0  0.12362  0.63627  0.38725  1.0000
  F   F180      1.0  0.11801  0.60994  0.90653  1.0000
  F   F181      1.0  0.37965  0.12732  0.40106  1.0000
  F   F182      1.0  0.37569  0.13678  0.88424  1.0000
  F   F183      1.0  0.37714  0.62236  0.39790  1.0000
  F   F184      1.0  0.37454  0.61995  0.90621  1.0000
  F   F185      1.0  0.62610  0.12077  0.39861  1.0000
  F   F186      1.0  0.62680  0.13415  0.87693  1.0000
  F   F187      1.0  0.62465  0.62353  0.40346  1.0000
  F   F188      1.0  0.62480  0.60862  0.89698  1.0000
  F   F189      1.0  0.87664  0.12083  0.38637  1.0000
  F   F190      1.0  0.87481  0.13488  0.89141  1.0000
  F   F191      1.0  0.87519  0.61506  0.40276  1.0000
  F   F192      1.0  0.87721  0.64084  0.87277  1.0000
  F   F193      1.0  0.00464  0.35809  0.08701  1.0000
  F   F194      1.0  0.00863  0.37221  0.55549  1.0000
  F   F195      1.0  0.00990  0.86804  0.07103  1.0000
  F   F196      1.0  0.00499  0.88087  0.55519  1.0000
  F   F197      1.0  0.26027  0.35211  0.07071  1.0000
  F   F198      1.0  0.25979  0.36476  0.56253  1.0000
  F   F199      1.0  0.25700  0.86904  0.07511  1.0000
  F   F200      1.0  0.25824  0.86238  0.57851  1.0000
  F   F201      1.0  0.50919  0.35480  0.07794  1.0000
  F   F202      1.0  0.50404  0.34364  0.59764  1.0000
  F   F203      1.0  0.51091  0.86320  0.07729  1.0000
  F   F204      1.0  0.50171  0.87822  0.57493  1.0000
  F   F205      1.0  0.75680  0.36885  0.06076  1.0000
  F   F206      1.0  0.75841  0.37110  0.57486  1.0000
  F   F207      1.0  0.75502  0.85100  0.08848  1.0000
  F   F208      1.0  0.75685  0.86043  0.58600  1.0000
  F   F209      1.0  0.06257  0.50290  0.16951  1.0000
  F   F210      1.0  0.06859  0.48512  0.67373  1.0000
  F   F211      1.0  0.07197  0.99777  0.16256  1.0000
  F   F212      1.0  0.06719  0.99006  0.66439  1.0000
  F   F213      1.0  0.31653  0.48365  0.17239  1.0000
  F   F214      1.0  0.31252  0.48831  0.68661  1.0000
  F   F215      1.0  0.31700  0.99342  0.17111  1.0000
  F   F216      1.0  0.31863  0.98615  0.67833  1.0000
  F   F217      1.0  0.57148  0.47736  0.18336  1.0000
  F   F218      1.0  0.56854  0.47062  0.68122  1.0000
  F   F219      1.0  0.56704  0.97002  0.19932  1.0000
  F   F220      1.0  0.57537  0.99481  0.65544  1.0000
  F   F221      1.0  0.81667  0.48057  0.18317  1.0000
  F   F222      1.0  0.81593  0.47954  0.68764  1.0000
  F   F223      1.0  0.81492  0.97622  0.18371  1.0000
  F   F224      1.0  0.81869  0.97562  0.68828  1.0000
  F   F225      1.0  0.24273  0.12808  0.42149  1.0000
  F   F226      1.0  0.24580  0.14173  0.91441  1.0000
  F   F227      1.0  0.24084  0.63988  0.42306  1.0000
  F   F228      1.0  0.24065  0.64732  0.91893  1.0000
  F   F229      1.0  0.49977  0.14055  0.40666  1.0000
  F   F230      1.0  0.49103  0.12104  0.94005  1.0000
  F   F231      1.0  0.49300  0.64016  0.42598  1.0000
  F   F232      1.0  0.49576  0.64393  0.91059  1.0000
  F   F233      1.0  0.73827  0.13694  0.43021  1.0000
  F   F234      1.0  0.73836  0.13367  0.93435  1.0000
  F   F235      1.0  0.74370  0.63003  0.43367  1.0000
  F   F236      1.0  0.74245  0.63912  0.91959  1.0000
  F   F237      1.0  0.99270  0.14416  0.41984  1.0000
  F   F238      1.0  0.99322  0.13166  0.92392  1.0000
  F   F239      1.0  0.98679  0.65101  0.42972  1.0000
  F   F240      1.0  0.99043  0.64376  0.91497  1.0000
  F   F241      1.0  0.18432  0.02449  0.31082  1.0000
  F   F242      1.0  0.19158  0.01481  0.79830  1.0000
  F   F243      1.0  0.18126  0.51487  0.32078  1.0000
  F   F244      1.0  0.18269  0.51252  0.81884  1.0000
  F   F245      1.0  0.43421  0.01213  0.32229  1.0000
  F   F246      1.0  0.43045  0.01161  0.83035  1.0000
  F   F247      1.0  0.43245  0.51841  0.32716  1.0000
  F   F248      1.0  0.43236  0.51602  0.81740  1.0000
  F   F249      1.0  0.68523  0.01127  0.32581  1.0000
  F   F250      1.0  0.68482  0.01446  0.81629  1.0000
  F   F251      1.0  0.67177  0.50469  0.34827  1.0000
  F   F252      1.0  0.68085  0.50689  0.82960  1.0000
  F   F253      1.0  0.92956  0.01467  0.32044  1.0000
  F   F254      1.0  0.92969  0.01688  0.82980  1.0000
  F   F255      1.0  0.92718  0.52016  0.32260  1.0000
  F   F256      1.0  0.92824  0.51676  0.83149  1.0000
  F   F257      1.0  0.99794  0.24151  0.01538  1.0000
  F   F258      1.0  0.99915  0.25220  0.49928  1.0000
  F   F259      1.0  0.99509  0.75408  0.99681  1.0000
  F   F260      1.0  0.99450  0.74199  0.50764  1.0000
  F   F261      1.0  0.25430  0.27028  0.97697  1.0000
  F   F262      1.0  0.24749  0.24275  0.50336  1.0000
  F   F263      1.0  0.25012  0.75536  0.00270  1.0000
  F   F264      1.0  0.25138  0.75966  0.49872  1.0000
  F   F265      1.0  0.49467  0.22994  0.01786  1.0000
  F   F266      1.0  0.50171  0.26038  0.49263  1.0000
  F   F267      1.0  0.49802  0.74520  0.00896  1.0000
  F   F268      1.0  0.50649  0.75444  0.49702  1.0000
  F   F269      1.0  0.74994  0.24697  0.00786  1.0000
  F   F270      1.0  0.75284  0.23724  0.50956  1.0000
  F   F271      1.0  0.74832  0.74530  0.99240  1.0000
  F   F272      1.0  0.75682  0.76477  0.48603  1.0000
  F   F273      1.0  0.11863  0.01228  0.25051  1.0000
  F   F274      1.0  0.11895  0.00458  0.74966  1.0000
  F   F275      1.0  0.11595  0.50218  0.25063  1.0000
  F   F276      1.0  0.12459  0.50019  0.75045  1.0000
  F   F277      1.0  0.36791  0.99053  0.26476  1.0000
  F   F278      1.0  0.37237  0.99432  0.76644  1.0000
  F   F279      1.0  0.36301  0.49105  0.26040  1.0000
  F   F280      1.0  0.37108  0.49862  0.75988  1.0000
  F   F281      1.0  0.63083  0.99568  0.24947  1.0000
  F   F282      1.0  0.62598  0.99305  0.74331  1.0000
  F   F283      1.0  0.62861  0.50056  0.25038  1.0000
  F   F284      1.0  0.62963  0.49666  0.74684  1.0000
  F   F285      1.0  0.86904  0.99282  0.24589  1.0000
  F   F286      1.0  0.87262  0.99800  0.75680  1.0000
  F   F287      1.0  0.87872  0.49006  0.24424  1.0000
  F   F288      1.0  0.87943  0.49518  0.74776  1.0000
  F   F289      1.0  0.03975  0.04150  0.02841  1.0000
  F   F290      1.0  0.03724  0.02793  0.53371  1.0000
  F   F291      1.0  0.03969  0.52952  0.02643  1.0000
  F   F292      1.0  0.03901  0.52802  0.52237  1.0000
  F   F293      1.0  0.29801  0.03204  0.02245  1.0000
  F   F294      1.0  0.29570  0.02732  0.52102  1.0000
  F   F295      1.0  0.29449  0.51934  0.00809  1.0000
  F   F296      1.0  0.29544  0.52681  0.51553  1.0000
  F   F297      1.0  0.54256  0.03447  0.03298  1.0000
  F   F298      1.0  0.54302  0.03155  0.52084  1.0000
  F   F299      1.0  0.54048  0.52337  0.03097  1.0000
  F   F300      1.0  0.54734  0.52185  0.52101  1.0000
  F   F301      1.0  0.79539  0.03089  0.01527  1.0000
  F   F302      1.0  0.79269  0.02809  0.52988  1.0000
  F   F303      1.0  0.79441  0.52788  0.01717  1.0000
  F   F304      1.0  0.79258  0.52597  0.52225  1.0000
  F   F305      1.0  0.23339  0.41237  0.21079  1.0000
  F   F306      1.0  0.23352  0.41945  0.71743  1.0000
  F   F307      1.0  0.23124  0.91626  0.23241  1.0000
  F   F308      1.0  0.23991  0.90641  0.74312  1.0000
  F   F309      1.0  0.48686  0.40905  0.23699  1.0000
  F   F310      1.0  0.48580  0.42147  0.72055  1.0000
  F   F311      1.0  0.48414  0.90178  0.23919  1.0000
  F   F312      1.0  0.48678  0.90738  0.73730  1.0000
  F   F313      1.0  0.73752  0.42126  0.21955  1.0000
  F   F314      1.0  0.73208  0.41361  0.73727  1.0000
  F   F315      1.0  0.73134  0.92023  0.22619  1.0000
  F   F316      1.0  0.73541  0.89293  0.74017  1.0000
  F   F317      1.0  0.98079  0.43846  0.21446  1.0000
  F   F318      1.0  0.98434  0.41163  0.72292  1.0000
  F   F319      1.0  0.98760  0.90984  0.24270  1.0000
  F   F320      1.0  0.98307  0.91113  0.71260  1.0000
  F   F321      1.0  0.19557  0.48045  0.47901  1.0000
  F   F322      1.0  0.20771  0.47187  0.97244  1.0000
  F   F323      1.0  0.19622  0.97562  0.47833  1.0000
  F   F324      1.0  0.20716  0.98377  0.96849  1.0000
  F   F325      1.0  0.45642  0.46549  0.48978  1.0000
  F   F326      1.0  0.45887  0.47490  0.98341  1.0000
  F   F327      1.0  0.45351  0.97069  0.47808  1.0000
  F   F328      1.0  0.45883  0.96383  0.96903  1.0000
  F   F329      1.0  0.71674  0.45537  0.47521  1.0000
  F   F330      1.0  0.71209  0.47967  0.96395  1.0000
  F   F331      1.0  0.70668  0.97018  0.47472  1.0000
  F   F332      1.0  0.71339  0.95342  0.97117  1.0000
  F   F333      1.0  0.96199  0.47342  0.47714  1.0000
  F   F334      1.0  0.96278  0.46827  0.96776  1.0000
  F   F335      1.0  0.95207  0.97646  0.46585  1.0000
  F   F336      1.0  0.95778  0.96758  0.98007  1.0000
  F   F337      1.0  0.01529  0.09507  0.26785  1.0000
  F   F338      1.0  0.02028  0.07592  0.77908  1.0000
  F   F339      1.0  0.01505  0.61382  0.26192  1.0000
  F   F340      1.0  0.01281  0.59012  0.76690  1.0000
  F   F341      1.0  0.26817  0.09274  0.26582  1.0000
  F   F342      1.0  0.26709  0.08381  0.75986  1.0000
  F   F343      1.0  0.26396  0.57835  0.28394  1.0000
  F   F344      1.0  0.26299  0.60817  0.76412  1.0000
  F   F345      1.0  0.52024  0.07460  0.27619  1.0000
  F   F346      1.0  0.51142  0.10595  0.77013  1.0000
  F   F347      1.0  0.51764  0.56737  0.28616  1.0000
  F   F348      1.0  0.51878  0.57135  0.78331  1.0000
  F   F349      1.0  0.76618  0.08376  0.26753  1.0000
  F   F350      1.0  0.76944  0.07942  0.78479  1.0000
  F   F351      1.0  0.76715  0.59463  0.26676  1.0000
  F   F352      1.0  0.76745  0.59298  0.76161  1.0000
  F   F353      1.0  0.09888  0.39640  0.46129  1.0000
  F   F354      1.0  0.09348  0.40722  0.95258  1.0000
  F   F355      1.0  0.09998  0.91013  0.47481  1.0000
  F   F356      1.0  0.10346  0.90977  0.94572  1.0000
  F   F357      1.0  0.35373  0.40465  0.45473  1.0000
  F   F358      1.0  0.35492  0.39234  0.95823  1.0000
  F   F359      1.0  0.35246  0.91252  0.45327  1.0000
  F   F360      1.0  0.35488  0.91394  0.96683  1.0000
  F   F361      1.0  0.59469  0.39323  0.46038  1.0000
  F   F362      1.0  0.60237  0.39618  0.95870  1.0000
  F   F363      1.0  0.59931  0.91211  0.45861  1.0000
  F   F364      1.0  0.59758  0.91759  0.95821  1.0000
  F   F365      1.0  0.85061  0.40885  0.46368  1.0000
  F   F366      1.0  0.84915  0.40054  0.96579  1.0000
  F   F367      1.0  0.85138  0.90913  0.46096  1.0000
  F   F368      1.0  0.85259  0.90421  0.96601  1.0000
  F   F369      1.0  0.04819  0.31144  0.27951  1.0000
  F   F370      1.0  0.04611  0.30579  0.78227  1.0000
  F   F371      1.0  0.05172  0.81732  0.29349  1.0000
  F   F372      1.0  0.04075  0.80160  0.78585  1.0000
  F   F373      1.0  0.30205  0.29487  0.29035  1.0000
  F   F374      1.0  0.29864  0.30671  0.77585  1.0000
  F   F375      1.0  0.29880  0.80613  0.28773  1.0000
  F   F376      1.0  0.30587  0.79276  0.79398  1.0000
  F   F377      1.0  0.54861  0.30101  0.28866  1.0000
  F   F378      1.0  0.54531  0.28838  0.77973  1.0000
  F   F379      1.0  0.54575  0.79060  0.28975  1.0000
  F   F380      1.0  0.55530  0.79602  0.79256  1.0000
  F   F381      1.0  0.79750  0.29565  0.29339  1.0000
  F   F382      1.0  0.80446  0.29514  0.77878  1.0000
  F   F383      1.0  0.78538  0.78581  0.29757  1.0000
  F   F384      1.0  0.80271  0.79167  0.78068  1.0000
