data_image0
_chemical_formula_structural       Hf96F384
_chemical_formula_sum              "Hf96 F384"
_cell_length_a       31.0317
_cell_length_b       15.5182
_cell_length_c       15.5101
_cell_angle_alpha    63.342
_cell_angle_beta     63.342
_cell_angle_gamma    80.1625

_space_group_name_H-M_alt    "P 1"
_space_group_IT_number       1

loop_
  _space_group_symop_operation_xyz
  'x, y, z'

loop_
  _atom_site_type_symbol
  _atom_site_label
  _atom_site_symmetry_multiplicity
  _atom_site_fract_x
  _atom_site_fract_y
  _atom_site_fract_z
  _atom_site_occupancy
  Hf  Hf1       1.0  0.19626  0.10761  0.37395  1.0000
  Hf  Hf2       1.0  0.19642  0.10585  0.86496  1.0000
  Hf  Hf3       1.0  0.19554  0.60983  0.37413  1.0000
  Hf  Hf4       1.0  0.19604  0.60139  0.87563  1.0000
  Hf  Hf5       1.0  0.44493  0.10714  0.37217  1.0000
  Hf  Hf6       1.0  0.44293  0.10788  0.88005  1.0000
  Hf  Hf7       1.0  0.44496  0.60991  0.38046  1.0000
  Hf  Hf8       1.0  0.44756  0.61131  0.86487  1.0000
  Hf  Hf9       1.0  0.69356  0.10382  0.38593  1.0000
  Hf  Hf10      1.0  0.69679  0.10733  0.87749  1.0000
  Hf  Hf11      1.0  0.69706  0.60589  0.37262  1.0000
  Hf  Hf12      1.0  0.69541  0.60362  0.88212  1.0000
  Hf  Hf13      1.0  0.94773  0.10553  0.36381  1.0000
  Hf  Hf14      1.0  0.94889  0.11155  0.87464  1.0000
  Hf  Hf15      1.0  0.94813  0.60786  0.37797  1.0000
  Hf  Hf16      1.0  0.94950  0.61443  0.86391  1.0000
  Hf  Hf17      1.0  0.05408  0.38766  0.12865  1.0000
  Hf  Hf18      1.0  0.05301  0.39520  0.62690  1.0000
  Hf  Hf19      1.0  0.05400  0.89401  0.12538  1.0000
  Hf  Hf20      1.0  0.05364  0.88642  0.62684  1.0000
  Hf  Hf21      1.0  0.30300  0.39950  0.12354  1.0000
  Hf  Hf22      1.0  0.30432  0.39633  0.62287  1.0000
  Hf  Hf23      1.0  0.30357  0.89301  0.13366  1.0000
  Hf  Hf24      1.0  0.30227  0.88914  0.63146  1.0000
  Hf  Hf25      1.0  0.55431  0.38846  0.12650  1.0000
  Hf  Hf26      1.0  0.55335  0.39862  0.62057  1.0000
  Hf  Hf27      1.0  0.55737  0.88882  0.12575  1.0000
  Hf  Hf28      1.0  0.55386  0.88461  0.63211  1.0000
  Hf  Hf29      1.0  0.80139  0.38731  0.13520  1.0000
  Hf  Hf30      1.0  0.80199  0.39065  0.62696  1.0000
  Hf  Hf31      1.0  0.80873  0.89513  0.11921  1.0000
  Hf  Hf32      1.0  0.80426  0.88878  0.62529  1.0000
  Hf  Hf33      1.0  0.05819  0.18397  0.40840  1.0000
  Hf  Hf34      1.0  0.05473  0.17806  0.91881  1.0000
  Hf  Hf35      1.0  0.05435  0.69072  0.41367  1.0000
  Hf  Hf36      1.0  0.05781  0.67609  0.92074  1.0000
  Hf  Hf37      1.0  0.30322  0.19144  0.41297  1.0000
  Hf  Hf38      1.0  0.30287  0.18676  0.91091  1.0000
  Hf  Hf39      1.0  0.30688  0.67764  0.41075  1.0000
  Hf  Hf40      1.0  0.30572  0.67508  0.91393  1.0000
  Hf  Hf41      1.0  0.55593  0.17596  0.42318  1.0000
  Hf  Hf42      1.0  0.55566  0.17369  0.92106  1.0000
  Hf  Hf43      1.0  0.55988  0.68667  0.41835  1.0000
  Hf  Hf44      1.0  0.55872  0.67546  0.92254  1.0000
  Hf  Hf45      1.0  0.80696  0.18219  0.41386  1.0000
  Hf  Hf46      1.0  0.80827  0.18239  0.91481  1.0000
  Hf  Hf47      1.0  0.80344  0.67309  0.42149  1.0000
  Hf  Hf48      1.0  0.80766  0.67893  0.92086  1.0000
  Hf  Hf49      1.0  0.15628  0.38665  0.34007  1.0000
  Hf  Hf50      1.0  0.15569  0.38379  0.83923  1.0000
  Hf  Hf51      1.0  0.15919  0.89327  0.33290  1.0000
  Hf  Hf52      1.0  0.15904  0.88700  0.83332  1.0000
  Hf  Hf53      1.0  0.41472  0.38645  0.32775  1.0000
  Hf  Hf54      1.0  0.40394  0.39004  0.83484  1.0000
  Hf  Hf55      1.0  0.41299  0.89522  0.32634  1.0000
  Hf  Hf56      1.0  0.40853  0.88867  0.83639  1.0000
  Hf  Hf57      1.0  0.65532  0.38539  0.33872  1.0000
  Hf  Hf58      1.0  0.65772  0.38286  0.83882  1.0000
  Hf  Hf59      1.0  0.66219  0.88660  0.33140  1.0000
  Hf  Hf60      1.0  0.65834  0.88694  0.83633  1.0000
  Hf  Hf61      1.0  0.90994  0.39141  0.32452  1.0000
  Hf  Hf62      1.0  0.90988  0.39167  0.83260  1.0000
  Hf  Hf63      1.0  0.90810  0.88884  0.32370  1.0000
  Hf  Hf64      1.0  0.91357  0.89542  0.82188  1.0000
  Hf  Hf65      1.0  0.19355  0.31708  0.08709  1.0000
  Hf  Hf66      1.0  0.19320  0.32811  0.57944  1.0000
  Hf  Hf67      1.0  0.19439  0.82828  0.07341  1.0000
  Hf  Hf68      1.0  0.19369  0.82090  0.58044  1.0000
  Hf  Hf69      1.0  0.44375  0.31476  0.08578  1.0000
  Hf  Hf70      1.0  0.44811  0.32459  0.57695  1.0000
  Hf  Hf71      1.0  0.44688  0.81551  0.07620  1.0000
  Hf  Hf72      1.0  0.44052  0.81463  0.59131  1.0000
  Hf  Hf73      1.0  0.69307  0.31355  0.08714  1.0000
  Hf  Hf74      1.0  0.69156  0.31574  0.59400  1.0000
  Hf  Hf75      1.0  0.69873  0.82413  0.07659  1.0000
  Hf  Hf76      1.0  0.69549  0.81833  0.58836  1.0000
  Hf  Hf77      1.0  0.94414  0.31459  0.08727  1.0000
  Hf  Hf78      1.0  0.94519  0.31906  0.58390  1.0000
  Hf  Hf79      1.0  0.94339  0.82258  0.08144  1.0000
  Hf  Hf80      1.0  0.94111  0.82528  0.57965  1.0000
  Hf  Hf81      1.0  0.09542  0.11044  0.15899  1.0000
  Hf  Hf82      1.0  0.09052  0.11220  0.66678  1.0000
  Hf  Hf83      1.0  0.09053  0.61200  0.16879  1.0000
  Hf  Hf84      1.0  0.09200  0.60670  0.66396  1.0000
  Hf  Hf85      1.0  0.34041  0.11978  0.16192  1.0000
  Hf  Hf86      1.0  0.33944  0.11867  0.65830  1.0000
  Hf  Hf87      1.0  0.34256  0.61520  0.16101  1.0000
  Hf  Hf88      1.0  0.34078  0.60669  0.66843  1.0000
  Hf  Hf89      1.0  0.58823  0.09894  0.17918  1.0000
  Hf  Hf90      1.0  0.58704  0.10576  0.67413  1.0000
  Hf  Hf91      1.0  0.58411  0.60558  0.18213  1.0000
  Hf  Hf92      1.0  0.59276  0.60593  0.66768  1.0000
  Hf  Hf93      1.0  0.84070  0.11442  0.16663  1.0000
  Hf  Hf94      1.0  0.84232  0.12082  0.65902  1.0000
  Hf  Hf95      1.0  0.84529  0.61289  0.16242  1.0000
  Hf  Hf96      1.0  0.84020  0.60861  0.66822  1.0000
  F   F1        1.0  0.07850  0.12742  0.29691  1.0000
  F   F2        1.0  0.07910  0.12696  0.80523  1.0000
  F   F3        1.0  0.07481  0.64794  0.29606  1.0000
  F   F4        1.0  0.08128  0.63311  0.80126  1.0000
  F   F5        1.0  0.33348  0.13360  0.29797  1.0000
  F   F6        1.0  0.32617  0.13652  0.79613  1.0000
  F   F7        1.0  0.32948  0.60616  0.30653  1.0000
  F   F8        1.0  0.32573  0.61749  0.80400  1.0000
  F   F9        1.0  0.58603  0.13009  0.30208  1.0000
  F   F10       1.0  0.57256  0.11816  0.81871  1.0000
  F   F11       1.0  0.58180  0.62466  0.30291  1.0000
  F   F12       1.0  0.58198  0.65107  0.79323  1.0000
  F   F13       1.0  0.82475  0.11894  0.31499  1.0000
  F   F14       1.0  0.83364  0.12551  0.80173  1.0000
  F   F15       1.0  0.83065  0.62756  0.30431  1.0000
  F   F16       1.0  0.82953  0.62703  0.80824  1.0000
  F   F17       1.0  0.18209  0.33907  0.44890  1.0000
  F   F18       1.0  0.18963  0.34887  0.94085  1.0000
  F   F19       1.0  0.18707  0.84836  0.44222  1.0000
  F   F20       1.0  0.17463  0.82841  0.95896  1.0000
  F   F21       1.0  0.43478  0.32904  0.44662  1.0000
  F   F22       1.0  0.43605  0.34452  0.93889  1.0000
  F   F23       1.0  0.44685  0.84129  0.43191  1.0000
  F   F24       1.0  0.44027  0.84643  0.93228  1.0000
  F   F25       1.0  0.67802  0.32648  0.45428  1.0000
  F   F26       1.0  0.68227  0.34115  0.96092  1.0000
  F   F27       1.0  0.68930  0.84050  0.44947  1.0000
  F   F28       1.0  0.69118  0.84351  0.93842  1.0000
  F   F29       1.0  0.93971  0.34132  0.44730  1.0000
  F   F30       1.0  0.94479  0.34300  0.93857  1.0000
  F   F31       1.0  0.93048  0.83573  0.44010  1.0000
  F   F32       1.0  0.93483  0.83315  0.95367  1.0000
  F   F33       1.0  0.17022  0.37539  0.20334  1.0000
  F   F34       1.0  0.16878  0.38010  0.69901  1.0000
  F   F35       1.0  0.16872  0.87310  0.19638  1.0000
  F   F36       1.0  0.17201  0.87656  0.69538  1.0000
  F   F37       1.0  0.41790  0.36725  0.19250  1.0000
  F   F38       1.0  0.42020  0.36733  0.69100  1.0000
  F   F39       1.0  0.42581  0.87352  0.19629  1.0000
  F   F40       1.0  0.41251  0.86276  0.70364  1.0000
  F   F41       1.0  0.66690  0.36366  0.20660  1.0000
  F   F42       1.0  0.67076  0.38568  0.69528  1.0000
  F   F43       1.0  0.67458  0.87837  0.18666  1.0000
  F   F44       1.0  0.66858  0.87525  0.70156  1.0000
  F   F45       1.0  0.92626  0.38917  0.17949  1.0000
  F   F46       1.0  0.91971  0.38338  0.68446  1.0000
  F   F47       1.0  0.91521  0.88753  0.18949  1.0000
  F   F48       1.0  0.91877  0.86996  0.69738  1.0000
  F   F49       1.0  0.07041  0.15710  0.04580  1.0000
  F   F50       1.0  0.06210  0.15462  0.55356  1.0000
  F   F51       1.0  0.05876  0.66021  0.05800  1.0000
  F   F52       1.0  0.06247  0.66621  0.55620  1.0000
  F   F53       1.0  0.31331  0.16595  0.05076  1.0000
  F   F54       1.0  0.30712  0.15706  0.55506  1.0000
  F   F55       1.0  0.31098  0.64655  0.04399  1.0000
  F   F56       1.0  0.32487  0.66043  0.54227  1.0000
  F   F57       1.0  0.57139  0.15054  0.05736  1.0000
  F   F58       1.0  0.55458  0.14735  0.57692  1.0000
  F   F59       1.0  0.55625  0.65765  0.06758  1.0000
  F   F60       1.0  0.57013  0.64839  0.55646  1.0000
  F   F61       1.0  0.81457  0.17304  0.04950  1.0000
  F   F62       1.0  0.81397  0.16683  0.54936  1.0000
  F   F63       1.0  0.81848  0.66057  0.05190  1.0000
  F   F64       1.0  0.80838  0.63765  0.56868  1.0000
  F   F65       1.0  0.20775  0.20073  0.20823  1.0000
  F   F66       1.0  0.20352  0.20167  0.70662  1.0000
  F   F67       1.0  0.20660  0.72046  0.20121  1.0000
  F   F68       1.0  0.19927  0.70190  0.70669  1.0000
  F   F69       1.0  0.44628  0.19881  0.20766  1.0000
  F   F70       1.0  0.45752  0.20177  0.71710  1.0000
  F   F71       1.0  0.45232  0.70253  0.21316  1.0000
  F   F72       1.0  0.45533  0.69731  0.70010  1.0000
  F   F73       1.0  0.70384  0.19306  0.19192  1.0000
  F   F74       1.0  0.70200  0.20883  0.72310  1.0000
  F   F75       1.0  0.71014  0.70038  0.21477  1.0000
  F   F76       1.0  0.69490  0.70649  0.71441  1.0000
  F   F77       1.0  0.94307  0.19764  0.21005  1.0000
  F   F78       1.0  0.95296  0.19882  0.71705  1.0000
  F   F79       1.0  0.96053  0.70908  0.21089  1.0000
  F   F80       1.0  0.95175  0.70563  0.69792  1.0000
  F   F81       1.0  0.14847  0.07667  0.05247  1.0000
  F   F82       1.0  0.14989  0.10092  0.53651  1.0000
  F   F83       1.0  0.14672  0.60815  0.03635  1.0000
  F   F84       1.0  0.15117  0.58184  0.54256  1.0000
  F   F85       1.0  0.39959  0.08594  0.04038  1.0000
  F   F86       1.0  0.39876  0.11157  0.53371  1.0000
  F   F87       1.0  0.39625  0.59958  0.01937  1.0000
  F   F88       1.0  0.40495  0.58228  0.53645  1.0000
  F   F89       1.0  0.64879  0.07435  0.03776  1.0000
  F   F90       1.0  0.64362  0.11163  0.53852  1.0000
  F   F91       1.0  0.64166  0.63226  0.04350  1.0000
  F   F92       1.0  0.65190  0.57804  0.53245  1.0000
  F   F93       1.0  0.90322  0.10462  0.03830  1.0000
  F   F94       1.0  0.89972  0.10494  0.53256  1.0000
  F   F95       1.0  0.90597  0.60988  0.03521  1.0000
  F   F96       1.0  0.89435  0.59558  0.55088  1.0000
  F   F97       1.0  0.15676  0.19860  0.11438  1.0000
  F   F98       1.0  0.14719  0.19607  0.63432  1.0000
  F   F99       1.0  0.14810  0.69293  0.13635  1.0000
  F   F100      1.0  0.15058  0.68864  0.62040  1.0000
  F   F101      1.0  0.39555  0.20137  0.12056  1.0000
  F   F102      1.0  0.40210  0.20282  0.63596  1.0000
  F   F103      1.0  0.40509  0.68917  0.12158  1.0000
  F   F104      1.0  0.40139  0.69931  0.61877  1.0000
  F   F105      1.0  0.64499  0.18635  0.12183  1.0000
  F   F106      1.0  0.64959  0.19708  0.63502  1.0000
  F   F107      1.0  0.65191  0.71319  0.13648  1.0000
  F   F108      1.0  0.65234  0.68768  0.60720  1.0000
  F   F109      1.0  0.89608  0.21049  0.12544  1.0000
  F   F110      1.0  0.90664  0.20328  0.62139  1.0000
  F   F111      1.0  0.90641  0.69705  0.14445  1.0000
  F   F112      1.0  0.89507  0.70598  0.62178  1.0000
  F   F113      1.0  0.10593  0.29855  0.36963  1.0000
  F   F114      1.0  0.09500  0.30978  0.86874  1.0000
  F   F115      1.0  0.09470  0.80729  0.36356  1.0000
  F   F116      1.0  0.10008  0.80414  0.88144  1.0000
  F   F117      1.0  0.35679  0.30374  0.36675  1.0000
  F   F118      1.0  0.34573  0.31430  0.87378  1.0000
  F   F119      1.0  0.33878  0.80521  0.35775  1.0000
  F   F120      1.0  0.35070  0.81074  0.88437  1.0000
  F   F121      1.0  0.60108  0.29325  0.39795  1.0000
  F   F122      1.0  0.60232  0.30377  0.87575  1.0000
  F   F123      1.0  0.60578  0.80689  0.36753  1.0000
  F   F124      1.0  0.59769  0.79612  0.86837  1.0000
  F   F125      1.0  0.85761  0.29181  0.34738  1.0000
  F   F126      1.0  0.84872  0.30169  0.86461  1.0000
  F   F127      1.0  0.85195  0.79147  0.36947  1.0000
  F   F128      1.0  0.85333  0.81018  0.87510  1.0000
  F   F129      1.0  0.06353  0.24480  0.14109  1.0000
  F   F130      1.0  0.06740  0.25613  0.63184  1.0000
  F   F131      1.0  0.06876  0.75129  0.13503  1.0000
  F   F132      1.0  0.05735  0.74252  0.65687  1.0000
  F   F133      1.0  0.30440  0.24931  0.16819  1.0000
  F   F134      1.0  0.31176  0.25678  0.64232  1.0000
  F   F135      1.0  0.31755  0.74602  0.12557  1.0000
  F   F136      1.0  0.31495  0.75287  0.63557  1.0000
  F   F137      1.0  0.55963  0.24917  0.15738  1.0000
  F   F138      1.0  0.55611  0.24506  0.65088  1.0000
  F   F139      1.0  0.55877  0.74724  0.16612  1.0000
  F   F140      1.0  0.56099  0.74745  0.64527  1.0000
  F   F141      1.0  0.80139  0.24405  0.16469  1.0000
  F   F142      1.0  0.82495  0.25889  0.62166  1.0000
  F   F143      1.0  0.81205  0.74407  0.15518  1.0000
  F   F144      1.0  0.81303  0.74672  0.63709  1.0000
  F   F145      1.0  0.12603  0.37178  0.10552  1.0000
  F   F146      1.0  0.12591  0.38097  0.59160  1.0000
  F   F147      1.0  0.12711  0.88258  0.10351  1.0000
  F   F148      1.0  0.12513  0.86006  0.61167  1.0000
  F   F149      1.0  0.37251  0.36670  0.11275  1.0000
  F   F150      1.0  0.37343  0.38541  0.60274  1.0000
  F   F151      1.0  0.37342  0.84128  0.13153  1.0000
  F   F152      1.0  0.37704  0.87889  0.58828  1.0000
  F   F153      1.0  0.62308  0.35927  0.12438  1.0000
  F   F154      1.0  0.62458  0.37378  0.61164  1.0000
  F   F155      1.0  0.62518  0.88797  0.09641  1.0000
  F   F156      1.0  0.62405  0.84832  0.62372  1.0000
  F   F157      1.0  0.87378  0.37926  0.10430  1.0000
  F   F158      1.0  0.87524  0.38861  0.58906  1.0000
  F   F159      1.0  0.87313  0.86458  0.10894  1.0000
  F   F160      1.0  0.87678  0.88987  0.58767  1.0000
  F   F161      1.0  0.19122  0.24547  0.34621  1.0000
  F   F162      1.0  0.17791  0.24647  0.86723  1.0000
  F   F163      1.0  0.17313  0.75388  0.36360  1.0000
  F   F164      1.0  0.18499  0.73583  0.85135  1.0000
  F   F165      1.0  0.44353  0.24958  0.33122  1.0000
  F   F166      1.0  0.42722  0.24212  0.86934  1.0000
  F   F167      1.0  0.42590  0.74212  0.37394  1.0000
  F   F168      1.0  0.44000  0.75158  0.83224  1.0000
  F   F169      1.0  0.69853  0.24446  0.33797  1.0000
  F   F170      1.0  0.68585  0.24471  0.86868  1.0000
  F   F171      1.0  0.68651  0.74875  0.36173  1.0000
  F   F172      1.0  0.68185  0.74827  0.85529  1.0000
  F   F173      1.0  0.93853  0.25134  0.35535  1.0000
  F   F174      1.0  0.93132  0.25250  0.85857  1.0000
  F   F175      1.0  0.93342  0.74585  0.36136  1.0000
  F   F176      1.0  0.94015  0.75918  0.84186  1.0000
  F   F177      1.0  0.12593  0.13120  0.38314  1.0000
  F   F178      1.0  0.12556  0.13730  0.88493  1.0000
  F   F179      1.0  0.12067  0.62783  0.40369  1.0000
  F   F180      1.0  0.12422  0.61300  0.90666  1.0000
  F   F181      1.0  0.37781  0.12697  0.39686  1.0000
  F   F182      1.0  0.37031  0.13263  0.88873  1.0000
  F   F183      1.0  0.37522  0.62886  0.38021  1.0000
  F   F184      1.0  0.37355  0.63208  0.87591  1.0000
  F   F185      1.0  0.62618  0.12965  0.39877  1.0000
  F   F186      1.0  0.62584  0.12696  0.89198  1.0000
  F   F187      1.0  0.62715  0.64134  0.37609  1.0000
  F   F188      1.0  0.62260  0.60992  0.90982  1.0000
  F   F189      1.0  0.87742  0.12237  0.38705  1.0000
  F   F190      1.0  0.87683  0.11837  0.91107  1.0000
  F   F191      1.0  0.87428  0.60799  0.41551  1.0000
  F   F192      1.0  0.87707  0.63416  0.89302  1.0000
  F   F193      1.0  0.00778  0.35855  0.07227  1.0000
  F   F194      1.0  0.00658  0.36694  0.57561  1.0000
  F   F195      1.0  0.00704  0.86778  0.07352  1.0000
  F   F196      1.0  0.00622  0.86728  0.57471  1.0000
  F   F197      1.0  0.25455  0.36186  0.06979  1.0000
  F   F198      1.0  0.25363  0.36815  0.57016  1.0000
  F   F199      1.0  0.25646  0.86499  0.07887  1.0000
  F   F200      1.0  0.25934  0.85332  0.57960  1.0000
  F   F201      1.0  0.50378  0.35761  0.09143  1.0000
  F   F202      1.0  0.50916  0.36849  0.56700  1.0000
  F   F203      1.0  0.50567  0.86521  0.07245  1.0000
  F   F204      1.0  0.50576  0.85784  0.58078  1.0000
  F   F205      1.0  0.75489  0.37418  0.06727  1.0000
  F   F206      1.0  0.75380  0.35085  0.58627  1.0000
  F   F207      1.0  0.76055  0.86644  0.07428  1.0000
  F   F208      1.0  0.75398  0.84739  0.58973  1.0000
  F   F209      1.0  0.07076  0.48984  0.16564  1.0000
  F   F210      1.0  0.06896  0.48959  0.67006  1.0000
  F   F211      1.0  0.06109  0.98338  0.18876  1.0000
  F   F212      1.0  0.07007  0.97739  0.67228  1.0000
  F   F213      1.0  0.31912  0.48705  0.17967  1.0000
  F   F214      1.0  0.31337  0.49274  0.67849  1.0000
  F   F215      1.0  0.31877  0.97973  0.18209  1.0000
  F   F216      1.0  0.32151  0.99603  0.67149  1.0000
  F   F217      1.0  0.56858  0.48005  0.18386  1.0000
  F   F218      1.0  0.56707  0.47099  0.68808  1.0000
  F   F219      1.0  0.56442  0.97681  0.19357  1.0000
  F   F220      1.0  0.56834  0.97644  0.68870  1.0000
  F   F221      1.0  0.81971  0.49014  0.16757  1.0000
  F   F222      1.0  0.81249  0.47490  0.69240  1.0000
  F   F223      1.0  0.82837  0.99244  0.16069  1.0000
  F   F224      1.0  0.81135  0.99266  0.68823  1.0000
  F   F225      1.0  0.24215  0.12787  0.43325  1.0000
  F   F226      1.0  0.23858  0.13121  0.91813  1.0000
  F   F227      1.0  0.24471  0.63413  0.42488  1.0000
  F   F228      1.0  0.24445  0.65098  0.91402  1.0000
  F   F229      1.0  0.48983  0.12579  0.43923  1.0000
  F   F230      1.0  0.48515  0.15041  0.92992  1.0000
  F   F231      1.0  0.49987  0.63699  0.41959  1.0000
  F   F232      1.0  0.49695  0.64447  0.91206  1.0000
  F   F233      1.0  0.74136  0.13113  0.45302  1.0000
  F   F234      1.0  0.74521  0.14236  0.92195  1.0000
  F   F235      1.0  0.74050  0.64681  0.42830  1.0000
  F   F236      1.0  0.74365  0.64515  0.92673  1.0000
  F   F237      1.0  0.99530  0.14553  0.40649  1.0000
  F   F238      1.0  0.99134  0.13658  0.92741  1.0000
  F   F239      1.0  0.99093  0.63935  0.43713  1.0000
  F   F240      1.0  0.99242  0.63941  0.91998  1.0000
  F   F241      1.0  0.18639  0.01335  0.31892  1.0000
  F   F242      1.0  0.17653  0.01485  0.82406  1.0000
  F   F243      1.0  0.18153  0.52810  0.31815  1.0000
  F   F244      1.0  0.18627  0.51200  0.82057  1.0000
  F   F245      1.0  0.43750  0.01463  0.31417  1.0000
  F   F246      1.0  0.43286  0.01467  0.82322  1.0000
  F   F247      1.0  0.43396  0.51457  0.32750  1.0000
  F   F248      1.0  0.42830  0.51624  0.83435  1.0000
  F   F249      1.0  0.67721  0.01167  0.33058  1.0000
  F   F250      1.0  0.68009  0.01517  0.82913  1.0000
  F   F251      1.0  0.67849  0.50731  0.32544  1.0000
  F   F252      1.0  0.68055  0.50332  0.83462  1.0000
  F   F253      1.0  0.93498  0.00725  0.31945  1.0000
  F   F254      1.0  0.93771  0.00884  0.82463  1.0000
  F   F255      1.0  0.93329  0.51892  0.31740  1.0000
  F   F256      1.0  0.92444  0.52513  0.81222  1.0000
  F   F257      1.0  0.00340  0.25114  0.00688  1.0000
  F   F258      1.0  0.00173  0.24665  0.50407  1.0000
  F   F259      1.0  0.00261  0.76469  0.97991  1.0000
  F   F260      1.0  0.99706  0.76513  0.50017  1.0000
  F   F261      1.0  0.25030  0.25857  0.98919  1.0000
  F   F262      1.0  0.24607  0.26273  0.50076  1.0000
  F   F263      1.0  0.25294  0.77965  0.96518  1.0000
  F   F264      1.0  0.25129  0.74936  0.50093  1.0000
  F   F265      1.0  0.50427  0.24513  0.01419  1.0000
  F   F266      1.0  0.50165  0.25293  0.50035  1.0000
  F   F267      1.0  0.50008  0.75199  0.99147  1.0000
  F   F268      1.0  0.50913  0.75223  0.49684  1.0000
  F   F269      1.0  0.75195  0.26314  0.98884  1.0000
  F   F270      1.0  0.75034  0.28048  0.48820  1.0000
  F   F271      1.0  0.75391  0.75804  0.99361  1.0000
  F   F272      1.0  0.75350  0.75492  0.51079  1.0000
  F   F273      1.0  0.13189  0.01280  0.25393  1.0000
  F   F274      1.0  0.12284  0.00255  0.74982  1.0000
  F   F275      1.0  0.12494  0.50572  0.25865  1.0000
  F   F276      1.0  0.13131  0.50471  0.74242  1.0000
  F   F277      1.0  0.37904  0.01034  0.23507  1.0000
  F   F278      1.0  0.37015  0.00130  0.75559  1.0000
  F   F279      1.0  0.38560  0.49661  0.23730  1.0000
  F   F280      1.0  0.38199  0.49922  0.73036  1.0000
  F   F281      1.0  0.61904  0.98982  0.26586  1.0000
  F   F282      1.0  0.61797  0.99820  0.75901  1.0000
  F   F283      1.0  0.62410  0.50293  0.25242  1.0000
  F   F284      1.0  0.61895  0.49844  0.76249  1.0000
  F   F285      1.0  0.87998  0.01159  0.24165  1.0000
  F   F286      1.0  0.87993  0.00077  0.74608  1.0000
  F   F287      1.0  0.88150  0.50171  0.23698  1.0000
  F   F288      1.0  0.86732  0.48940  0.76973  1.0000
  F   F289      1.0  0.03758  0.03359  0.03425  1.0000
  F   F290      1.0  0.04920  0.02607  0.51002  1.0000
  F   F291      1.0  0.03768  0.52948  0.03589  1.0000
  F   F292      1.0  0.04343  0.53050  0.52525  1.0000
  F   F293      1.0  0.28575  0.03824  0.02433  1.0000
  F   F294      1.0  0.30289  0.02583  0.51829  1.0000
  F   F295      1.0  0.28509  0.51956  0.02064  1.0000
  F   F296      1.0  0.29089  0.53212  0.52853  1.0000
  F   F297      1.0  0.53731  0.02649  0.02779  1.0000
  F   F298      1.0  0.54757  0.02933  0.51589  1.0000
  F   F299      1.0  0.54083  0.53844  0.01928  1.0000
  F   F300      1.0  0.54151  0.53770  0.53419  1.0000
  F   F301      1.0  0.79864  0.03794  0.01724  1.0000
  F   F302      1.0  0.79288  0.02982  0.53501  1.0000
  F   F303      1.0  0.79599  0.52785  0.02595  1.0000
  F   F304      1.0  0.79662  0.51479  0.51218  1.0000
  F   F305      1.0  0.23507  0.42122  0.22681  1.0000
  F   F306      1.0  0.23232  0.42302  0.71698  1.0000
  F   F307      1.0  0.23444  0.91405  0.23031  1.0000
  F   F308      1.0  0.23853  0.90724  0.74533  1.0000
  F   F309      1.0  0.48881  0.41319  0.23218  1.0000
  F   F310      1.0  0.48266  0.41804  0.72459  1.0000
  F   F311      1.0  0.48945  0.91470  0.22003  1.0000
  F   F312      1.0  0.48052  0.91974  0.71505  1.0000
  F   F313      1.0  0.73013  0.43128  0.21689  1.0000
  F   F314      1.0  0.73188  0.40276  0.73383  1.0000
  F   F315      1.0  0.74019  0.91300  0.23408  1.0000
  F   F316      1.0  0.73449  0.91040  0.73037  1.0000
  F   F317      1.0  0.98945  0.41515  0.22321  1.0000
  F   F318      1.0  0.98680  0.40921  0.73633  1.0000
  F   F319      1.0  0.98452  0.90887  0.22040  1.0000
  F   F320      1.0  0.98522  0.90264  0.73151  1.0000
  F   F321      1.0  0.20711  0.47381  0.47746  1.0000
  F   F322      1.0  0.20007  0.47843  0.99707  1.0000
  F   F323      1.0  0.20363  0.97538  0.48861  1.0000
  F   F324      1.0  0.21045  0.96696  0.95653  1.0000
  F   F325      1.0  0.45738  0.47276  0.47365  1.0000
  F   F326      1.0  0.45879  0.46946  0.97117  1.0000
  F   F327      1.0  0.45536  0.97631  0.48044  1.0000
  F   F328      1.0  0.44838  0.96923  0.98789  1.0000
  F   F329      1.0  0.70676  0.45332  0.47394  1.0000
  F   F330      1.0  0.69831  0.47826  0.99639  1.0000
  F   F331      1.0  0.70351  0.97285  0.49119  1.0000
  F   F332      1.0  0.71449  0.97852  0.96479  1.0000
  F   F333      1.0  0.96520  0.47315  0.46953  1.0000
  F   F334      1.0  0.94634  0.47989  0.97247  1.0000
  F   F335      1.0  0.95695  0.97182  0.47400  1.0000
  F   F336      1.0  0.95401  0.97317  0.98545  1.0000
  F   F337      1.0  0.01275  0.10581  0.25157  1.0000
  F   F338      1.0  0.01659  0.07678  0.77336  1.0000
  F   F339      1.0  0.01688  0.58226  0.28240  1.0000
  F   F340      1.0  0.01152  0.57814  0.77381  1.0000
  F   F341      1.0  0.26816  0.08407  0.27213  1.0000
  F   F342      1.0  0.26475  0.08966  0.76886  1.0000
  F   F343      1.0  0.26299  0.58270  0.26602  1.0000
  F   F344      1.0  0.26304  0.60137  0.76105  1.0000
  F   F345      1.0  0.51267  0.08855  0.27662  1.0000
  F   F346      1.0  0.51251  0.06075  0.80621  1.0000
  F   F347      1.0  0.51343  0.56221  0.29527  1.0000
  F   F348      1.0  0.51822  0.57776  0.78081  1.0000
  F   F349      1.0  0.76278  0.07909  0.28116  1.0000
  F   F350      1.0  0.76788  0.10942  0.76656  1.0000
  F   F351      1.0  0.76158  0.56294  0.28980  1.0000
  F   F352      1.0  0.76180  0.58168  0.78692  1.0000
  F   F353      1.0  0.09850  0.41507  0.46046  1.0000
  F   F354      1.0  0.09763  0.40084  0.97548  1.0000
  F   F355      1.0  0.10145  0.90481  0.45862  1.0000
  F   F356      1.0  0.09767  0.91491  0.96768  1.0000
  F   F357      1.0  0.34807  0.41271  0.46814  1.0000
  F   F358      1.0  0.35118  0.41665  0.95728  1.0000
  F   F359      1.0  0.35747  0.89569  0.44914  1.0000
  F   F360      1.0  0.35246  0.91281  0.97317  1.0000
  F   F361      1.0  0.59476  0.41057  0.46770  1.0000
  F   F362      1.0  0.60132  0.41502  0.96670  1.0000
  F   F363      1.0  0.59876  0.89503  0.47872  1.0000
  F   F364      1.0  0.59743  0.89513  0.96844  1.0000
  F   F365      1.0  0.85135  0.38739  0.45176  1.0000
  F   F366      1.0  0.85276  0.37613  0.96730  1.0000
  F   F367      1.0  0.84237  0.90536  0.46356  1.0000
  F   F368      1.0  0.84986  0.91638  0.95885  1.0000
  F   F369      1.0  0.04890  0.29613  0.28245  1.0000
  F   F370      1.0  0.04746  0.30337  0.77975  1.0000
  F   F371      1.0  0.04165  0.79397  0.28725  1.0000
  F   F372      1.0  0.05301  0.79595  0.78765  1.0000
  F   F373      1.0  0.29205  0.31266  0.29871  1.0000
  F   F374      1.0  0.29565  0.30768  0.78368  1.0000
  F   F375      1.0  0.28779  0.78874  0.28428  1.0000
  F   F376      1.0  0.30694  0.80180  0.77312  1.0000
  F   F377      1.0  0.55105  0.29739  0.29279  1.0000
  F   F378      1.0  0.54414  0.28600  0.80346  1.0000
  F   F379      1.0  0.55100  0.79917  0.29114  1.0000
  F   F380      1.0  0.53863  0.80073  0.79270  1.0000
  F   F381      1.0  0.79276  0.29641  0.28802  1.0000
  F   F382      1.0  0.79354  0.28028  0.78291  1.0000
  F   F383      1.0  0.79822  0.79932  0.28722  1.0000
  F   F384      1.0  0.80388  0.80779  0.77175  1.0000
