data_image0
_chemical_formula_structural       Hf96F384
_chemical_formula_sum              "Hf96 F384"
_cell_length_a       31.0122
_cell_length_b       15.5038
_cell_length_c       15.4947
_cell_angle_alpha    63.342
_cell_angle_beta     63.342
_cell_angle_gamma    80.1625

_space_group_name_H-M_alt    "P 1"
_space_group_IT_number       1

loop_
  _space_group_symop_operation_xyz
  'x, y, z'

loop_
  _atom_site_type_symbol
  _atom_site_label
  _atom_site_symmetry_multiplicity
  _atom_site_fract_x
  _atom_site_fract_y
  _atom_site_fract_z
  _atom_site_occupancy
  Hf  Hf1       1.0  0.19562  0.10154  0.38180  1.0000
  Hf  Hf2       1.0  0.19437  0.10810  0.87853  1.0000
  Hf  Hf3       1.0  0.19624  0.60976  0.36668  1.0000
  Hf  Hf4       1.0  0.19294  0.59292  0.89240  1.0000
  Hf  Hf5       1.0  0.44483  0.11454  0.36569  1.0000
  Hf  Hf6       1.0  0.44720  0.11712  0.87025  1.0000
  Hf  Hf7       1.0  0.44750  0.61308  0.36878  1.0000
  Hf  Hf8       1.0  0.44602  0.60939  0.87439  1.0000
  Hf  Hf9       1.0  0.69857  0.10766  0.36681  1.0000
  Hf  Hf10      1.0  0.69454  0.11368  0.88052  1.0000
  Hf  Hf11      1.0  0.69750  0.60422  0.38400  1.0000
  Hf  Hf12      1.0  0.69564  0.61115  0.87306  1.0000
  Hf  Hf13      1.0  0.94385  0.11085  0.36887  1.0000
  Hf  Hf14      1.0  0.94526  0.10302  0.88011  1.0000
  Hf  Hf15      1.0  0.94701  0.60362  0.38058  1.0000
  Hf  Hf16      1.0  0.94573  0.60487  0.87335  1.0000
  Hf  Hf17      1.0  0.05627  0.39368  0.11922  1.0000
  Hf  Hf18      1.0  0.05025  0.38642  0.63546  1.0000
  Hf  Hf19      1.0  0.05069  0.88821  0.12467  1.0000
  Hf  Hf20      1.0  0.05526  0.88712  0.62538  1.0000
  Hf  Hf21      1.0  0.30354  0.39348  0.12862  1.0000
  Hf  Hf22      1.0  0.30469  0.38347  0.63250  1.0000
  Hf  Hf23      1.0  0.30467  0.88916  0.12535  1.0000
  Hf  Hf24      1.0  0.30329  0.89345  0.62346  1.0000
  Hf  Hf25      1.0  0.55393  0.39571  0.11967  1.0000
  Hf  Hf26      1.0  0.55351  0.39729  0.62402  1.0000
  Hf  Hf27      1.0  0.55483  0.89166  0.12532  1.0000
  Hf  Hf28      1.0  0.55417  0.89928  0.61638  1.0000
  Hf  Hf29      1.0  0.80207  0.39553  0.13212  1.0000
  Hf  Hf30      1.0  0.80363  0.39164  0.62726  1.0000
  Hf  Hf31      1.0  0.80541  0.89517  0.11864  1.0000
  Hf  Hf32      1.0  0.80219  0.89819  0.62056  1.0000
  Hf  Hf33      1.0  0.05411  0.18023  0.41336  1.0000
  Hf  Hf34      1.0  0.05579  0.17878  0.92037  1.0000
  Hf  Hf35      1.0  0.05816  0.68449  0.41265  1.0000
  Hf  Hf36      1.0  0.05575  0.68056  0.91084  1.0000
  Hf  Hf37      1.0  0.30524  0.18614  0.41419  1.0000
  Hf  Hf38      1.0  0.30563  0.17904  0.91607  1.0000
  Hf  Hf39      1.0  0.30651  0.67595  0.41098  1.0000
  Hf  Hf40      1.0  0.30570  0.67651  0.91875  1.0000
  Hf  Hf41      1.0  0.55496  0.18558  0.41316  1.0000
  Hf  Hf42      1.0  0.55602  0.18353  0.91771  1.0000
  Hf  Hf43      1.0  0.55744  0.68412  0.41660  1.0000
  Hf  Hf44      1.0  0.55777  0.69363  0.90897  1.0000
  Hf  Hf45      1.0  0.80197  0.18876  0.42129  1.0000
  Hf  Hf46      1.0  0.80269  0.18233  0.92506  1.0000
  Hf  Hf47      1.0  0.80729  0.67312  0.42135  1.0000
  Hf  Hf48      1.0  0.80606  0.68750  0.91604  1.0000
  Hf  Hf49      1.0  0.15483  0.38300  0.33835  1.0000
  Hf  Hf50      1.0  0.16041  0.38382  0.83441  1.0000
  Hf  Hf51      1.0  0.16143  0.88941  0.33191  1.0000
  Hf  Hf52      1.0  0.15848  0.88289  0.83022  1.0000
  Hf  Hf53      1.0  0.40760  0.39206  0.33179  1.0000
  Hf  Hf54      1.0  0.40874  0.39719  0.82764  1.0000
  Hf  Hf55      1.0  0.40577  0.88698  0.33278  1.0000
  Hf  Hf56      1.0  0.40828  0.88538  0.83074  1.0000
  Hf  Hf57      1.0  0.65850  0.38646  0.34465  1.0000
  Hf  Hf58      1.0  0.65654  0.39039  0.83115  1.0000
  Hf  Hf59      1.0  0.65968  0.89108  0.33074  1.0000
  Hf  Hf60      1.0  0.65971  0.89134  0.83354  1.0000
  Hf  Hf61      1.0  0.91122  0.38780  0.33275  1.0000
  Hf  Hf62      1.0  0.90775  0.39131  0.83736  1.0000
  Hf  Hf63      1.0  0.90813  0.88686  0.33368  1.0000
  Hf  Hf64      1.0  0.91443  0.89313  0.82477  1.0000
  Hf  Hf65      1.0  0.19363  0.30610  0.09232  1.0000
  Hf  Hf66      1.0  0.19377  0.31721  0.58350  1.0000
  Hf  Hf67      1.0  0.19400  0.82152  0.07753  1.0000
  Hf  Hf68      1.0  0.19429  0.80408  0.59124  1.0000
  Hf  Hf69      1.0  0.44514  0.32463  0.07694  1.0000
  Hf  Hf70      1.0  0.44964  0.32326  0.57108  1.0000
  Hf  Hf71      1.0  0.44661  0.82661  0.07391  1.0000
  Hf  Hf72      1.0  0.44702  0.82055  0.57855  1.0000
  Hf  Hf73      1.0  0.69109  0.32572  0.08554  1.0000
  Hf  Hf74      1.0  0.69333  0.31748  0.59302  1.0000
  Hf  Hf75      1.0  0.69572  0.82078  0.07518  1.0000
  Hf  Hf76      1.0  0.69452  0.81836  0.58049  1.0000
  Hf  Hf77      1.0  0.94496  0.31397  0.08145  1.0000
  Hf  Hf78      1.0  0.94513  0.30429  0.59367  1.0000
  Hf  Hf79      1.0  0.94011  0.81642  0.09074  1.0000
  Hf  Hf80      1.0  0.94672  0.81251  0.58236  1.0000
  Hf  Hf81      1.0  0.08745  0.10573  0.17290  1.0000
  Hf  Hf82      1.0  0.09025  0.10592  0.66774  1.0000
  Hf  Hf83      1.0  0.08949  0.60338  0.17142  1.0000
  Hf  Hf84      1.0  0.08890  0.60256  0.66678  1.0000
  Hf  Hf85      1.0  0.33816  0.11741  0.16326  1.0000
  Hf  Hf86      1.0  0.34546  0.11292  0.65964  1.0000
  Hf  Hf87      1.0  0.34421  0.61743  0.15977  1.0000
  Hf  Hf88      1.0  0.33880  0.61605  0.66440  1.0000
  Hf  Hf89      1.0  0.59051  0.11126  0.17462  1.0000
  Hf  Hf90      1.0  0.59189  0.11542  0.65977  1.0000
  Hf  Hf91      1.0  0.59307  0.60790  0.16563  1.0000
  Hf  Hf92      1.0  0.58775  0.61250  0.67193  1.0000
  Hf  Hf93      1.0  0.84034  0.11221  0.17005  1.0000
  Hf  Hf94      1.0  0.84209  0.11034  0.67181  1.0000
  Hf  Hf95      1.0  0.84254  0.61366  0.16707  1.0000
  Hf  Hf96      1.0  0.84230  0.61549  0.66899  1.0000
  F   F1        1.0  0.07249  0.10766  0.31017  1.0000
  F   F2        1.0  0.07446  0.12504  0.80634  1.0000
  F   F3        1.0  0.08152  0.62078  0.30462  1.0000
  F   F4        1.0  0.07718  0.63325  0.79494  1.0000
  F   F5        1.0  0.32690  0.13737  0.30021  1.0000
  F   F6        1.0  0.32731  0.11664  0.81000  1.0000
  F   F7        1.0  0.32520  0.61877  0.30618  1.0000
  F   F8        1.0  0.32999  0.61094  0.81431  1.0000
  F   F9        1.0  0.57692  0.12031  0.31852  1.0000
  F   F10       1.0  0.58007  0.14134  0.79472  1.0000
  F   F11       1.0  0.58761  0.63449  0.30025  1.0000
  F   F12       1.0  0.57618  0.64127  0.79937  1.0000
  F   F13       1.0  0.83417  0.13729  0.29591  1.0000
  F   F14       1.0  0.83046  0.11329  0.81705  1.0000
  F   F15       1.0  0.82858  0.60604  0.31918  1.0000
  F   F16       1.0  0.82579  0.62519  0.80949  1.0000
  F   F17       1.0  0.18794  0.33671  0.44687  1.0000
  F   F18       1.0  0.18269  0.32413  0.95693  1.0000
  F   F19       1.0  0.18492  0.84433  0.44993  1.0000
  F   F20       1.0  0.19124  0.85099  0.93186  1.0000
  F   F21       1.0  0.43774  0.34237  0.43649  1.0000
  F   F22       1.0  0.43140  0.33846  0.94827  1.0000
  F   F23       1.0  0.43973  0.84482  0.43590  1.0000
  F   F24       1.0  0.43976  0.84311  0.93972  1.0000
  F   F25       1.0  0.68192  0.34274  0.45287  1.0000
  F   F26       1.0  0.68247  0.34387  0.95634  1.0000
  F   F27       1.0  0.68383  0.83560  0.45032  1.0000
  F   F28       1.0  0.69252  0.85271  0.93898  1.0000
  F   F29       1.0  0.93763  0.33720  0.45002  1.0000
  F   F30       1.0  0.94122  0.33801  0.94509  1.0000
  F   F31       1.0  0.94241  0.84624  0.44099  1.0000
  F   F32       1.0  0.93383  0.83594  0.95816  1.0000
  F   F33       1.0  0.17128  0.36735  0.20215  1.0000
  F   F34       1.0  0.17125  0.38596  0.68545  1.0000
  F   F35       1.0  0.16945  0.86430  0.19561  1.0000
  F   F36       1.0  0.17612  0.86675  0.68735  1.0000
  F   F37       1.0  0.41688  0.36414  0.20032  1.0000
  F   F38       1.0  0.42357  0.37017  0.68737  1.0000
  F   F39       1.0  0.42072  0.88553  0.19391  1.0000
  F   F40       1.0  0.41969  0.86247  0.70161  1.0000
  F   F41       1.0  0.67308  0.36820  0.20013  1.0000
  F   F42       1.0  0.67112  0.38296  0.69708  1.0000
  F   F43       1.0  0.67212  0.86523  0.20256  1.0000
  F   F44       1.0  0.67451  0.88103  0.68405  1.0000
  F   F45       1.0  0.91909  0.37171  0.19544  1.0000
  F   F46       1.0  0.92286  0.36998  0.70164  1.0000
  F   F47       1.0  0.92134  0.87590  0.19862  1.0000
  F   F48       1.0  0.92331  0.86602  0.69600  1.0000
  F   F49       1.0  0.05895  0.15572  0.06354  1.0000
  F   F50       1.0  0.06188  0.15303  0.56407  1.0000
  F   F51       1.0  0.06915  0.66017  0.04830  1.0000
  F   F52       1.0  0.06567  0.64685  0.55079  1.0000
  F   F53       1.0  0.30612  0.14901  0.05508  1.0000
  F   F54       1.0  0.31168  0.14722  0.55962  1.0000
  F   F55       1.0  0.31703  0.66322  0.04955  1.0000
  F   F56       1.0  0.31699  0.65253  0.55166  1.0000
  F   F57       1.0  0.57329  0.17894  0.03672  1.0000
  F   F58       1.0  0.56030  0.16292  0.55236  1.0000
  F   F59       1.0  0.57019  0.66332  0.03907  1.0000
  F   F60       1.0  0.56214  0.66217  0.55417  1.0000
  F   F61       1.0  0.82021  0.17064  0.04787  1.0000
  F   F62       1.0  0.80465  0.16008  0.56217  1.0000
  F   F63       1.0  0.82420  0.67189  0.03667  1.0000
  F   F64       1.0  0.81677  0.66227  0.54890  1.0000
  F   F65       1.0  0.21625  0.19901  0.21717  1.0000
  F   F66       1.0  0.20044  0.20301  0.71497  1.0000
  F   F67       1.0  0.20189  0.70590  0.21278  1.0000
  F   F68       1.0  0.19989  0.69424  0.72802  1.0000
  F   F69       1.0  0.46103  0.20496  0.20976  1.0000
  F   F70       1.0  0.45435  0.21074  0.70615  1.0000
  F   F71       1.0  0.45600  0.71178  0.19580  1.0000
  F   F72       1.0  0.45607  0.70645  0.71490  1.0000
  F   F73       1.0  0.70498  0.19376  0.21800  1.0000
  F   F74       1.0  0.70476  0.20837  0.72378  1.0000
  F   F75       1.0  0.69972  0.70711  0.19463  1.0000
  F   F76       1.0  0.70524  0.69813  0.70551  1.0000
  F   F77       1.0  0.94128  0.19541  0.21771  1.0000
  F   F78       1.0  0.95766  0.19672  0.70915  1.0000
  F   F79       1.0  0.95119  0.69966  0.20955  1.0000
  F   F80       1.0  0.95732  0.69828  0.70101  1.0000
  F   F81       1.0  0.14517  0.10603  0.03488  1.0000
  F   F82       1.0  0.14669  0.09629  0.53823  1.0000
  F   F83       1.0  0.14537  0.57476  0.05284  1.0000
  F   F84       1.0  0.14467  0.60256  0.53814  1.0000
  F   F85       1.0  0.39644  0.10077  0.03941  1.0000
  F   F86       1.0  0.40376  0.08305  0.53861  1.0000
  F   F87       1.0  0.40050  0.57989  0.05001  1.0000
  F   F88       1.0  0.40767  0.59815  0.52087  1.0000
  F   F89       1.0  0.64873  0.10204  0.04269  1.0000
  F   F90       1.0  0.65075  0.10591  0.53642  1.0000
  F   F91       1.0  0.64655  0.58245  0.03538  1.0000
  F   F92       1.0  0.65587  0.57581  0.54944  1.0000
  F   F93       1.0  0.90133  0.07968  0.04169  1.0000
  F   F94       1.0  0.89764  0.09633  0.54097  1.0000
  F   F95       1.0  0.90222  0.60834  0.03425  1.0000
  F   F96       1.0  0.90433  0.60635  0.53872  1.0000
  F   F97       1.0  0.15650  0.18858  0.14755  1.0000
  F   F98       1.0  0.14718  0.19898  0.63463  1.0000
  F   F99       1.0  0.15002  0.69710  0.11797  1.0000
  F   F100      1.0  0.15167  0.68626  0.63518  1.0000
  F   F101      1.0  0.39792  0.20673  0.13038  1.0000
  F   F102      1.0  0.40565  0.19018  0.61636  1.0000
  F   F103      1.0  0.40467  0.70237  0.11020  1.0000
  F   F104      1.0  0.39866  0.69676  0.63597  1.0000
  F   F105      1.0  0.64911  0.20215  0.14729  1.0000
  F   F106      1.0  0.65505  0.19630  0.64089  1.0000
  F   F107      1.0  0.65517  0.68526  0.10931  1.0000
  F   F108      1.0  0.65387  0.68832  0.62898  1.0000
  F   F109      1.0  0.89942  0.20097  0.10628  1.0000
  F   F110      1.0  0.90402  0.18377  0.63774  1.0000
  F   F111      1.0  0.89556  0.70679  0.13769  1.0000
  F   F112      1.0  0.89631  0.70006  0.64132  1.0000
  F   F113      1.0  0.09572  0.29944  0.37441  1.0000
  F   F114      1.0  0.10064  0.29343  0.88794  1.0000
  F   F115      1.0  0.09916  0.81121  0.37919  1.0000
  F   F116      1.0  0.10250  0.80511  0.85490  1.0000
  F   F117      1.0  0.34091  0.30768  0.37391  1.0000
  F   F118      1.0  0.34782  0.32084  0.86916  1.0000
  F   F119      1.0  0.34606  0.79916  0.38233  1.0000
  F   F120      1.0  0.34299  0.79833  0.87866  1.0000
  F   F121      1.0  0.59708  0.30918  0.37445  1.0000
  F   F122      1.0  0.60005  0.29863  0.86730  1.0000
  F   F123      1.0  0.60045  0.80357  0.38668  1.0000
  F   F124      1.0  0.60327  0.81324  0.85634  1.0000
  F   F125      1.0  0.84596  0.31030  0.38519  1.0000
  F   F126      1.0  0.84861  0.31226  0.86957  1.0000
  F   F127      1.0  0.85220  0.79203  0.37177  1.0000
  F   F128      1.0  0.85173  0.81840  0.87909  1.0000
  F   F129      1.0  0.07270  0.25305  0.12886  1.0000
  F   F130      1.0  0.05523  0.24315  0.66063  1.0000
  F   F131      1.0  0.06389  0.74328  0.14868  1.0000
  F   F132      1.0  0.06682  0.74621  0.64060  1.0000
  F   F133      1.0  0.31546  0.25410  0.13580  1.0000
  F   F134      1.0  0.31615  0.24649  0.64332  1.0000
  F   F135      1.0  0.31670  0.75226  0.14366  1.0000
  F   F136      1.0  0.30934  0.74439  0.64549  1.0000
  F   F137      1.0  0.56279  0.24768  0.14987  1.0000
  F   F138      1.0  0.56450  0.25627  0.64026  1.0000
  F   F139      1.0  0.55938  0.74820  0.14929  1.0000
  F   F140      1.0  0.56374  0.75933  0.62804  1.0000
  F   F141      1.0  0.80814  0.26213  0.15310  1.0000
  F   F142      1.0  0.82832  0.24659  0.62940  1.0000
  F   F143      1.0  0.81815  0.74613  0.14659  1.0000
  F   F144      1.0  0.81135  0.75289  0.64826  1.0000
  F   F145      1.0  0.12416  0.37552  0.11507  1.0000
  F   F146      1.0  0.12220  0.36394  0.61745  1.0000
  F   F147      1.0  0.12616  0.88769  0.08477  1.0000
  F   F148      1.0  0.12648  0.86777  0.61037  1.0000
  F   F149      1.0  0.37747  0.38312  0.09474  1.0000
  F   F150      1.0  0.37834  0.35882  0.60519  1.0000
  F   F151      1.0  0.37611  0.86460  0.11423  1.0000
  F   F152      1.0  0.37654  0.85692  0.61219  1.0000
  F   F153      1.0  0.62236  0.37010  0.10934  1.0000
  F   F154      1.0  0.62363  0.38221  0.61516  1.0000
  F   F155      1.0  0.62494  0.85203  0.11569  1.0000
  F   F156      1.0  0.62706  0.86949  0.59681  1.0000
  F   F157      1.0  0.87653  0.36164  0.11339  1.0000
  F   F158      1.0  0.87527  0.35541  0.62526  1.0000
  F   F159      1.0  0.87221  0.87510  0.11374  1.0000
  F   F160      1.0  0.87513  0.87277  0.60694  1.0000
  F   F161      1.0  0.17569  0.24002  0.38182  1.0000
  F   F162      1.0  0.18681  0.24972  0.84912  1.0000
  F   F163      1.0  0.18834  0.76022  0.35172  1.0000
  F   F164      1.0  0.17753  0.74177  0.87965  1.0000
  F   F165      1.0  0.42664  0.24528  0.36692  1.0000
  F   F166      1.0  0.43765  0.25782  0.85384  1.0000
  F   F167      1.0  0.43396  0.75270  0.34739  1.0000
  F   F168      1.0  0.42850  0.74110  0.87904  1.0000
  F   F169      1.0  0.68854  0.25270  0.36029  1.0000
  F   F170      1.0  0.68047  0.25029  0.87264  1.0000
  F   F171      1.0  0.68918  0.75041  0.34908  1.0000
  F   F172      1.0  0.68116  0.75075  0.86319  1.0000
  F   F173      1.0  0.93801  0.25438  0.35084  1.0000
  F   F174      1.0  0.93652  0.24957  0.85900  1.0000
  F   F175      1.0  0.93584  0.75129  0.34859  1.0000
  F   F176      1.0  0.94338  0.74768  0.85257  1.0000
  F   F177      1.0  0.12451  0.13906  0.38100  1.0000
  F   F178      1.0  0.12140  0.13092  0.89445  1.0000
  F   F179      1.0  0.12484  0.63040  0.39448  1.0000
  F   F180      1.0  0.12584  0.62311  0.89081  1.0000
  F   F181      1.0  0.37516  0.13135  0.38769  1.0000
  F   F182      1.0  0.37357  0.12820  0.89683  1.0000
  F   F183      1.0  0.37848  0.64354  0.36290  1.0000
  F   F184      1.0  0.37279  0.62292  0.90528  1.0000
  F   F185      1.0  0.62618  0.12166  0.39897  1.0000
  F   F186      1.0  0.62752  0.12766  0.89290  1.0000
  F   F187      1.0  0.62956  0.63361  0.39844  1.0000
  F   F188      1.0  0.62873  0.64112  0.87833  1.0000
  F   F189      1.0  0.87037  0.12986  0.41337  1.0000
  F   F190      1.0  0.87740  0.14877  0.87424  1.0000
  F   F191      1.0  0.87395  0.62652  0.39835  1.0000
  F   F192      1.0  0.87595  0.64170  0.87814  1.0000
  F   F193      1.0  0.00822  0.35122  0.08194  1.0000
  F   F194      1.0  0.01201  0.35783  0.56746  1.0000
  F   F195      1.0  0.00982  0.84728  0.07749  1.0000
  F   F196      1.0  0.00987  0.85648  0.56806  1.0000
  F   F197      1.0  0.25779  0.35607  0.08515  1.0000
  F   F198      1.0  0.25868  0.36222  0.57202  1.0000
  F   F199      1.0  0.25590  0.84895  0.08421  1.0000
  F   F200      1.0  0.25819  0.86167  0.57599  1.0000
  F   F201      1.0  0.50717  0.36899  0.06768  1.0000
  F   F202      1.0  0.50791  0.36780  0.57371  1.0000
  F   F203      1.0  0.51126  0.87900  0.06140  1.0000
  F   F204      1.0  0.50703  0.88136  0.55759  1.0000
  F   F205      1.0  0.76012  0.37073  0.07232  1.0000
  F   F206      1.0  0.75784  0.33840  0.59290  1.0000
  F   F207      1.0  0.76171  0.87204  0.06111  1.0000
  F   F208      1.0  0.75698  0.88029  0.56379  1.0000
  F   F209      1.0  0.06095  0.47719  0.18968  1.0000
  F   F210      1.0  0.06657  0.47615  0.68423  1.0000
  F   F211      1.0  0.06767  0.98185  0.18099  1.0000
  F   F212      1.0  0.06946  0.96609  0.68851  1.0000
  F   F213      1.0  0.31569  0.48877  0.19204  1.0000
  F   F214      1.0  0.32207  0.48910  0.66192  1.0000
  F   F215      1.0  0.32799  0.98086  0.16040  1.0000
  F   F216      1.0  0.32316  0.98489  0.66206  1.0000
  F   F217      1.0  0.56235  0.48399  0.18061  1.0000
  F   F218      1.0  0.56681  0.48784  0.67773  1.0000
  F   F219      1.0  0.57376  0.98965  0.16375  1.0000
  F   F220      1.0  0.56954  0.99671  0.66703  1.0000
  F   F221      1.0  0.81854  0.49484  0.16905  1.0000
  F   F222      1.0  0.82631  0.49389  0.65358  1.0000
  F   F223      1.0  0.81548  0.98950  0.16538  1.0000
  F   F224      1.0  0.81834  0.99540  0.66171  1.0000
  F   F225      1.0  0.23951  0.13384  0.43829  1.0000
  F   F226      1.0  0.24161  0.12833  0.94149  1.0000
  F   F227      1.0  0.24229  0.62731  0.42400  1.0000
  F   F228      1.0  0.24036  0.63139  0.92895  1.0000
  F   F229      1.0  0.49552  0.14992  0.41084  1.0000
  F   F230      1.0  0.49230  0.14662  0.92336  1.0000
  F   F231      1.0  0.49755  0.64476  0.41492  1.0000
  F   F232      1.0  0.49300  0.62836  0.93416  1.0000
  F   F233      1.0  0.74260  0.13770  0.41527  1.0000
  F   F234      1.0  0.74317  0.15446  0.90792  1.0000
  F   F235      1.0  0.74316  0.63745  0.42714  1.0000
  F   F236      1.0  0.74167  0.65321  0.91186  1.0000
  F   F237      1.0  0.99085  0.13630  0.42798  1.0000
  F   F238      1.0  0.98846  0.13706  0.93216  1.0000
  F   F239      1.0  0.99469  0.62998  0.43496  1.0000
  F   F240      1.0  0.99437  0.61987  0.93708  1.0000
  F   F241      1.0  0.18140  0.01832  0.32709  1.0000
  F   F242      1.0  0.18396  0.02675  0.82412  1.0000
  F   F243      1.0  0.17524  0.51516  0.33344  1.0000
  F   F244      1.0  0.18386  0.50677  0.82574  1.0000
  F   F245      1.0  0.43195  0.02022  0.31113  1.0000
  F   F246      1.0  0.42555  0.01235  0.82295  1.0000
  F   F247      1.0  0.42844  0.50987  0.33459  1.0000
  F   F248      1.0  0.42932  0.51611  0.83162  1.0000
  F   F249      1.0  0.68103  0.00914  0.32462  1.0000
  F   F250      1.0  0.69153  0.01649  0.81739  1.0000
  F   F251      1.0  0.67958  0.51563  0.33195  1.0000
  F   F252      1.0  0.67854  0.51165  0.82769  1.0000
  F   F253      1.0  0.92840  0.01224  0.32236  1.0000
  F   F254      1.0  0.93733  0.01720  0.80978  1.0000
  F   F255      1.0  0.92592  0.51535  0.33271  1.0000
  F   F256      1.0  0.93415  0.52756  0.80453  1.0000
  F   F257      1.0  0.00084  0.24926  0.00383  1.0000
  F   F258      1.0  0.99910  0.24501  0.50117  1.0000
  F   F259      1.0  0.99841  0.74585  0.00675  1.0000
  F   F260      1.0  0.00169  0.74299  0.50299  1.0000
  F   F261      1.0  0.25040  0.25613  0.00151  1.0000
  F   F262      1.0  0.25146  0.25224  0.50406  1.0000
  F   F263      1.0  0.24350  0.73963  0.01181  1.0000
  F   F264      1.0  0.25298  0.74890  0.50150  1.0000
  F   F265      1.0  0.49764  0.24716  0.00241  1.0000
  F   F266      1.0  0.49880  0.25000  0.49060  1.0000
  F   F267      1.0  0.50385  0.76097  0.99212  1.0000
  F   F268      1.0  0.49905  0.75235  0.50192  1.0000
  F   F269      1.0  0.74343  0.24201  0.01679  1.0000
  F   F270      1.0  0.74658  0.25425  0.50468  1.0000
  F   F271      1.0  0.75653  0.75903  0.99308  1.0000
  F   F272      1.0  0.75296  0.75408  0.50308  1.0000
  F   F273      1.0  0.13470  0.00917  0.22772  1.0000
  F   F274      1.0  0.13490  0.00181  0.73864  1.0000
  F   F275      1.0  0.11458  0.48960  0.26372  1.0000
  F   F276      1.0  0.12022  0.49446  0.75677  1.0000
  F   F277      1.0  0.37017  0.00792  0.25370  1.0000
  F   F278      1.0  0.37255  0.99545  0.75164  1.0000
  F   F279      1.0  0.38500  0.51055  0.23510  1.0000
  F   F280      1.0  0.38210  0.50363  0.73534  1.0000
  F   F281      1.0  0.63225  0.00284  0.23480  1.0000
  F   F282      1.0  0.62987  0.99943  0.75076  1.0000
  F   F283      1.0  0.62723  0.49514  0.24450  1.0000
  F   F284      1.0  0.61573  0.49736  0.76812  1.0000
  F   F285      1.0  0.86935  0.98806  0.26194  1.0000
  F   F286      1.0  0.88046  0.99736  0.74318  1.0000
  F   F287      1.0  0.87816  0.49695  0.23827  1.0000
  F   F288      1.0  0.87055  0.49454  0.76043  1.0000
  F   F289      1.0  0.04175  0.02288  0.03032  1.0000
  F   F290      1.0  0.04196  0.03302  0.53034  1.0000
  F   F291      1.0  0.04267  0.52752  0.03485  1.0000
  F   F292      1.0  0.04695  0.52439  0.51850  1.0000
  F   F293      1.0  0.29849  0.02203  0.01134  1.0000
  F   F294      1.0  0.29083  0.03134  0.52248  1.0000
  F   F295      1.0  0.28691  0.53055  0.02776  1.0000
  F   F296      1.0  0.29267  0.53608  0.51591  1.0000
  F   F297      1.0  0.54608  0.03359  0.02568  1.0000
  F   F298      1.0  0.54292  0.03692  0.51300  1.0000
  F   F299      1.0  0.55206  0.53312  0.00270  1.0000
  F   F300      1.0  0.54587  0.53993  0.52424  1.0000
  F   F301      1.0  0.78439  0.03986  0.03092  1.0000
  F   F302      1.0  0.79509  0.03437  0.50475  1.0000
  F   F303      1.0  0.78946  0.53850  0.02511  1.0000
  F   F304      1.0  0.78276  0.52498  0.53730  1.0000
  F   F305      1.0  0.23276  0.41381  0.23826  1.0000
  F   F306      1.0  0.23525  0.40285  0.74253  1.0000
  F   F307      1.0  0.23525  0.91386  0.22772  1.0000
  F   F308      1.0  0.23643  0.90288  0.73030  1.0000
  F   F309      1.0  0.47918  0.40459  0.23436  1.0000
  F   F310      1.0  0.48412  0.42324  0.72790  1.0000
  F   F311      1.0  0.48815  0.92644  0.21287  1.0000
  F   F312      1.0  0.48557  0.92567  0.71862  1.0000
  F   F313      1.0  0.73728  0.41635  0.23652  1.0000
  F   F314      1.0  0.73198  0.41354  0.73422  1.0000
  F   F315      1.0  0.73863  0.91187  0.22092  1.0000
  F   F316      1.0  0.73625  0.90213  0.73271  1.0000
  F   F317      1.0  0.98346  0.42080  0.22297  1.0000
  F   F318      1.0  0.98657  0.40759  0.73970  1.0000
  F   F319      1.0  0.98865  0.92111  0.21916  1.0000
  F   F320      1.0  0.98719  0.91905  0.71682  1.0000
  F   F321      1.0  0.19604  0.47016  0.48759  1.0000
  F   F322      1.0  0.20773  0.45759  0.97906  1.0000
  F   F323      1.0  0.20251  0.97642  0.48318  1.0000
  F   F324      1.0  0.20569  0.97150  0.99174  1.0000
  F   F325      1.0  0.45863  0.46688  0.48216  1.0000
  F   F326      1.0  0.46555  0.47404  0.95838  1.0000
  F   F327      1.0  0.45294  0.96748  0.46941  1.0000
  F   F328      1.0  0.45296  0.98247  0.97841  1.0000
  F   F329      1.0  0.71111  0.46249  0.48109  1.0000
  F   F330      1.0  0.70933  0.47523  0.97246  1.0000
  F   F331      1.0  0.70211  0.97284  0.48018  1.0000
  F   F332      1.0  0.70074  0.97060  0.99446  1.0000
  F   F333      1.0  0.95041  0.46807  0.48081  1.0000
  F   F334      1.0  0.95632  0.46781  0.97493  1.0000
  F   F335      1.0  0.96065  0.97540  0.46128  1.0000
  F   F336      1.0  0.96049  0.96494  0.96837  1.0000
  F   F337      1.0  0.01284  0.10596  0.25116  1.0000
  F   F338      1.0  0.01633  0.08084  0.76475  1.0000
  F   F339      1.0  0.01101  0.58615  0.27315  1.0000
  F   F340      1.0  0.01130  0.57936  0.77199  1.0000
  F   F341      1.0  0.26656  0.06973  0.28501  1.0000
  F   F342      1.0  0.26346  0.09575  0.77207  1.0000
  F   F343      1.0  0.26361  0.59257  0.27046  1.0000
  F   F344      1.0  0.26807  0.57585  0.78418  1.0000
  F   F345      1.0  0.51757  0.08352  0.26649  1.0000
  F   F346      1.0  0.51442  0.08878  0.76671  1.0000
  F   F347      1.0  0.51272  0.57769  0.27610  1.0000
  F   F348      1.0  0.51586  0.58924  0.77149  1.0000
  F   F349      1.0  0.76789  0.07216  0.27585  1.0000
  F   F350      1.0  0.76779  0.08817  0.78369  1.0000
  F   F351      1.0  0.76708  0.58573  0.27128  1.0000
  F   F352      1.0  0.76682  0.58625  0.77583  1.0000
  F   F353      1.0  0.10527  0.39151  0.46989  1.0000
  F   F354      1.0  0.10249  0.41457  0.96467  1.0000
  F   F355      1.0  0.10435  0.91108  0.45619  1.0000
  F   F356      1.0  0.09910  0.90621  0.95175  1.0000
  F   F357      1.0  0.34375  0.39191  0.47531  1.0000
  F   F358      1.0  0.35218  0.41670  0.95193  1.0000
  F   F359      1.0  0.34998  0.90446  0.46170  1.0000
  F   F360      1.0  0.35200  0.87869  0.97346  1.0000
  F   F361      1.0  0.60171  0.41471  0.46178  1.0000
  F   F362      1.0  0.59566  0.38789  0.96748  1.0000
  F   F363      1.0  0.60210  0.91922  0.45949  1.0000
  F   F364      1.0  0.60286  0.88518  0.96838  1.0000
  F   F365      1.0  0.85039  0.40400  0.47290  1.0000
  F   F366      1.0  0.85281  0.41317  0.96964  1.0000
  F   F367      1.0  0.84802  0.90419  0.46117  1.0000
  F   F368      1.0  0.84990  0.93609  0.96066  1.0000
  F   F369      1.0  0.04439  0.28763  0.28587  1.0000
  F   F370      1.0  0.04684  0.29147  0.79800  1.0000
  F   F371      1.0  0.04614  0.79952  0.28764  1.0000
  F   F372      1.0  0.04129  0.80081  0.78585  1.0000
  F   F373      1.0  0.29498  0.30134  0.27657  1.0000
  F   F374      1.0  0.30532  0.30322  0.77721  1.0000
  F   F375      1.0  0.29596  0.79639  0.28971  1.0000
  F   F376      1.0  0.29704  0.78573  0.79109  1.0000
  F   F377      1.0  0.54792  0.30329  0.28440  1.0000
  F   F378      1.0  0.53994  0.29384  0.79261  1.0000
  F   F379      1.0  0.54881  0.81446  0.29091  1.0000
  F   F380      1.0  0.54638  0.79991  0.77530  1.0000
  F   F381      1.0  0.79712  0.31721  0.28830  1.0000
  F   F382      1.0  0.79660  0.30127  0.78834  1.0000
  F   F383      1.0  0.79982  0.78283  0.29805  1.0000
  F   F384      1.0  0.80092  0.81005  0.78739  1.0000
