data_image0
_chemical_formula_structural       Hf96F384
_chemical_formula_sum              "Hf96 F384"
_cell_length_a       31.0491
_cell_length_b       15.5302
_cell_length_c       15.5197
_cell_angle_alpha    63.342
_cell_angle_beta     63.342
_cell_angle_gamma    80.1625

_space_group_name_H-M_alt    "P 1"
_space_group_IT_number       1

loop_
  _space_group_symop_operation_xyz
  'x, y, z'

loop_
  _atom_site_type_symbol
  _atom_site_label
  _atom_site_symmetry_multiplicity
  _atom_site_fract_x
  _atom_site_fract_y
  _atom_site_fract_z
  _atom_site_occupancy
  Hf  Hf1       1.0  0.19392  0.09539  0.38135  1.0000
  Hf  Hf2       1.0  0.19587  0.10618  0.87169  1.0000
  Hf  Hf3       1.0  0.19573  0.60340  0.37305  1.0000
  Hf  Hf4       1.0  0.19672  0.61021  0.87036  1.0000
  Hf  Hf5       1.0  0.44594  0.11062  0.37019  1.0000
  Hf  Hf6       1.0  0.44649  0.10432  0.87132  1.0000
  Hf  Hf7       1.0  0.44532  0.60682  0.36966  1.0000
  Hf  Hf8       1.0  0.44762  0.60676  0.86949  1.0000
  Hf  Hf9       1.0  0.70225  0.11749  0.35212  1.0000
  Hf  Hf10      1.0  0.69325  0.09848  0.88403  1.0000
  Hf  Hf11      1.0  0.69726  0.61139  0.37659  1.0000
  Hf  Hf12      1.0  0.69788  0.61615  0.87123  1.0000
  Hf  Hf13      1.0  0.94090  0.10983  0.38254  1.0000
  Hf  Hf14      1.0  0.95049  0.10374  0.86882  1.0000
  Hf  Hf15      1.0  0.94193  0.61051  0.38269  1.0000
  Hf  Hf16      1.0  0.94765  0.61348  0.87547  1.0000
  Hf  Hf17      1.0  0.05175  0.39892  0.12568  1.0000
  Hf  Hf18      1.0  0.05587  0.38626  0.63326  1.0000
  Hf  Hf19      1.0  0.05545  0.88706  0.13133  1.0000
  Hf  Hf20      1.0  0.05493  0.88780  0.62276  1.0000
  Hf  Hf21      1.0  0.30106  0.38843  0.12288  1.0000
  Hf  Hf22      1.0  0.30085  0.38913  0.63629  1.0000
  Hf  Hf23      1.0  0.30973  0.89519  0.12252  1.0000
  Hf  Hf24      1.0  0.30064  0.89388  0.61346  1.0000
  Hf  Hf25      1.0  0.55428  0.40026  0.11638  1.0000
  Hf  Hf26      1.0  0.55454  0.39032  0.62287  1.0000
  Hf  Hf27      1.0  0.55420  0.88841  0.13527  1.0000
  Hf  Hf28      1.0  0.55381  0.90276  0.62239  1.0000
  Hf  Hf29      1.0  0.80908  0.39059  0.12381  1.0000
  Hf  Hf30      1.0  0.80266  0.39155  0.62700  1.0000
  Hf  Hf31      1.0  0.80699  0.89876  0.11539  1.0000
  Hf  Hf32      1.0  0.80416  0.89948  0.62944  1.0000
  Hf  Hf33      1.0  0.04949  0.18249  0.42162  1.0000
  Hf  Hf34      1.0  0.05923  0.17328  0.91446  1.0000
  Hf  Hf35      1.0  0.05428  0.67919  0.42232  1.0000
  Hf  Hf36      1.0  0.05399  0.67958  0.91942  1.0000
  Hf  Hf37      1.0  0.30323  0.18225  0.41902  1.0000
  Hf  Hf38      1.0  0.30565  0.17225  0.92888  1.0000
  Hf  Hf39      1.0  0.29982  0.66858  0.42730  1.0000
  Hf  Hf40      1.0  0.30307  0.67809  0.92050  1.0000
  Hf  Hf41      1.0  0.55665  0.19599  0.41353  1.0000
  Hf  Hf42      1.0  0.55541  0.16962  0.91764  1.0000
  Hf  Hf43      1.0  0.55513  0.67921  0.41991  1.0000
  Hf  Hf44      1.0  0.55587  0.68978  0.91517  1.0000
  Hf  Hf45      1.0  0.80532  0.18202  0.41662  1.0000
  Hf  Hf46      1.0  0.80425  0.18445  0.92281  1.0000
  Hf  Hf47      1.0  0.80851  0.69053  0.40684  1.0000
  Hf  Hf48      1.0  0.80770  0.68348  0.91282  1.0000
  Hf  Hf49      1.0  0.15519  0.38590  0.34385  1.0000
  Hf  Hf50      1.0  0.15636  0.38251  0.83570  1.0000
  Hf  Hf51      1.0  0.15780  0.88738  0.32844  1.0000
  Hf  Hf52      1.0  0.15665  0.88967  0.83494  1.0000
  Hf  Hf53      1.0  0.40645  0.39000  0.32938  1.0000
  Hf  Hf54      1.0  0.41324  0.38886  0.82350  1.0000
  Hf  Hf55      1.0  0.41167  0.88771  0.32857  1.0000
  Hf  Hf56      1.0  0.40531  0.88784  0.83968  1.0000
  Hf  Hf57      1.0  0.66369  0.38767  0.32809  1.0000
  Hf  Hf58      1.0  0.65845  0.38969  0.83035  1.0000
  Hf  Hf59      1.0  0.66234  0.89450  0.32591  1.0000
  Hf  Hf60      1.0  0.66247  0.89310  0.82634  1.0000
  Hf  Hf61      1.0  0.90432  0.39118  0.34028  1.0000
  Hf  Hf62      1.0  0.91085  0.38426  0.82817  1.0000
  Hf  Hf63      1.0  0.90752  0.88817  0.34025  1.0000
  Hf  Hf64      1.0  0.90811  0.88931  0.83916  1.0000
  Hf  Hf65      1.0  0.19567  0.31048  0.08098  1.0000
  Hf  Hf66      1.0  0.19379  0.31598  0.58844  1.0000
  Hf  Hf67      1.0  0.19358  0.81908  0.08354  1.0000
  Hf  Hf68      1.0  0.19320  0.81697  0.58002  1.0000
  Hf  Hf69      1.0  0.44265  0.31500  0.07996  1.0000
  Hf  Hf70      1.0  0.44278  0.31308  0.58016  1.0000
  Hf  Hf71      1.0  0.44795  0.81667  0.07877  1.0000
  Hf  Hf72      1.0  0.44609  0.81959  0.57793  1.0000
  Hf  Hf73      1.0  0.69612  0.32246  0.08137  1.0000
  Hf  Hf74      1.0  0.69569  0.31041  0.58696  1.0000
  Hf  Hf75      1.0  0.69440  0.81911  0.08473  1.0000
  Hf  Hf76      1.0  0.69724  0.81759  0.57644  1.0000
  Hf  Hf77      1.0  0.94760  0.31553  0.08452  1.0000
  Hf  Hf78      1.0  0.94839  0.32639  0.57507  1.0000
  Hf  Hf79      1.0  0.94547  0.81947  0.08698  1.0000
  Hf  Hf80      1.0  0.93748  0.80943  0.59912  1.0000
  Hf  Hf81      1.0  0.09027  0.11436  0.16691  1.0000
  Hf  Hf82      1.0  0.09546  0.10999  0.65850  1.0000
  Hf  Hf83      1.0  0.09165  0.61091  0.16711  1.0000
  Hf  Hf84      1.0  0.09010  0.61164  0.67032  1.0000
  Hf  Hf85      1.0  0.34177  0.11176  0.16978  1.0000
  Hf  Hf86      1.0  0.33851  0.10707  0.66576  1.0000
  Hf  Hf87      1.0  0.34236  0.61089  0.15707  1.0000
  Hf  Hf88      1.0  0.33929  0.60862  0.67557  1.0000
  Hf  Hf89      1.0  0.59198  0.12603  0.16367  1.0000
  Hf  Hf90      1.0  0.58978  0.10656  0.66830  1.0000
  Hf  Hf91      1.0  0.59191  0.61691  0.16585  1.0000
  Hf  Hf92      1.0  0.59155  0.61946  0.66322  1.0000
  Hf  Hf93      1.0  0.84842  0.11629  0.15810  1.0000
  Hf  Hf94      1.0  0.84105  0.11966  0.67274  1.0000
  Hf  Hf95      1.0  0.83794  0.62121  0.16222  1.0000
  Hf  Hf96      1.0  0.83870  0.60673  0.67571  1.0000
  F   F1        1.0  0.07622  0.13446  0.31287  1.0000
  F   F2        1.0  0.08145  0.12565  0.79414  1.0000
  F   F3        1.0  0.08700  0.64230  0.29822  1.0000
  F   F4        1.0  0.07498  0.61985  0.80668  1.0000
  F   F5        1.0  0.32370  0.11359  0.31319  1.0000
  F   F6        1.0  0.32660  0.12909  0.79753  1.0000
  F   F7        1.0  0.32028  0.61873  0.30335  1.0000
  F   F8        1.0  0.32769  0.61597  0.81086  1.0000
  F   F9        1.0  0.58168  0.15537  0.28973  1.0000
  F   F10       1.0  0.58308  0.13235  0.79361  1.0000
  F   F11       1.0  0.57858  0.62541  0.30929  1.0000
  F   F12       1.0  0.57875  0.61845  0.81176  1.0000
  F   F13       1.0  0.82859  0.13366  0.29679  1.0000
  F   F14       1.0  0.83352  0.15360  0.79553  1.0000
  F   F15       1.0  0.81926  0.63953  0.29492  1.0000
  F   F16       1.0  0.82945  0.62408  0.80395  1.0000
  F   F17       1.0  0.18404  0.32751  0.45447  1.0000
  F   F18       1.0  0.19304  0.33633  0.93132  1.0000
  F   F19       1.0  0.17728  0.84510  0.45108  1.0000
  F   F20       1.0  0.18458  0.85273  0.94468  1.0000
  F   F21       1.0  0.43430  0.35381  0.44778  1.0000
  F   F22       1.0  0.44153  0.33779  0.93521  1.0000
  F   F23       1.0  0.42836  0.83352  0.45669  1.0000
  F   F24       1.0  0.43229  0.83898  0.95609  1.0000
  F   F25       1.0  0.69513  0.35751  0.43306  1.0000
  F   F26       1.0  0.68445  0.34697  0.94739  1.0000
  F   F27       1.0  0.69437  0.83715  0.43683  1.0000
  F   F28       1.0  0.67699  0.84732  0.95687  1.0000
  F   F29       1.0  0.93643  0.35380  0.43685  1.0000
  F   F30       1.0  0.93322  0.32301  0.96174  1.0000
  F   F31       1.0  0.93780  0.84973  0.45675  1.0000
  F   F32       1.0  0.93129  0.84330  0.95693  1.0000
  F   F33       1.0  0.17484  0.37104  0.19509  1.0000
  F   F34       1.0  0.16537  0.36073  0.70196  1.0000
  F   F35       1.0  0.16986  0.87924  0.19580  1.0000
  F   F36       1.0  0.17535  0.83300  0.71891  1.0000
  F   F37       1.0  0.41922  0.34955  0.20343  1.0000
  F   F38       1.0  0.42040  0.37314  0.69054  1.0000
  F   F39       1.0  0.41744  0.86092  0.20118  1.0000
  F   F40       1.0  0.42217  0.86952  0.69022  1.0000
  F   F41       1.0  0.66780  0.35406  0.20266  1.0000
  F   F42       1.0  0.66791  0.35240  0.70496  1.0000
  F   F43       1.0  0.67367  0.86891  0.19499  1.0000
  F   F44       1.0  0.67510  0.87836  0.68951  1.0000
  F   F45       1.0  0.91392  0.35307  0.21161  1.0000
  F   F46       1.0  0.92492  0.38478  0.68769  1.0000
  F   F47       1.0  0.92356  0.85950  0.20970  1.0000
  F   F48       1.0  0.91782  0.87875  0.70028  1.0000
  F   F49       1.0  0.06048  0.14904  0.06379  1.0000
  F   F50       1.0  0.06401  0.15799  0.55260  1.0000
  F   F51       1.0  0.06203  0.63644  0.06425  1.0000
  F   F52       1.0  0.06052  0.65422  0.56334  1.0000
  F   F53       1.0  0.31997  0.16420  0.04615  1.0000
  F   F54       1.0  0.32337  0.14573  0.54231  1.0000
  F   F55       1.0  0.31727  0.65441  0.04728  1.0000
  F   F56       1.0  0.30608  0.63975  0.55895  1.0000
  F   F57       1.0  0.56485  0.15318  0.05773  1.0000
  F   F58       1.0  0.56309  0.16433  0.55714  1.0000
  F   F59       1.0  0.56636  0.67090  0.05188  1.0000
  F   F60       1.0  0.55965  0.66353  0.55059  1.0000
  F   F61       1.0  0.82356  0.16906  0.03817  1.0000
  F   F62       1.0  0.81341  0.15996  0.56261  1.0000
  F   F63       1.0  0.81418  0.65928  0.05592  1.0000
  F   F64       1.0  0.82087  0.65540  0.55222  1.0000
  F   F65       1.0  0.19836  0.20303  0.22761  1.0000
  F   F66       1.0  0.20400  0.19803  0.70298  1.0000
  F   F67       1.0  0.19290  0.69712  0.21710  1.0000
  F   F68       1.0  0.21465  0.69957  0.69588  1.0000
  F   F69       1.0  0.45615  0.20225  0.21887  1.0000
  F   F70       1.0  0.44461  0.18813  0.71644  1.0000
  F   F71       1.0  0.45434  0.69864  0.20234  1.0000
  F   F72       1.0  0.46641  0.70915  0.69921  1.0000
  F   F73       1.0  0.71579  0.20799  0.18869  1.0000
  F   F74       1.0  0.70948  0.19492  0.71215  1.0000
  F   F75       1.0  0.72125  0.71114  0.19739  1.0000
  F   F76       1.0  0.70968  0.69813  0.69973  1.0000
  F   F77       1.0  0.96133  0.20734  0.22653  1.0000
  F   F78       1.0  0.94714  0.19591  0.72657  1.0000
  F   F79       1.0  0.96502  0.70441  0.20592  1.0000
  F   F80       1.0  0.95403  0.70592  0.72095  1.0000
  F   F81       1.0  0.15065  0.09140  0.02982  1.0000
  F   F82       1.0  0.15544  0.09418  0.52721  1.0000
  F   F83       1.0  0.14245  0.58748  0.03344  1.0000
  F   F84       1.0  0.14235  0.58173  0.55942  1.0000
  F   F85       1.0  0.39939  0.08624  0.03993  1.0000
  F   F86       1.0  0.40561  0.07785  0.53182  1.0000
  F   F87       1.0  0.40246  0.58117  0.03510  1.0000
  F   F88       1.0  0.39195  0.60539  0.53567  1.0000
  F   F89       1.0  0.65164  0.10040  0.04381  1.0000
  F   F90       1.0  0.64820  0.08701  0.54755  1.0000
  F   F91       1.0  0.65183  0.60601  0.02251  1.0000
  F   F92       1.0  0.64601  0.63539  0.52287  1.0000
  F   F93       1.0  0.90779  0.08733  0.03890  1.0000
  F   F94       1.0  0.89351  0.10978  0.53893  1.0000
  F   F95       1.0  0.89891  0.59589  0.03332  1.0000
  F   F96       1.0  0.89978  0.60111  0.53089  1.0000
  F   F97       1.0  0.15237  0.20325  0.11759  1.0000
  F   F98       1.0  0.15033  0.18846  0.62167  1.0000
  F   F99       1.0  0.15423  0.70341  0.10282  1.0000
  F   F100      1.0  0.15669  0.69200  0.62107  1.0000
  F   F101      1.0  0.39812  0.20285  0.13214  1.0000
  F   F102      1.0  0.40201  0.19126  0.61401  1.0000
  F   F103      1.0  0.40563  0.69410  0.10454  1.0000
  F   F104      1.0  0.40072  0.69859  0.63259  1.0000
  F   F105      1.0  0.65610  0.19132  0.14004  1.0000
  F   F106      1.0  0.65154  0.19628  0.63288  1.0000
  F   F107      1.0  0.65564  0.69565  0.13586  1.0000
  F   F108      1.0  0.64613  0.70745  0.63414  1.0000
  F   F109      1.0  0.90932  0.19206  0.13050  1.0000
  F   F110      1.0  0.90470  0.19258  0.63313  1.0000
  F   F111      1.0  0.90050  0.70866  0.13124  1.0000
  F   F112      1.0  0.90210  0.68945  0.62692  1.0000
  F   F113      1.0  0.09277  0.30501  0.35995  1.0000
  F   F114      1.0  0.09746  0.29418  0.90320  1.0000
  F   F115      1.0  0.09512  0.80016  0.39228  1.0000
  F   F116      1.0  0.09485  0.79948  0.88978  1.0000
  F   F117      1.0  0.34274  0.31266  0.37546  1.0000
  F   F118      1.0  0.35589  0.30020  0.86200  1.0000
  F   F119      1.0  0.34916  0.79729  0.38455  1.0000
  F   F120      1.0  0.34598  0.80316  0.89350  1.0000
  F   F121      1.0  0.59422  0.30066  0.38741  1.0000
  F   F122      1.0  0.59415  0.29962  0.87026  1.0000
  F   F123      1.0  0.59303  0.81179  0.36506  1.0000
  F   F124      1.0  0.60183  0.83230  0.85995  1.0000
  F   F125      1.0  0.84275  0.31582  0.37542  1.0000
  F   F126      1.0  0.85332  0.29629  0.84776  1.0000
  F   F127      1.0  0.84785  0.81158  0.37497  1.0000
  F   F128      1.0  0.84576  0.81039  0.88077  1.0000
  F   F129      1.0  0.06147  0.25247  0.14625  1.0000
  F   F130      1.0  0.07169  0.25104  0.62802  1.0000
  F   F131      1.0  0.06023  0.73889  0.15329  1.0000
  F   F132      1.0  0.06860  0.75036  0.63795  1.0000
  F   F133      1.0  0.30451  0.24369  0.16015  1.0000
  F   F134      1.0  0.31263  0.24748  0.63872  1.0000
  F   F135      1.0  0.32358  0.76200  0.12357  1.0000
  F   F136      1.0  0.30612  0.74398  0.64189  1.0000
  F   F137      1.0  0.56859  0.25967  0.13186  1.0000
  F   F138      1.0  0.56961  0.24732  0.63967  1.0000
  F   F139      1.0  0.57096  0.76140  0.12797  1.0000
  F   F140      1.0  0.56241  0.75920  0.63942  1.0000
  F   F141      1.0  0.81106  0.24876  0.15151  1.0000
  F   F142      1.0  0.81444  0.24724  0.64765  1.0000
  F   F143      1.0  0.81706  0.76090  0.12664  1.0000
  F   F144      1.0  0.81235  0.75330  0.64985  1.0000
  F   F145      1.0  0.12536  0.35656  0.11680  1.0000
  F   F146      1.0  0.12519  0.37238  0.59878  1.0000
  F   F147      1.0  0.12391  0.85314  0.12951  1.0000
  F   F148      1.0  0.12629  0.85627  0.62494  1.0000
  F   F149      1.0  0.36875  0.37030  0.10374  1.0000
  F   F150      1.0  0.36995  0.37793  0.60599  1.0000
  F   F151      1.0  0.37600  0.86694  0.10462  1.0000
  F   F152      1.0  0.37027  0.86038  0.61015  1.0000
  F   F153      1.0  0.62720  0.38646  0.09410  1.0000
  F   F154      1.0  0.62260  0.36818  0.60374  1.0000
  F   F155      1.0  0.62245  0.85377  0.13499  1.0000
  F   F156      1.0  0.62579  0.88218  0.59788  1.0000
  F   F157      1.0  0.87177  0.35861  0.12377  1.0000
  F   F158      1.0  0.87453  0.37168  0.62327  1.0000
  F   F159      1.0  0.87691  0.87085  0.11623  1.0000
  F   F160      1.0  0.87193  0.85462  0.63399  1.0000
  F   F161      1.0  0.17255  0.25031  0.36343  1.0000
  F   F162      1.0  0.19205  0.24715  0.83626  1.0000
  F   F163      1.0  0.19258  0.74992  0.34011  1.0000
  F   F164      1.0  0.18209  0.74547  0.87495  1.0000
  F   F165      1.0  0.42978  0.24671  0.38514  1.0000
  F   F166      1.0  0.43935  0.24759  0.84265  1.0000
  F   F167      1.0  0.44456  0.75369  0.32889  1.0000
  F   F168      1.0  0.42745  0.74473  0.86225  1.0000
  F   F169      1.0  0.67770  0.24662  0.37755  1.0000
  F   F170      1.0  0.68035  0.24961  0.87002  1.0000
  F   F171      1.0  0.68906  0.75414  0.35277  1.0000
  F   F172      1.0  0.69550  0.75946  0.85489  1.0000
  F   F173      1.0  0.91974  0.24951  0.37715  1.0000
  F   F174      1.0  0.93904  0.24503  0.84554  1.0000
  F   F175      1.0  0.93647  0.74997  0.36178  1.0000
  F   F176      1.0  0.93129  0.74856  0.87503  1.0000
  F   F177      1.0  0.12155  0.12197  0.40305  1.0000
  F   F178      1.0  0.12368  0.10315  0.89986  1.0000
  F   F179      1.0  0.12524  0.61984  0.40794  1.0000
  F   F180      1.0  0.12384  0.62462  0.88459  1.0000
  F   F181      1.0  0.37281  0.14846  0.37552  1.0000
  F   F182      1.0  0.37291  0.12487  0.89737  1.0000
  F   F183      1.0  0.37222  0.61141  0.39349  1.0000
  F   F184      1.0  0.37294  0.62443  0.89084  1.0000
  F   F185      1.0  0.63208  0.13477  0.37693  1.0000
  F   F186      1.0  0.62185  0.10502  0.91620  1.0000
  F   F187      1.0  0.63198  0.63439  0.38052  1.0000
  F   F188      1.0  0.63008  0.66920  0.87278  1.0000
  F   F189      1.0  0.87692  0.12808  0.37201  1.0000
  F   F190      1.0  0.87765  0.10717  0.91571  1.0000
  F   F191      1.0  0.87814  0.65515  0.36658  1.0000
  F   F192      1.0  0.87819  0.64558  0.88334  1.0000
  F   F193      1.0  0.00746  0.36335  0.07380  1.0000
  F   F194      1.0  0.00966  0.34907  0.58492  1.0000
  F   F195      1.0  0.00705  0.85843  0.09011  1.0000
  F   F196      1.0  0.00770  0.85515  0.57734  1.0000
  F   F197      1.0  0.25985  0.35467  0.06632  1.0000
  F   F198      1.0  0.25001  0.35010  0.59535  1.0000
  F   F199      1.0  0.25571  0.86634  0.06343  1.0000
  F   F200      1.0  0.25764  0.87561  0.55378  1.0000
  F   F201      1.0  0.50741  0.36304  0.07634  1.0000
  F   F202      1.0  0.50482  0.35138  0.59699  1.0000
  F   F203      1.0  0.50976  0.86117  0.07758  1.0000
  F   F204      1.0  0.51081  0.87878  0.56639  1.0000
  F   F205      1.0  0.75943  0.36644  0.05712  1.0000
  F   F206      1.0  0.75504  0.36569  0.56785  1.0000
  F   F207      1.0  0.76301  0.88231  0.05510  1.0000
  F   F208      1.0  0.75533  0.88016  0.55981  1.0000
  F   F209      1.0  0.06260  0.47400  0.19202  1.0000
  F   F210      1.0  0.06611  0.47873  0.68922  1.0000
  F   F211      1.0  0.06833  0.98576  0.17371  1.0000
  F   F212      1.0  0.07097  0.98759  0.66558  1.0000
  F   F213      1.0  0.31520  0.48173  0.18624  1.0000
  F   F214      1.0  0.31851  0.47384  0.69336  1.0000
  F   F215      1.0  0.32373  0.98313  0.18080  1.0000
  F   F216      1.0  0.31975  0.98454  0.66596  1.0000
  F   F217      1.0  0.56919  0.49618  0.17309  1.0000
  F   F218      1.0  0.56602  0.48838  0.67840  1.0000
  F   F219      1.0  0.56632  0.98804  0.18308  1.0000
  F   F220      1.0  0.56602  0.97509  0.69053  1.0000
  F   F221      1.0  0.81848  0.48457  0.18551  1.0000
  F   F222      1.0  0.81485  0.47720  0.68396  1.0000
  F   F223      1.0  0.82537  0.98936  0.16765  1.0000
  F   F224      1.0  0.82219  0.98880  0.67189  1.0000
  F   F225      1.0  0.24128  0.15114  0.41734  1.0000
  F   F226      1.0  0.24541  0.12302  0.92158  1.0000
  F   F227      1.0  0.23706  0.62279  0.44376  1.0000
  F   F228      1.0  0.23662  0.63037  0.93787  1.0000
  F   F229      1.0  0.49279  0.14178  0.43834  1.0000
  F   F230      1.0  0.49229  0.13308  0.92784  1.0000
  F   F231      1.0  0.48733  0.62628  0.44702  1.0000
  F   F232      1.0  0.49110  0.64655  0.92684  1.0000
  F   F233      1.0  0.73993  0.15018  0.41818  1.0000
  F   F234      1.0  0.74589  0.14052  0.91357  1.0000
  F   F235      1.0  0.74231  0.64109  0.43262  1.0000
  F   F236      1.0  0.74690  0.63469  0.92685  1.0000
  F   F237      1.0  0.98279  0.13624  0.43687  1.0000
  F   F238      1.0  0.99704  0.14972  0.91860  1.0000
  F   F239      1.0  0.99271  0.63920  0.42923  1.0000
  F   F240      1.0  0.99099  0.64227  0.92895  1.0000
  F   F241      1.0  0.17711  0.01678  0.32216  1.0000
  F   F242      1.0  0.18265  0.02134  0.80329  1.0000
  F   F243      1.0  0.17701  0.50928  0.33291  1.0000
  F   F244      1.0  0.17703  0.51267  0.82351  1.0000
  F   F245      1.0  0.42131  0.02158  0.34079  1.0000
  F   F246      1.0  0.43167  0.01736  0.82511  1.0000
  F   F247      1.0  0.44340  0.51122  0.31921  1.0000
  F   F248      1.0  0.43261  0.50645  0.82855  1.0000
  F   F249      1.0  0.68588  0.01647  0.31930  1.0000
  F   F250      1.0  0.68136  0.01308  0.82571  1.0000
  F   F251      1.0  0.68582  0.51790  0.30150  1.0000
  F   F252      1.0  0.67737  0.52661  0.83198  1.0000
  F   F253      1.0  0.92918  0.00895  0.32850  1.0000
  F   F254      1.0  0.93317  0.01240  0.82244  1.0000
  F   F255      1.0  0.92113  0.51997  0.34392  1.0000
  F   F256      1.0  0.92574  0.50585  0.83437  1.0000
  F   F257      1.0  0.00581  0.24799  0.00283  1.0000
  F   F258      1.0  0.99619  0.25710  0.49813  1.0000
  F   F259      1.0  0.00098  0.75830  0.99092  1.0000
  F   F260      1.0  0.00346  0.75521  0.49570  1.0000
  F   F261      1.0  0.24570  0.22016  0.02129  1.0000
  F   F262      1.0  0.25387  0.25338  0.49814  1.0000
  F   F263      1.0  0.24759  0.73808  0.01531  1.0000
  F   F264      1.0  0.24470  0.75262  0.48204  1.0000
  F   F265      1.0  0.50085  0.24465  0.00759  1.0000
  F   F266      1.0  0.50224  0.25631  0.50600  1.0000
  F   F267      1.0  0.50968  0.77363  0.97680  1.0000
  F   F268      1.0  0.50295  0.76807  0.48577  1.0000
  F   F269      1.0  0.75540  0.26178  0.98444  1.0000
  F   F270      1.0  0.75119  0.24794  0.49635  1.0000
  F   F271      1.0  0.74684  0.74867  0.00788  1.0000
  F   F272      1.0  0.75371  0.74357  0.51144  1.0000
  F   F273      1.0  0.11756  0.99927  0.25265  1.0000
  F   F274      1.0  0.12826  0.99224  0.73898  1.0000
  F   F275      1.0  0.12437  0.48975  0.25100  1.0000
  F   F276      1.0  0.12282  0.48425  0.75478  1.0000
  F   F277      1.0  0.38435  0.00258  0.24861  1.0000
  F   F278      1.0  0.37860  0.99427  0.74504  1.0000
  F   F279      1.0  0.37866  0.50096  0.24248  1.0000
  F   F280      1.0  0.38493  0.50279  0.73836  1.0000
  F   F281      1.0  0.62889  0.00787  0.24399  1.0000
  F   F282      1.0  0.62482  0.00511  0.75003  1.0000
  F   F283      1.0  0.62896  0.50226  0.23382  1.0000
  F   F284      1.0  0.62907  0.51090  0.71956  1.0000
  F   F285      1.0  0.88068  0.01323  0.24640  1.0000
  F   F286      1.0  0.86393  0.00074  0.76260  1.0000
  F   F287      1.0  0.87524  0.50779  0.25109  1.0000
  F   F288      1.0  0.87238  0.49351  0.74838  1.0000
  F   F289      1.0  0.03871  0.01968  0.02587  1.0000
  F   F290      1.0  0.03969  0.03208  0.52564  1.0000
  F   F291      1.0  0.03885  0.53508  0.01890  1.0000
  F   F292      1.0  0.04011  0.52562  0.52895  1.0000
  F   F293      1.0  0.28160  0.03561  0.04714  1.0000
  F   F294      1.0  0.29025  0.03294  0.51877  1.0000
  F   F295      1.0  0.28630  0.53341  0.03278  1.0000
  F   F296      1.0  0.28493  0.51173  0.53265  1.0000
  F   F297      1.0  0.53466  0.02824  0.03205  1.0000
  F   F298      1.0  0.54668  0.03552  0.52539  1.0000
  F   F299      1.0  0.55405  0.53069  0.01055  1.0000
  F   F300      1.0  0.55143  0.52745  0.51020  1.0000
  F   F301      1.0  0.79081  0.03352  0.03683  1.0000
  F   F302      1.0  0.79108  0.04161  0.53376  1.0000
  F   F303      1.0  0.80709  0.52984  0.01137  1.0000
  F   F304      1.0  0.79428  0.53690  0.51831  1.0000
  F   F305      1.0  0.23732  0.39657  0.24049  1.0000
  F   F306      1.0  0.22647  0.41659  0.73272  1.0000
  F   F307      1.0  0.23391  0.92443  0.22618  1.0000
  F   F308      1.0  0.23905  0.91978  0.71034  1.0000
  F   F309      1.0  0.48608  0.40297  0.22392  1.0000
  F   F310      1.0  0.48209  0.41304  0.73412  1.0000
  F   F311      1.0  0.47927  0.92132  0.21980  1.0000
  F   F312      1.0  0.48213  0.90810  0.73082  1.0000
  F   F313      1.0  0.73869  0.39954  0.22188  1.0000
  F   F314      1.0  0.73288  0.42402  0.71904  1.0000
  F   F315      1.0  0.73760  0.92819  0.20824  1.0000
  F   F316      1.0  0.73587  0.92137  0.72018  1.0000
  F   F317      1.0  0.97815  0.42088  0.22522  1.0000
  F   F318      1.0  0.98442  0.40371  0.73867  1.0000
  F   F319      1.0  0.98478  0.90596  0.24200  1.0000
  F   F320      1.0  0.98548  0.90373  0.72847  1.0000
  F   F321      1.0  0.20431  0.46646  0.48621  1.0000
  F   F322      1.0  0.20663  0.46514  0.97758  1.0000
  F   F323      1.0  0.20114  0.96313  0.48487  1.0000
  F   F324      1.0  0.20544  0.97078  0.98325  1.0000
  F   F325      1.0  0.45193  0.47883  0.47969  1.0000
  F   F326      1.0  0.45593  0.46693  0.97953  1.0000
  F   F327      1.0  0.46318  0.96866  0.46180  1.0000
  F   F328      1.0  0.45286  0.96213  0.98378  1.0000
  F   F329      1.0  0.70489  0.48369  0.47937  1.0000
  F   F330      1.0  0.70762  0.47996  0.97379  1.0000
  F   F331      1.0  0.70886  0.97651  0.45499  1.0000
  F   F332      1.0  0.70787  0.97078  0.97924  1.0000
  F   F333      1.0  0.95706  0.46775  0.48186  1.0000
  F   F334      1.0  0.95095  0.46296  0.98063  1.0000
  F   F335      1.0  0.95286  0.97272  0.48304  1.0000
  F   F336      1.0  0.96749  0.96220  0.96165  1.0000
  F   F337      1.0  0.02290  0.07387  0.27587  1.0000
  F   F338      1.0  0.01892  0.07388  0.76441  1.0000
  F   F339      1.0  0.01873  0.57133  0.29508  1.0000
  F   F340      1.0  0.01237  0.59261  0.76984  1.0000
  F   F341      1.0  0.26511  0.07849  0.27785  1.0000
  F   F342      1.0  0.26270  0.07904  0.75779  1.0000
  F   F343      1.0  0.25884  0.59552  0.26137  1.0000
  F   F344      1.0  0.26327  0.57194  0.78549  1.0000
  F   F345      1.0  0.51683  0.08661  0.28578  1.0000
  F   F346      1.0  0.51446  0.07710  0.78235  1.0000
  F   F347      1.0  0.51649  0.60297  0.26552  1.0000
  F   F348      1.0  0.51441  0.58574  0.77737  1.0000
  F   F349      1.0  0.76567  0.08251  0.25563  1.0000
  F   F350      1.0  0.76681  0.06590  0.78998  1.0000
  F   F351      1.0  0.76346  0.58449  0.27786  1.0000
  F   F352      1.0  0.76341  0.59305  0.76306  1.0000
  F   F353      1.0  0.09688  0.40403  0.46812  1.0000
  F   F354      1.0  0.09910  0.40975  0.97572  1.0000
  F   F355      1.0  0.09918  0.92845  0.46276  1.0000
  F   F356      1.0  0.10410  0.90816  0.96951  1.0000
  F   F357      1.0  0.35019  0.41460  0.45256  1.0000
  F   F358      1.0  0.34993  0.40923  0.95596  1.0000
  F   F359      1.0  0.34825  0.90976  0.47201  1.0000
  F   F360      1.0  0.34593  0.91852  0.96718  1.0000
  F   F361      1.0  0.60829  0.40459  0.44852  1.0000
  F   F362      1.0  0.59790  0.39749  0.95592  1.0000
  F   F363      1.0  0.60811  0.90802  0.44992  1.0000
  F   F364      1.0  0.59937  0.93216  0.96465  1.0000
  F   F365      1.0  0.84340  0.40627  0.46859  1.0000
  F   F366      1.0  0.84775  0.39498  0.96194  1.0000
  F   F367      1.0  0.84890  0.90897  0.47589  1.0000
  F   F368      1.0  0.85026  0.92339  0.95909  1.0000
  F   F369      1.0  0.03733  0.30050  0.28347  1.0000
  F   F370      1.0  0.05887  0.30253  0.78749  1.0000
  F   F371      1.0  0.04766  0.79149  0.29475  1.0000
  F   F372      1.0  0.04663  0.78907  0.78727  1.0000
  F   F373      1.0  0.30309  0.28975  0.28403  1.0000
  F   F374      1.0  0.29379  0.30068  0.80027  1.0000
  F   F375      1.0  0.29724  0.79610  0.28534  1.0000
  F   F376      1.0  0.28983  0.78917  0.80704  1.0000
  F   F377      1.0  0.54677  0.31279  0.28709  1.0000
  F   F378      1.0  0.54016  0.28809  0.79040  1.0000
  F   F379      1.0  0.53187  0.79930  0.29519  1.0000
  F   F380      1.0  0.55369  0.78990  0.78374  1.0000
  F   F381      1.0  0.79572  0.30428  0.28851  1.0000
  F   F382      1.0  0.78788  0.30163  0.79414  1.0000
  F   F383      1.0  0.80038  0.80775  0.28585  1.0000
  F   F384      1.0  0.79536  0.80033  0.79547  1.0000
