data_image0
_chemical_formula_structural       Hf96F384
_chemical_formula_sum              "Hf96 F384"
_cell_length_a       31.0526
_cell_length_b       15.5269
_cell_length_c       15.5197
_cell_angle_alpha    63.342
_cell_angle_beta     63.342
_cell_angle_gamma    80.1625

_space_group_name_H-M_alt    "P 1"
_space_group_IT_number       1

loop_
  _space_group_symop_operation_xyz
  'x, y, z'

loop_
  _atom_site_type_symbol
  _atom_site_label
  _atom_site_symmetry_multiplicity
  _atom_site_fract_x
  _atom_site_fract_y
  _atom_site_fract_z
  _atom_site_occupancy
  Hf  Hf1       1.0  0.19916  0.11226  0.36551  1.0000
  Hf  Hf2       1.0  0.19802  0.10975  0.87289  1.0000
  Hf  Hf3       1.0  0.19420  0.60816  0.37558  1.0000
  Hf  Hf4       1.0  0.19486  0.60867  0.87929  1.0000
  Hf  Hf5       1.0  0.44843  0.10451  0.37706  1.0000
  Hf  Hf6       1.0  0.44761  0.11507  0.86985  1.0000
  Hf  Hf7       1.0  0.44630  0.61298  0.37215  1.0000
  Hf  Hf8       1.0  0.44735  0.60628  0.88435  1.0000
  Hf  Hf9       1.0  0.69226  0.10693  0.37627  1.0000
  Hf  Hf10      1.0  0.69472  0.09693  0.88382  1.0000
  Hf  Hf11      1.0  0.69440  0.60768  0.37347  1.0000
  Hf  Hf12      1.0  0.69365  0.60254  0.88437  1.0000
  Hf  Hf13      1.0  0.94738  0.10320  0.36926  1.0000
  Hf  Hf14      1.0  0.94867  0.12019  0.86588  1.0000
  Hf  Hf15      1.0  0.94696  0.60466  0.38250  1.0000
  Hf  Hf16      1.0  0.94821  0.60760  0.86794  1.0000
  Hf  Hf17      1.0  0.05689  0.39727  0.11723  1.0000
  Hf  Hf18      1.0  0.05173  0.39271  0.61899  1.0000
  Hf  Hf19      1.0  0.05553  0.90115  0.12692  1.0000
  Hf  Hf20      1.0  0.05858  0.89138  0.62149  1.0000
  Hf  Hf21      1.0  0.29927  0.38934  0.13396  1.0000
  Hf  Hf22      1.0  0.30306  0.39820  0.62349  1.0000
  Hf  Hf23      1.0  0.30881  0.89226  0.12720  1.0000
  Hf  Hf24      1.0  0.30392  0.89677  0.62518  1.0000
  Hf  Hf25      1.0  0.55223  0.38841  0.13239  1.0000
  Hf  Hf26      1.0  0.55125  0.40011  0.62368  1.0000
  Hf  Hf27      1.0  0.55469  0.89178  0.12452  1.0000
  Hf  Hf28      1.0  0.55343  0.89139  0.62490  1.0000
  Hf  Hf29      1.0  0.80329  0.39100  0.12402  1.0000
  Hf  Hf30      1.0  0.80522  0.39734  0.61594  1.0000
  Hf  Hf31      1.0  0.80480  0.88947  0.12238  1.0000
  Hf  Hf32      1.0  0.80164  0.88993  0.62050  1.0000
  Hf  Hf33      1.0  0.05393  0.17385  0.41718  1.0000
  Hf  Hf34      1.0  0.05547  0.18672  0.91177  1.0000
  Hf  Hf35      1.0  0.05437  0.68441  0.41515  1.0000
  Hf  Hf36      1.0  0.05772  0.68270  0.91675  1.0000
  Hf  Hf37      1.0  0.30724  0.18277  0.41594  1.0000
  Hf  Hf38      1.0  0.30524  0.18112  0.91834  1.0000
  Hf  Hf39      1.0  0.30774  0.68842  0.40535  1.0000
  Hf  Hf40      1.0  0.30762  0.68827  0.92222  1.0000
  Hf  Hf41      1.0  0.55499  0.18425  0.41922  1.0000
  Hf  Hf42      1.0  0.55404  0.18106  0.92173  1.0000
  Hf  Hf43      1.0  0.55284  0.68583  0.42227  1.0000
  Hf  Hf44      1.0  0.55277  0.68360  0.91850  1.0000
  Hf  Hf45      1.0  0.80486  0.17963  0.41887  1.0000
  Hf  Hf46      1.0  0.80585  0.17973  0.91700  1.0000
  Hf  Hf47      1.0  0.80663  0.68195  0.41262  1.0000
  Hf  Hf48      1.0  0.80433  0.68411  0.91793  1.0000
  Hf  Hf49      1.0  0.15913  0.38788  0.33308  1.0000
  Hf  Hf50      1.0  0.15944  0.38628  0.82254  1.0000
  Hf  Hf51      1.0  0.15647  0.88652  0.33800  1.0000
  Hf  Hf52      1.0  0.15964  0.88482  0.83989  1.0000
  Hf  Hf53      1.0  0.41062  0.38014  0.34176  1.0000
  Hf  Hf54      1.0  0.41013  0.39718  0.82621  1.0000
  Hf  Hf55      1.0  0.40856  0.89940  0.32335  1.0000
  Hf  Hf56      1.0  0.41032  0.89343  0.83819  1.0000
  Hf  Hf57      1.0  0.65363  0.39079  0.33386  1.0000
  Hf  Hf58      1.0  0.66031  0.38426  0.83070  1.0000
  Hf  Hf59      1.0  0.65890  0.88004  0.33579  1.0000
  Hf  Hf60      1.0  0.65953  0.88088  0.83340  1.0000
  Hf  Hf61      1.0  0.90938  0.38844  0.32984  1.0000
  Hf  Hf62      1.0  0.90619  0.37893  0.83876  1.0000
  Hf  Hf63      1.0  0.90571  0.89081  0.33549  1.0000
  Hf  Hf64      1.0  0.91054  0.89016  0.82870  1.0000
  Hf  Hf65      1.0  0.19401  0.32456  0.07870  1.0000
  Hf  Hf66      1.0  0.19464  0.30938  0.58298  1.0000
  Hf  Hf67      1.0  0.19764  0.82446  0.08282  1.0000
  Hf  Hf68      1.0  0.19283  0.81517  0.58785  1.0000
  Hf  Hf69      1.0  0.44559  0.31689  0.07633  1.0000
  Hf  Hf70      1.0  0.44631  0.32047  0.58060  1.0000
  Hf  Hf71      1.0  0.44616  0.81073  0.09213  1.0000
  Hf  Hf72      1.0  0.43969  0.82507  0.58584  1.0000
  Hf  Hf73      1.0  0.69469  0.31118  0.08338  1.0000
  Hf  Hf74      1.0  0.69801  0.31636  0.57705  1.0000
  Hf  Hf75      1.0  0.69451  0.81208  0.08521  1.0000
  Hf  Hf76      1.0  0.69405  0.81287  0.57717  1.0000
  Hf  Hf77      1.0  0.94244  0.32464  0.08242  1.0000
  Hf  Hf78      1.0  0.94071  0.30892  0.58753  1.0000
  Hf  Hf79      1.0  0.94434  0.81639  0.08036  1.0000
  Hf  Hf80      1.0  0.94288  0.82268  0.58845  1.0000
  Hf  Hf81      1.0  0.09502  0.11299  0.16106  1.0000
  Hf  Hf82      1.0  0.09304  0.11738  0.65671  1.0000
  Hf  Hf83      1.0  0.09087  0.61454  0.16969  1.0000
  Hf  Hf84      1.0  0.09354  0.61453  0.65630  1.0000
  Hf  Hf85      1.0  0.34336  0.11660  0.16054  1.0000
  Hf  Hf86      1.0  0.34451  0.11687  0.66200  1.0000
  Hf  Hf87      1.0  0.34430  0.60211  0.16715  1.0000
  Hf  Hf88      1.0  0.34005  0.62213  0.65731  1.0000
  Hf  Hf89      1.0  0.59237  0.10041  0.17729  1.0000
  Hf  Hf90      1.0  0.59473  0.11338  0.66282  1.0000
  Hf  Hf91      1.0  0.58865  0.60869  0.17200  1.0000
  Hf  Hf92      1.0  0.58864  0.60951  0.67341  1.0000
  Hf  Hf93      1.0  0.83840  0.11381  0.17354  1.0000
  Hf  Hf94      1.0  0.83178  0.10609  0.68132  1.0000
  Hf  Hf95      1.0  0.84342  0.60565  0.16264  1.0000
  Hf  Hf96      1.0  0.84267  0.61151  0.66634  1.0000
  F   F1        1.0  0.07610  0.11351  0.32353  1.0000
  F   F2        1.0  0.08553  0.14320  0.79937  1.0000
  F   F3        1.0  0.08557  0.64050  0.29799  1.0000
  F   F4        1.0  0.08404  0.62295  0.80395  1.0000
  F   F5        1.0  0.32691  0.13283  0.30172  1.0000
  F   F6        1.0  0.33362  0.14385  0.79657  1.0000
  F   F7        1.0  0.32830  0.62253  0.30109  1.0000
  F   F8        1.0  0.33021  0.63296  0.80554  1.0000
  F   F9        1.0  0.58167  0.12058  0.30951  1.0000
  F   F10       1.0  0.58724  0.13777  0.79220  1.0000
  F   F11       1.0  0.57946  0.64457  0.30125  1.0000
  F   F12       1.0  0.57581  0.61727  0.82300  1.0000
  F   F13       1.0  0.82447  0.11223  0.31535  1.0000
  F   F14       1.0  0.82468  0.11203  0.81948  1.0000
  F   F15       1.0  0.83026  0.62079  0.30605  1.0000
  F   F16       1.0  0.82227  0.61139  0.80927  1.0000
  F   F17       1.0  0.17893  0.34530  0.45118  1.0000
  F   F18       1.0  0.18433  0.34961  0.94166  1.0000
  F   F19       1.0  0.18079  0.84311  0.45383  1.0000
  F   F20       1.0  0.18690  0.83830  0.95227  1.0000
  F   F21       1.0  0.43945  0.34076  0.44861  1.0000
  F   F22       1.0  0.43670  0.34180  0.94807  1.0000
  F   F23       1.0  0.42991  0.85752  0.44109  1.0000
  F   F24       1.0  0.43300  0.83804  0.95583  1.0000
  F   F25       1.0  0.67927  0.34566  0.45252  1.0000
  F   F26       1.0  0.68977  0.32628  0.95040  1.0000
  F   F27       1.0  0.68287  0.82606  0.45286  1.0000
  F   F28       1.0  0.69306  0.86113  0.93255  1.0000
  F   F29       1.0  0.93689  0.33764  0.44491  1.0000
  F   F30       1.0  0.92900  0.31557  0.96663  1.0000
  F   F31       1.0  0.93214  0.83871  0.45301  1.0000
  F   F32       1.0  0.93826  0.83596  0.94631  1.0000
  F   F33       1.0  0.17167  0.38805  0.18220  1.0000
  F   F34       1.0  0.17639  0.37980  0.67782  1.0000
  F   F35       1.0  0.17461  0.88438  0.19365  1.0000
  F   F36       1.0  0.17156  0.87038  0.70324  1.0000
  F   F37       1.0  0.42285  0.34467  0.20378  1.0000
  F   F38       1.0  0.40931  0.35138  0.71217  1.0000
  F   F39       1.0  0.42026  0.88770  0.18077  1.0000
  F   F40       1.0  0.41356  0.86997  0.71070  1.0000
  F   F41       1.0  0.66768  0.38582  0.19317  1.0000
  F   F42       1.0  0.67173  0.35820  0.69802  1.0000
  F   F43       1.0  0.66389  0.87149  0.19923  1.0000
  F   F44       1.0  0.67083  0.86488  0.69167  1.0000
  F   F45       1.0  0.92411  0.38454  0.18229  1.0000
  F   F46       1.0  0.91262  0.34804  0.72319  1.0000
  F   F47       1.0  0.92031  0.86493  0.20793  1.0000
  F   F48       1.0  0.92218  0.87568  0.69215  1.0000
  F   F49       1.0  0.06684  0.16268  0.05101  1.0000
  F   F50       1.0  0.05906  0.15083  0.55653  1.0000
  F   F51       1.0  0.06966  0.65954  0.04600  1.0000
  F   F52       1.0  0.07559  0.67979  0.53513  1.0000
  F   F53       1.0  0.30880  0.16066  0.05636  1.0000
  F   F54       1.0  0.32228  0.16132  0.54169  1.0000
  F   F55       1.0  0.31568  0.64341  0.05963  1.0000
  F   F56       1.0  0.31561  0.66587  0.53927  1.0000
  F   F57       1.0  0.56598  0.15298  0.05188  1.0000
  F   F58       1.0  0.56730  0.16896  0.55862  1.0000
  F   F59       1.0  0.56854  0.66403  0.04796  1.0000
  F   F60       1.0  0.55749  0.66486  0.56383  1.0000
  F   F61       1.0  0.81006  0.14345  0.06281  1.0000
  F   F62       1.0  0.80906  0.16647  0.54833  1.0000
  F   F63       1.0  0.81952  0.65844  0.04315  1.0000
  F   F64       1.0  0.81857  0.65400  0.54869  1.0000
  F   F65       1.0  0.20486  0.20645  0.19765  1.0000
  F   F66       1.0  0.20401  0.19100  0.70986  1.0000
  F   F67       1.0  0.20036  0.70781  0.21023  1.0000
  F   F68       1.0  0.20608  0.70925  0.70780  1.0000
  F   F69       1.0  0.46230  0.19391  0.21975  1.0000
  F   F70       1.0  0.46055  0.19249  0.71539  1.0000
  F   F71       1.0  0.46203  0.71435  0.21106  1.0000
  F   F72       1.0  0.45083  0.71439  0.70668  1.0000
  F   F73       1.0  0.69310  0.19965  0.21330  1.0000
  F   F74       1.0  0.70534  0.20230  0.68836  1.0000
  F   F75       1.0  0.69561  0.69009  0.20971  1.0000
  F   F76       1.0  0.69733  0.70167  0.71455  1.0000
  F   F77       1.0  0.95167  0.19875  0.21186  1.0000
  F   F78       1.0  0.95438  0.20432  0.71193  1.0000
  F   F79       1.0  0.94956  0.69461  0.21744  1.0000
  F   F80       1.0  0.95398  0.70539  0.71532  1.0000
  F   F81       1.0  0.15181  0.10692  0.03003  1.0000
  F   F82       1.0  0.15022  0.11291  0.53487  1.0000
  F   F83       1.0  0.15037  0.57931  0.04008  1.0000
  F   F84       1.0  0.15560  0.59009  0.52863  1.0000
  F   F85       1.0  0.39236  0.08936  0.05020  1.0000
  F   F86       1.0  0.40456  0.10088  0.53932  1.0000
  F   F87       1.0  0.39793  0.59607  0.04193  1.0000
  F   F88       1.0  0.39398  0.60058  0.53858  1.0000
  F   F89       1.0  0.65208  0.08302  0.03922  1.0000
  F   F90       1.0  0.64822  0.07625  0.54622  1.0000
  F   F91       1.0  0.65051  0.58060  0.05524  1.0000
  F   F92       1.0  0.64665  0.59197  0.53308  1.0000
  F   F93       1.0  0.89412  0.13915  0.03065  1.0000
  F   F94       1.0  0.88928  0.09489  0.55832  1.0000
  F   F95       1.0  0.89982  0.59043  0.02424  1.0000
  F   F96       1.0  0.90322  0.57823  0.55485  1.0000
  F   F97       1.0  0.15046  0.19016  0.13037  1.0000
  F   F98       1.0  0.15288  0.19980  0.62342  1.0000
  F   F99       1.0  0.15357  0.69346  0.12027  1.0000
  F   F100      1.0  0.15122  0.69039  0.62886  1.0000
  F   F101      1.0  0.41100  0.17976  0.14035  1.0000
  F   F102      1.0  0.40812  0.20312  0.62117  1.0000
  F   F103      1.0  0.41451  0.68087  0.13672  1.0000
  F   F104      1.0  0.39114  0.71477  0.63336  1.0000
  F   F105      1.0  0.64959  0.20140  0.12254  1.0000
  F   F106      1.0  0.65143  0.19510  0.62172  1.0000
  F   F107      1.0  0.64993  0.71058  0.09943  1.0000
  F   F108      1.0  0.64932  0.68845  0.62707  1.0000
  F   F109      1.0  0.89050  0.20860  0.14451  1.0000
  F   F110      1.0  0.89506  0.20815  0.63351  1.0000
  F   F111      1.0  0.90565  0.69636  0.11899  1.0000
  F   F112      1.0  0.89681  0.69886  0.62960  1.0000
  F   F113      1.0  0.10441  0.30452  0.37664  1.0000
  F   F114      1.0  0.10512  0.29940  0.86263  1.0000
  F   F115      1.0  0.09653  0.80510  0.36806  1.0000
  F   F116      1.0  0.09417  0.81814  0.89068  1.0000
  F   F117      1.0  0.34644  0.29940  0.36894  1.0000
  F   F118      1.0  0.34129  0.30601  0.86823  1.0000
  F   F119      1.0  0.35009  0.82080  0.36456  1.0000
  F   F120      1.0  0.35074  0.79969  0.89201  1.0000
  F   F121      1.0  0.59697  0.30206  0.38222  1.0000
  F   F122      1.0  0.59581  0.29945  0.88191  1.0000
  F   F123      1.0  0.59877  0.79867  0.38254  1.0000
  F   F124      1.0  0.59733  0.79394  0.86853  1.0000
  F   F125      1.0  0.85103  0.30756  0.36781  1.0000
  F   F126      1.0  0.84851  0.29722  0.88022  1.0000
  F   F127      1.0  0.84733  0.79884  0.36681  1.0000
  F   F128      1.0  0.85110  0.80329  0.87626  1.0000
  F   F129      1.0  0.06617  0.24814  0.15951  1.0000
  F   F130      1.0  0.06204  0.24658  0.64420  1.0000
  F   F131      1.0  0.06676  0.75306  0.14366  1.0000
  F   F132      1.0  0.06832  0.74638  0.64301  1.0000
  F   F133      1.0  0.32008  0.25259  0.14017  1.0000
  F   F134      1.0  0.32887  0.25170  0.62250  1.0000
  F   F135      1.0  0.32464  0.74492  0.12036  1.0000
  F   F136      1.0  0.30829  0.74890  0.65048  1.0000
  F   F137      1.0  0.56372  0.24419  0.14580  1.0000
  F   F138      1.0  0.55568  0.26283  0.64923  1.0000
  F   F139      1.0  0.56532  0.75410  0.13773  1.0000
  F   F140      1.0  0.55451  0.75308  0.64934  1.0000
  F   F141      1.0  0.80610  0.24521  0.15760  1.0000
  F   F142      1.0  0.81732  0.25699  0.63029  1.0000
  F   F143      1.0  0.82149  0.74453  0.13331  1.0000
  F   F144      1.0  0.81402  0.75431  0.64101  1.0000
  F   F145      1.0  0.13100  0.38393  0.08201  1.0000
  F   F146      1.0  0.12189  0.35649  0.61916  1.0000
  F   F147      1.0  0.12465  0.86698  0.12057  1.0000
  F   F148      1.0  0.12425  0.86361  0.61598  1.0000
  F   F149      1.0  0.37169  0.36494  0.11663  1.0000
  F   F150      1.0  0.37307  0.37937  0.59411  1.0000
  F   F151      1.0  0.37404  0.85021  0.12657  1.0000
  F   F152      1.0  0.37345  0.88929  0.60329  1.0000
  F   F153      1.0  0.62421  0.37135  0.11357  1.0000
  F   F154      1.0  0.62632  0.37588  0.60929  1.0000
  F   F155      1.0  0.62471  0.87632  0.11422  1.0000
  F   F156      1.0  0.62052  0.86226  0.61490  1.0000
  F   F157      1.0  0.87492  0.38339  0.10869  1.0000
  F   F158      1.0  0.87471  0.37595  0.60820  1.0000
  F   F159      1.0  0.87332  0.87227  0.11248  1.0000
  F   F160      1.0  0.87029  0.87396  0.60959  1.0000
  F   F161      1.0  0.19232  0.25408  0.34640  1.0000
  F   F162      1.0  0.18410  0.24829  0.85286  1.0000
  F   F163      1.0  0.18530  0.74947  0.36225  1.0000
  F   F164      1.0  0.19038  0.75131  0.86087  1.0000
  F   F165      1.0  0.42557  0.24298  0.37816  1.0000
  F   F166      1.0  0.43492  0.25933  0.86219  1.0000
  F   F167      1.0  0.42912  0.75697  0.36300  1.0000
  F   F168      1.0  0.43970  0.74398  0.86022  1.0000
  F   F169      1.0  0.68020  0.24694  0.35986  1.0000
  F   F170      1.0  0.68661  0.23972  0.85696  1.0000
  F   F171      1.0  0.68775  0.75040  0.34185  1.0000
  F   F172      1.0  0.68232  0.74089  0.88001  1.0000
  F   F173      1.0  0.93558  0.24776  0.34647  1.0000
  F   F174      1.0  0.94381  0.25264  0.83962  1.0000
  F   F175      1.0  0.93725  0.74188  0.37517  1.0000
  F   F176      1.0  0.93942  0.75322  0.84776  1.0000
  F   F177      1.0  0.12746  0.13216  0.39332  1.0000
  F   F178      1.0  0.12713  0.10902  0.90773  1.0000
  F   F179      1.0  0.12508  0.62420  0.39803  1.0000
  F   F180      1.0  0.12765  0.64728  0.88769  1.0000
  F   F181      1.0  0.37560  0.11479  0.40187  1.0000
  F   F182      1.0  0.37554  0.13184  0.89701  1.0000
  F   F183      1.0  0.38236  0.65563  0.36198  1.0000
  F   F184      1.0  0.37867  0.63328  0.89203  1.0000
  F   F185      1.0  0.62271  0.13562  0.39257  1.0000
  F   F186      1.0  0.62860  0.13566  0.88746  1.0000
  F   F187      1.0  0.62159  0.62833  0.39850  1.0000
  F   F188      1.0  0.62703  0.62869  0.89680  1.0000
  F   F189      1.0  0.87167  0.11118  0.40996  1.0000
  F   F190      1.0  0.87662  0.12796  0.89949  1.0000
  F   F191      1.0  0.87740  0.63142  0.39872  1.0000
  F   F192      1.0  0.87009  0.63391  0.88341  1.0000
  F   F193      1.0  0.01239  0.36567  0.06144  1.0000
  F   F194      1.0  0.00351  0.36030  0.57743  1.0000
  F   F195      1.0  0.00863  0.86888  0.05666  1.0000
  F   F196      1.0  0.00067  0.85874  0.58991  1.0000
  F   F197      1.0  0.25628  0.35676  0.08198  1.0000
  F   F198      1.0  0.26734  0.34287  0.58214  1.0000
  F   F199      1.0  0.26234  0.87598  0.07425  1.0000
  F   F200      1.0  0.25313  0.86586  0.56774  1.0000
  F   F201      1.0  0.50820  0.35485  0.05846  1.0000
  F   F202      1.0  0.50662  0.36109  0.58113  1.0000
  F   F203      1.0  0.51368  0.86221  0.06711  1.0000
  F   F204      1.0  0.50144  0.87901  0.57787  1.0000
  F   F205      1.0  0.75388  0.36023  0.08248  1.0000
  F   F206      1.0  0.76144  0.36920  0.55806  1.0000
  F   F207      1.0  0.75917  0.85345  0.08498  1.0000
  F   F208      1.0  0.75826  0.85452  0.56469  1.0000
  F   F209      1.0  0.06881  0.47928  0.18386  1.0000
  F   F210      1.0  0.07195  0.49421  0.66371  1.0000
  F   F211      1.0  0.07341  0.98979  0.16751  1.0000
  F   F212      1.0  0.07582  0.98243  0.67320  1.0000
  F   F213      1.0  0.31733  0.47624  0.19494  1.0000
  F   F214      1.0  0.32184  0.49108  0.66346  1.0000
  F   F215      1.0  0.31896  0.98616  0.18296  1.0000
  F   F216      1.0  0.31606  0.98950  0.67095  1.0000
  F   F217      1.0  0.56384  0.48795  0.17408  1.0000
  F   F218      1.0  0.56753  0.48901  0.68035  1.0000
  F   F219      1.0  0.57002  0.98104  0.17429  1.0000
  F   F220      1.0  0.56758  0.98275  0.67884  1.0000
  F   F221      1.0  0.82181  0.48550  0.17250  1.0000
  F   F222      1.0  0.81815  0.47137  0.68448  1.0000
  F   F223      1.0  0.81369  0.98162  0.19911  1.0000
  F   F224      1.0  0.81032  0.99227  0.67589  1.0000
  F   F225      1.0  0.24090  0.13449  0.43715  1.0000
  F   F226      1.0  0.24037  0.14140  0.92059  1.0000
  F   F227      1.0  0.24296  0.63550  0.42956  1.0000
  F   F228      1.0  0.24360  0.65310  0.94289  1.0000
  F   F229      1.0  0.48930  0.15625  0.41734  1.0000
  F   F230      1.0  0.48673  0.13384  0.93710  1.0000
  F   F231      1.0  0.48868  0.64580  0.41646  1.0000
  F   F232      1.0  0.48832  0.62785  0.94458  1.0000
  F   F233      1.0  0.73751  0.13113  0.43913  1.0000
  F   F234      1.0  0.73910  0.12589  0.93679  1.0000
  F   F235      1.0  0.74244  0.63994  0.40914  1.0000
  F   F236      1.0  0.74236  0.63745  0.91732  1.0000
  F   F237      1.0  0.98938  0.12028  0.43806  1.0000
  F   F238      1.0  0.99256  0.15135  0.92303  1.0000
  F   F239      1.0  0.99807  0.62658  0.43081  1.0000
  F   F240      1.0  0.99697  0.63899  0.91147  1.0000
  F   F241      1.0  0.18648  0.01718  0.31156  1.0000
  F   F242      1.0  0.18167  0.00278  0.83037  1.0000
  F   F243      1.0  0.18451  0.52099  0.31629  1.0000
  F   F244      1.0  0.17591  0.53354  0.82112  1.0000
  F   F245      1.0  0.43213  0.01767  0.32290  1.0000
  F   F246      1.0  0.43254  0.02244  0.81702  1.0000
  F   F247      1.0  0.43015  0.50801  0.34127  1.0000
  F   F248      1.0  0.44017  0.51815  0.81318  1.0000
  F   F249      1.0  0.67901  0.00976  0.33144  1.0000
  F   F250      1.0  0.68160  0.01368  0.80908  1.0000
  F   F251      1.0  0.67637  0.51557  0.31485  1.0000
  F   F252      1.0  0.68428  0.49756  0.82768  1.0000
  F   F253      1.0  0.93289  0.01119  0.32045  1.0000
  F   F254      1.0  0.93239  0.02196  0.80386  1.0000
  F   F255      1.0  0.92696  0.51765  0.32607  1.0000
  F   F256      1.0  0.92758  0.49779  0.85396  1.0000
  F   F257      1.0  0.00467  0.26282  0.98916  1.0000
  F   F258      1.0  0.98541  0.21899  0.52432  1.0000
  F   F259      1.0  0.99698  0.75206  0.00019  1.0000
  F   F260      1.0  0.99500  0.73401  0.52291  1.0000
  F   F261      1.0  0.25027  0.26681  0.98308  1.0000
  F   F262      1.0  0.25269  0.24994  0.49688  1.0000
  F   F263      1.0  0.25638  0.77058  0.99856  1.0000
  F   F264      1.0  0.24719  0.73803  0.50509  1.0000
  F   F265      1.0  0.49829  0.23080  0.01630  1.0000
  F   F266      1.0  0.50213  0.24508  0.50371  1.0000
  F   F267      1.0  0.50044  0.74524  0.00267  1.0000
  F   F268      1.0  0.49415  0.75188  0.50136  1.0000
  F   F269      1.0  0.75266  0.24214  0.00830  1.0000
  F   F270      1.0  0.75149  0.25787  0.48312  1.0000
  F   F271      1.0  0.75070  0.74484  0.00491  1.0000
  F   F272      1.0  0.74798  0.72989  0.50094  1.0000
  F   F273      1.0  0.12053  0.99860  0.25877  1.0000
  F   F274      1.0  0.12984  0.00775  0.74586  1.0000
  F   F275      1.0  0.12887  0.50534  0.23953  1.0000
  F   F276      1.0  0.12277  0.49289  0.76145  1.0000
  F   F277      1.0  0.37281  0.00237  0.25028  1.0000
  F   F278      1.0  0.37364  0.00269  0.75625  1.0000
  F   F279      1.0  0.38575  0.49810  0.23438  1.0000
  F   F280      1.0  0.38394  0.51117  0.72971  1.0000
  F   F281      1.0  0.63054  0.00235  0.24450  1.0000
  F   F282      1.0  0.61661  0.98151  0.76513  1.0000
  F   F283      1.0  0.61118  0.49420  0.27560  1.0000
  F   F284      1.0  0.62168  0.48492  0.74689  1.0000
  F   F285      1.0  0.88819  0.01281  0.23083  1.0000
  F   F286      1.0  0.86912  0.98688  0.75528  1.0000
  F   F287      1.0  0.87811  0.49594  0.24188  1.0000
  F   F288      1.0  0.87997  0.49208  0.76571  1.0000
  F   F289      1.0  0.03589  0.03740  0.03663  1.0000
  F   F290      1.0  0.05031  0.02218  0.51610  1.0000
  F   F291      1.0  0.04927  0.53429  0.01298  1.0000
  F   F292      1.0  0.04654  0.54467  0.52739  1.0000
  F   F293      1.0  0.29095  0.03819  0.02685  1.0000
  F   F294      1.0  0.29191  0.03518  0.52572  1.0000
  F   F295      1.0  0.30719  0.52490  0.01928  1.0000
  F   F296      1.0  0.30084  0.53032  0.50538  1.0000
  F   F297      1.0  0.54642  0.02627  0.02102  1.0000
  F   F298      1.0  0.52967  0.04415  0.54121  1.0000
  F   F299      1.0  0.54857  0.52538  0.02153  1.0000
  F   F300      1.0  0.53253  0.53999  0.53924  1.0000
  F   F301      1.0  0.78891  0.01588  0.04232  1.0000
  F   F302      1.0  0.78822  0.02823  0.52743  1.0000
  F   F303      1.0  0.78456  0.53622  0.03896  1.0000
  F   F304      1.0  0.79251  0.53291  0.52267  1.0000
  F   F305      1.0  0.23501  0.41106  0.23371  1.0000
  F   F306      1.0  0.23062  0.42784  0.71064  1.0000
  F   F307      1.0  0.23736  0.90010  0.24231  1.0000
  F   F308      1.0  0.23658  0.90366  0.72721  1.0000
  F   F309      1.0  0.48263  0.40703  0.24139  1.0000
  F   F310      1.0  0.48354  0.41571  0.71126  1.0000
  F   F311      1.0  0.47931  0.92365  0.21589  1.0000
  F   F312      1.0  0.48594  0.91361  0.73033  1.0000
  F   F313      1.0  0.73522  0.40727  0.23660  1.0000
  F   F314      1.0  0.73768  0.40018  0.72453  1.0000
  F   F315      1.0  0.73173  0.92083  0.22599  1.0000
  F   F316      1.0  0.73275  0.88420  0.72689  1.0000
  F   F317      1.0  0.99058  0.40344  0.21606  1.0000
  F   F318      1.0  0.98085  0.42878  0.72775  1.0000
  F   F319      1.0  0.98873  0.91071  0.21796  1.0000
  F   F320      1.0  0.98473  0.90682  0.74046  1.0000
  F   F321      1.0  0.22078  0.44728  0.47229  1.0000
  F   F322      1.0  0.21811  0.47559  0.96235  1.0000
  F   F323      1.0  0.19904  0.97449  0.48297  1.0000
  F   F324      1.0  0.20635  0.97506  0.98196  1.0000
  F   F325      1.0  0.45264  0.47086  0.48907  1.0000
  F   F326      1.0  0.44962  0.47052  0.98565  1.0000
  F   F327      1.0  0.45890  0.96926  0.47787  1.0000
  F   F328      1.0  0.45240  0.97853  0.96919  1.0000
  F   F329      1.0  0.70657  0.47872  0.46613  1.0000
  F   F330      1.0  0.71468  0.46594  0.96484  1.0000
  F   F331      1.0  0.71085  0.96481  0.46648  1.0000
  F   F332      1.0  0.71696  0.96808  0.97115  1.0000
  F   F333      1.0  0.95023  0.47128  0.48465  1.0000
  F   F334      1.0  0.95909  0.46379  0.97392  1.0000
  F   F335      1.0  0.95522  0.96231  0.48279  1.0000
  F   F336      1.0  0.94673  0.98580  0.98126  1.0000
  F   F337      1.0  0.01747  0.08644  0.26873  1.0000
  F   F338      1.0  0.01886  0.08747  0.78460  1.0000
  F   F339      1.0  0.01598  0.57882  0.27767  1.0000
  F   F340      1.0  0.01616  0.58403  0.76513  1.0000
  F   F341      1.0  0.26267  0.09450  0.26704  1.0000
  F   F342      1.0  0.26909  0.08916  0.76762  1.0000
  F   F343      1.0  0.26580  0.59740  0.26228  1.0000
  F   F344      1.0  0.26184  0.60075  0.77942  1.0000
  F   F345      1.0  0.52277  0.06468  0.27629  1.0000
  F   F346      1.0  0.52200  0.07652  0.79180  1.0000
  F   F347      1.0  0.51538  0.58041  0.27589  1.0000
  F   F348      1.0  0.51691  0.59601  0.77340  1.0000
  F   F349      1.0  0.75815  0.09411  0.27218  1.0000
  F   F350      1.0  0.75723  0.09813  0.76648  1.0000
  F   F351      1.0  0.76531  0.57722  0.27094  1.0000
  F   F352      1.0  0.76180  0.59450  0.75254  1.0000
  F   F353      1.0  0.09629  0.42217  0.45211  1.0000
  F   F354      1.0  0.10195  0.39276  0.96334  1.0000
  F   F355      1.0  0.09998  0.89735  0.46024  1.0000
  F   F356      1.0  0.09612  0.92094  0.97330  1.0000
  F   F357      1.0  0.35022  0.40394  0.44979  1.0000
  F   F358      1.0  0.35469  0.40034  0.95069  1.0000
  F   F359      1.0  0.34537  0.91611  0.46625  1.0000
  F   F360      1.0  0.35230  0.93006  0.97106  1.0000
  F   F361      1.0  0.59881  0.41556  0.46698  1.0000
  F   F362      1.0  0.60219  0.40008  0.95308  1.0000
  F   F363      1.0  0.60009  0.90235  0.47051  1.0000
  F   F364      1.0  0.60385  0.91239  0.96316  1.0000
  F   F365      1.0  0.85438  0.41489  0.44888  1.0000
  F   F366      1.0  0.84925  0.39671  0.97136  1.0000
  F   F367      1.0  0.84789  0.90122  0.46465  1.0000
  F   F368      1.0  0.85015  0.90341  0.96006  1.0000
  F   F369      1.0  0.04141  0.28218  0.31102  1.0000
  F   F370      1.0  0.04810  0.30592  0.77454  1.0000
  F   F371      1.0  0.04655  0.79976  0.28076  1.0000
  F   F372      1.0  0.04983  0.80712  0.78518  1.0000
  F   F373      1.0  0.29011  0.30072  0.28415  1.0000
  F   F374      1.0  0.28871  0.29783  0.78583  1.0000
  F   F375      1.0  0.29871  0.80242  0.28976  1.0000
  F   F376      1.0  0.30448  0.79715  0.78732  1.0000
  F   F377      1.0  0.55278  0.29371  0.28499  1.0000
  F   F378      1.0  0.54087  0.29627  0.79493  1.0000
  F   F379      1.0  0.54013  0.79543  0.29428  1.0000
  F   F380      1.0  0.54316  0.77784  0.79174  1.0000
  F   F381      1.0  0.80324  0.29210  0.29102  1.0000
  F   F382      1.0  0.79337  0.28803  0.79240  1.0000
  F   F383      1.0  0.79016  0.80060  0.28767  1.0000
  F   F384      1.0  0.79474  0.80386  0.78429  1.0000
