data_image0
_chemical_formula_structural       Hf96F384
_chemical_formula_sum              "Hf96 F384"
_cell_length_a       31.0406
_cell_length_b       15.5168
_cell_length_c       15.5103
_cell_angle_alpha    63.342
_cell_angle_beta     63.342
_cell_angle_gamma    80.1625

_space_group_name_H-M_alt    "P 1"
_space_group_IT_number       1

loop_
  _space_group_symop_operation_xyz
  'x, y, z'

loop_
  _atom_site_type_symbol
  _atom_site_label
  _atom_site_symmetry_multiplicity
  _atom_site_fract_x
  _atom_site_fract_y
  _atom_site_fract_z
  _atom_site_occupancy
  Hf  Hf1       1.0  0.19689  0.10680  0.37130  1.0000
  Hf  Hf2       1.0  0.19819  0.10402  0.87892  1.0000
  Hf  Hf3       1.0  0.19285  0.59613  0.38682  1.0000
  Hf  Hf4       1.0  0.19986  0.60259  0.87426  1.0000
  Hf  Hf5       1.0  0.44362  0.10701  0.37257  1.0000
  Hf  Hf6       1.0  0.44806  0.10832  0.87296  1.0000
  Hf  Hf7       1.0  0.44171  0.60671  0.38339  1.0000
  Hf  Hf8       1.0  0.44801  0.60591  0.87508  1.0000
  Hf  Hf9       1.0  0.69647  0.11285  0.37753  1.0000
  Hf  Hf10      1.0  0.69838  0.09935  0.87348  1.0000
  Hf  Hf11      1.0  0.69603  0.61217  0.37309  1.0000
  Hf  Hf12      1.0  0.69643  0.60715  0.86948  1.0000
  Hf  Hf13      1.0  0.94777  0.10268  0.38467  1.0000
  Hf  Hf14      1.0  0.94677  0.11301  0.87814  1.0000
  Hf  Hf15      1.0  0.94629  0.61571  0.37299  1.0000
  Hf  Hf16      1.0  0.94721  0.61215  0.87286  1.0000
  Hf  Hf17      1.0  0.05315  0.39414  0.12808  1.0000
  Hf  Hf18      1.0  0.05517  0.39678  0.61972  1.0000
  Hf  Hf19      1.0  0.05844  0.89089  0.12075  1.0000
  Hf  Hf20      1.0  0.05204  0.89373  0.63108  1.0000
  Hf  Hf21      1.0  0.30610  0.38665  0.13098  1.0000
  Hf  Hf22      1.0  0.30070  0.38065  0.64405  1.0000
  Hf  Hf23      1.0  0.30141  0.88636  0.13788  1.0000
  Hf  Hf24      1.0  0.30294  0.88826  0.62468  1.0000
  Hf  Hf25      1.0  0.55322  0.38919  0.12039  1.0000
  Hf  Hf26      1.0  0.55303  0.39913  0.62345  1.0000
  Hf  Hf27      1.0  0.55496  0.90203  0.11346  1.0000
  Hf  Hf28      1.0  0.55067  0.88922  0.62688  1.0000
  Hf  Hf29      1.0  0.80577  0.40697  0.11236  1.0000
  Hf  Hf30      1.0  0.80506  0.40314  0.61239  1.0000
  Hf  Hf31      1.0  0.80651  0.89970  0.11532  1.0000
  Hf  Hf32      1.0  0.80508  0.90832  0.61684  1.0000
  Hf  Hf33      1.0  0.05646  0.18597  0.41783  1.0000
  Hf  Hf34      1.0  0.05774  0.18141  0.91841  1.0000
  Hf  Hf35      1.0  0.05471  0.68469  0.41481  1.0000
  Hf  Hf36      1.0  0.05440  0.68109  0.92250  1.0000
  Hf  Hf37      1.0  0.30527  0.18592  0.42437  1.0000
  Hf  Hf38      1.0  0.30651  0.16742  0.92744  1.0000
  Hf  Hf39      1.0  0.30399  0.68361  0.42333  1.0000
  Hf  Hf40      1.0  0.30763  0.66406  0.92445  1.0000
  Hf  Hf41      1.0  0.55353  0.17625  0.42125  1.0000
  Hf  Hf42      1.0  0.55631  0.18299  0.91132  1.0000
  Hf  Hf43      1.0  0.55467  0.69316  0.41226  1.0000
  Hf  Hf44      1.0  0.55397  0.68162  0.92138  1.0000
  Hf  Hf45      1.0  0.80661  0.17955  0.41741  1.0000
  Hf  Hf46      1.0  0.80545  0.19188  0.91367  1.0000
  Hf  Hf47      1.0  0.80287  0.68956  0.41456  1.0000
  Hf  Hf48      1.0  0.80416  0.69049  0.91394  1.0000
  Hf  Hf49      1.0  0.16199  0.39159  0.32973  1.0000
  Hf  Hf50      1.0  0.15865  0.38669  0.83840  1.0000
  Hf  Hf51      1.0  0.15891  0.87431  0.33811  1.0000
  Hf  Hf52      1.0  0.16002  0.88638  0.82736  1.0000
  Hf  Hf53      1.0  0.40862  0.38299  0.32466  1.0000
  Hf  Hf54      1.0  0.40994  0.38303  0.83775  1.0000
  Hf  Hf55      1.0  0.40950  0.88794  0.32889  1.0000
  Hf  Hf56      1.0  0.40635  0.89075  0.83184  1.0000
  Hf  Hf57      1.0  0.66464  0.39872  0.32931  1.0000
  Hf  Hf58      1.0  0.65698  0.38319  0.83678  1.0000
  Hf  Hf59      1.0  0.65490  0.88997  0.33587  1.0000
  Hf  Hf60      1.0  0.65634  0.87908  0.83638  1.0000
  Hf  Hf61      1.0  0.90787  0.39054  0.33093  1.0000
  Hf  Hf62      1.0  0.90807  0.38417  0.83379  1.0000
  Hf  Hf63      1.0  0.91033  0.88611  0.32915  1.0000
  Hf  Hf64      1.0  0.90741  0.89125  0.83047  1.0000
  Hf  Hf65      1.0  0.19908  0.31125  0.08729  1.0000
  Hf  Hf66      1.0  0.19279  0.31581  0.58950  1.0000
  Hf  Hf67      1.0  0.19681  0.81174  0.08487  1.0000
  Hf  Hf68      1.0  0.19239  0.81911  0.58347  1.0000
  Hf  Hf69      1.0  0.44492  0.31264  0.08277  1.0000
  Hf  Hf70      1.0  0.44261  0.32233  0.57525  1.0000
  Hf  Hf71      1.0  0.44565  0.82016  0.07453  1.0000
  Hf  Hf72      1.0  0.44022  0.81350  0.58976  1.0000
  Hf  Hf73      1.0  0.69613  0.31317  0.07924  1.0000
  Hf  Hf74      1.0  0.69366  0.31786  0.58784  1.0000
  Hf  Hf75      1.0  0.69336  0.81947  0.08418  1.0000
  Hf  Hf76      1.0  0.69568  0.82094  0.57754  1.0000
  Hf  Hf77      1.0  0.94385  0.32166  0.07743  1.0000
  Hf  Hf78      1.0  0.94383  0.32152  0.57777  1.0000
  Hf  Hf79      1.0  0.94200  0.81454  0.08652  1.0000
  Hf  Hf80      1.0  0.94490  0.82170  0.58122  1.0000
  Hf  Hf81      1.0  0.09417  0.11576  0.16715  1.0000
  Hf  Hf82      1.0  0.08911  0.11240  0.66683  1.0000
  Hf  Hf83      1.0  0.09158  0.60925  0.16544  1.0000
  Hf  Hf84      1.0  0.08992  0.61015  0.67999  1.0000
  Hf  Hf85      1.0  0.34403  0.11000  0.16705  1.0000
  Hf  Hf86      1.0  0.34442  0.10667  0.66431  1.0000
  Hf  Hf87      1.0  0.33680  0.60557  0.17521  1.0000
  Hf  Hf88      1.0  0.34272  0.59929  0.67545  1.0000
  Hf  Hf89      1.0  0.58804  0.10613  0.16977  1.0000
  Hf  Hf90      1.0  0.59198  0.11051  0.66623  1.0000
  Hf  Hf91      1.0  0.58493  0.61462  0.17560  1.0000
  Hf  Hf92      1.0  0.59466  0.61549  0.66322  1.0000
  Hf  Hf93      1.0  0.84199  0.10936  0.17182  1.0000
  Hf  Hf94      1.0  0.84483  0.11596  0.66282  1.0000
  Hf  Hf95      1.0  0.84030  0.61692  0.16245  1.0000
  Hf  Hf96      1.0  0.84393  0.61882  0.66236  1.0000
  F   F1        1.0  0.07553  0.12331  0.31696  1.0000
  F   F2        1.0  0.08090  0.12917  0.80411  1.0000
  F   F3        1.0  0.08254  0.63215  0.29630  1.0000
  F   F4        1.0  0.07596  0.61652  0.81762  1.0000
  F   F5        1.0  0.33268  0.14892  0.30031  1.0000
  F   F6        1.0  0.34306  0.14518  0.79389  1.0000
  F   F7        1.0  0.32440  0.61870  0.31788  1.0000
  F   F8        1.0  0.32952  0.62078  0.80174  1.0000
  F   F9        1.0  0.57537  0.12139  0.30494  1.0000
  F   F10       1.0  0.56864  0.11700  0.81923  1.0000
  F   F11       1.0  0.57689  0.62885  0.30982  1.0000
  F   F12       1.0  0.58423  0.63694  0.79734  1.0000
  F   F13       1.0  0.83879  0.14481  0.29210  1.0000
  F   F14       1.0  0.83160  0.12125  0.80583  1.0000
  F   F15       1.0  0.83279  0.63464  0.29753  1.0000
  F   F16       1.0  0.82514  0.63239  0.80889  1.0000
  F   F17       1.0  0.19195  0.33883  0.44823  1.0000
  F   F18       1.0  0.17847  0.32690  0.95959  1.0000
  F   F19       1.0  0.18016  0.82819  0.45801  1.0000
  F   F20       1.0  0.18834  0.83607  0.95216  1.0000
  F   F21       1.0  0.44495  0.32825  0.43694  1.0000
  F   F22       1.0  0.44526  0.35186  0.93238  1.0000
  F   F23       1.0  0.43505  0.84431  0.44604  1.0000
  F   F24       1.0  0.43308  0.83392  0.95025  1.0000
  F   F25       1.0  0.69153  0.33969  0.44521  1.0000
  F   F26       1.0  0.68997  0.35257  0.94091  1.0000
  F   F27       1.0  0.68770  0.85169  0.44287  1.0000
  F   F28       1.0  0.66918  0.82515  0.96274  1.0000
  F   F29       1.0  0.93406  0.34971  0.43942  1.0000
  F   F30       1.0  0.93953  0.35322  0.93371  1.0000
  F   F31       1.0  0.93458  0.82570  0.44804  1.0000
  F   F32       1.0  0.93228  0.84738  0.94539  1.0000
  F   F33       1.0  0.16694  0.36700  0.19720  1.0000
  F   F34       1.0  0.17606  0.38207  0.68917  1.0000
  F   F35       1.0  0.17822  0.86676  0.19678  1.0000
  F   F36       1.0  0.16394  0.85938  0.69953  1.0000
  F   F37       1.0  0.41657  0.38052  0.18681  1.0000
  F   F38       1.0  0.41965  0.35841  0.70448  1.0000
  F   F39       1.0  0.42085  0.89507  0.18099  1.0000
  F   F40       1.0  0.41690  0.87553  0.69450  1.0000
  F   F41       1.0  0.68147  0.37661  0.18345  1.0000
  F   F42       1.0  0.67700  0.37650  0.69052  1.0000
  F   F43       1.0  0.67510  0.86477  0.19271  1.0000
  F   F44       1.0  0.67278  0.86580  0.69075  1.0000
  F   F45       1.0  0.91551  0.37444  0.20102  1.0000
  F   F46       1.0  0.92113  0.36803  0.69319  1.0000
  F   F47       1.0  0.91795  0.88879  0.17428  1.0000
  F   F48       1.0  0.92195  0.87500  0.69020  1.0000
  F   F49       1.0  0.06626  0.17141  0.04719  1.0000
  F   F50       1.0  0.06390  0.15043  0.55182  1.0000
  F   F51       1.0  0.06124  0.65094  0.05656  1.0000
  F   F52       1.0  0.05740  0.65976  0.55910  1.0000
  F   F53       1.0  0.30471  0.14309  0.07980  1.0000
  F   F54       1.0  0.32465  0.16626  0.54640  1.0000
  F   F55       1.0  0.31276  0.65644  0.06212  1.0000
  F   F56       1.0  0.31658  0.64990  0.56336  1.0000
  F   F57       1.0  0.57029  0.16593  0.03693  1.0000
  F   F58       1.0  0.57411  0.16563  0.53964  1.0000
  F   F59       1.0  0.54412  0.63965  0.07582  1.0000
  F   F60       1.0  0.56595  0.65995  0.54804  1.0000
  F   F61       1.0  0.82890  0.17848  0.04595  1.0000
  F   F62       1.0  0.82015  0.16079  0.54623  1.0000
  F   F63       1.0  0.81270  0.65844  0.04420  1.0000
  F   F64       1.0  0.80711  0.65459  0.57042  1.0000
  F   F65       1.0  0.21423  0.19678  0.21111  1.0000
  F   F66       1.0  0.19643  0.20431  0.71496  1.0000
  F   F67       1.0  0.19732  0.69133  0.21326  1.0000
  F   F68       1.0  0.20703  0.69191  0.71785  1.0000
  F   F69       1.0  0.45503  0.19483  0.20853  1.0000
  F   F70       1.0  0.44905  0.19630  0.72702  1.0000
  F   F71       1.0  0.45341  0.70219  0.21063  1.0000
  F   F72       1.0  0.44353  0.70481  0.72461  1.0000
  F   F73       1.0  0.70101  0.19568  0.21175  1.0000
  F   F74       1.0  0.70318  0.19932  0.70848  1.0000
  F   F75       1.0  0.71322  0.70915  0.20699  1.0000
  F   F76       1.0  0.70914  0.70315  0.70231  1.0000
  F   F77       1.0  0.94485  0.21341  0.20471  1.0000
  F   F78       1.0  0.95493  0.20351  0.69473  1.0000
  F   F79       1.0  0.93659  0.70563  0.22056  1.0000
  F   F80       1.0  0.95781  0.70754  0.70646  1.0000
  F   F81       1.0  0.15453  0.11943  0.03406  1.0000
  F   F82       1.0  0.14896  0.09181  0.51944  1.0000
  F   F83       1.0  0.14742  0.58752  0.03392  1.0000
  F   F84       1.0  0.14554  0.61134  0.54200  1.0000
  F   F85       1.0  0.39961  0.08282  0.04752  1.0000
  F   F86       1.0  0.40398  0.07765  0.54667  1.0000
  F   F87       1.0  0.40493  0.58788  0.03027  1.0000
  F   F88       1.0  0.39802  0.58421  0.54815  1.0000
  F   F89       1.0  0.65257  0.07239  0.02957  1.0000
  F   F90       1.0  0.64683  0.09345  0.52981  1.0000
  F   F91       1.0  0.63662  0.60951  0.04631  1.0000
  F   F92       1.0  0.65124  0.59317  0.53643  1.0000
  F   F93       1.0  0.89749  0.07679  0.04946  1.0000
  F   F94       1.0  0.90570  0.08343  0.53592  1.0000
  F   F95       1.0  0.89777  0.59927  0.02409  1.0000
  F   F96       1.0  0.90773  0.61389  0.52653  1.0000
  F   F97       1.0  0.15209  0.20573  0.13074  1.0000
  F   F98       1.0  0.14939  0.18315  0.62151  1.0000
  F   F99       1.0  0.15551  0.68435  0.11261  1.0000
  F   F100      1.0  0.15369  0.69491  0.63984  1.0000
  F   F101      1.0  0.40521  0.19141  0.12176  1.0000
  F   F102      1.0  0.40043  0.20074  0.62294  1.0000
  F   F103      1.0  0.39993  0.68015  0.12496  1.0000
  F   F104      1.0  0.40331  0.69387  0.61419  1.0000
  F   F105      1.0  0.64601  0.19089  0.10098  1.0000
  F   F106      1.0  0.65188  0.18384  0.63942  1.0000
  F   F107      1.0  0.65188  0.69468  0.14282  1.0000
  F   F108      1.0  0.65305  0.70458  0.61281  1.0000
  F   F109      1.0  0.90041  0.20365  0.10620  1.0000
  F   F110      1.0  0.90599  0.19406  0.60835  1.0000
  F   F111      1.0  0.89660  0.70018  0.11587  1.0000
  F   F112      1.0  0.90478  0.68906  0.63481  1.0000
  F   F113      1.0  0.10180  0.30314  0.37349  1.0000
  F   F114      1.0  0.10458  0.30350  0.85857  1.0000
  F   F115      1.0  0.09844  0.79304  0.36826  1.0000
  F   F116      1.0  0.09751  0.81405  0.89321  1.0000
  F   F117      1.0  0.34680  0.29980  0.37233  1.0000
  F   F118      1.0  0.35051  0.27500  0.89230  1.0000
  F   F119      1.0  0.34430  0.80322  0.36774  1.0000
  F   F120      1.0  0.34648  0.79427  0.86878  1.0000
  F   F121      1.0  0.61077  0.32328  0.37156  1.0000
  F   F122      1.0  0.60323  0.30451  0.85768  1.0000
  F   F123      1.0  0.59674  0.81009  0.36818  1.0000
  F   F124      1.0  0.60078  0.79398  0.86834  1.0000
  F   F125      1.0  0.85152  0.30355  0.37725  1.0000
  F   F126      1.0  0.84615  0.31015  0.86513  1.0000
  F   F127      1.0  0.85245  0.79544  0.38024  1.0000
  F   F128      1.0  0.84808  0.81081  0.86323  1.0000
  F   F129      1.0  0.07144  0.25842  0.12005  1.0000
  F   F130      1.0  0.06452  0.26200  0.62730  1.0000
  F   F131      1.0  0.06941  0.75802  0.11785  1.0000
  F   F132      1.0  0.06759  0.74730  0.65050  1.0000
  F   F133      1.0  0.31409  0.24326  0.15086  1.0000
  F   F134      1.0  0.30504  0.24638  0.66057  1.0000
  F   F135      1.0  0.30717  0.74772  0.15576  1.0000
  F   F136      1.0  0.31495  0.74676  0.64235  1.0000
  F   F137      1.0  0.55445  0.24351  0.15761  1.0000
  F   F138      1.0  0.56638  0.25966  0.62802  1.0000
  F   F139      1.0  0.56520  0.75875  0.13125  1.0000
  F   F140      1.0  0.56792  0.75954  0.62460  1.0000
  F   F141      1.0  0.79813  0.27152  0.15925  1.0000
  F   F142      1.0  0.81745  0.25613  0.63317  1.0000
  F   F143      1.0  0.80933  0.75490  0.14452  1.0000
  F   F144      1.0  0.82513  0.75876  0.62480  1.0000
  F   F145      1.0  0.12393  0.37224  0.10029  1.0000
  F   F146      1.0  0.12250  0.34610  0.62712  1.0000
  F   F147      1.0  0.12278  0.84861  0.13128  1.0000
  F   F148      1.0  0.12405  0.89908  0.58041  1.0000
  F   F149      1.0  0.37642  0.35535  0.10277  1.0000
  F   F150      1.0  0.37549  0.38313  0.59054  1.0000
  F   F151      1.0  0.37407  0.86258  0.11069  1.0000
  F   F152      1.0  0.37557  0.86783  0.59747  1.0000
  F   F153      1.0  0.62424  0.35463  0.11216  1.0000
  F   F154      1.0  0.61882  0.36481  0.63154  1.0000
  F   F155      1.0  0.62359  0.88343  0.11037  1.0000
  F   F156      1.0  0.62437  0.88371  0.60522  1.0000
  F   F157      1.0  0.87467  0.38162  0.09427  1.0000
  F   F158      1.0  0.87298  0.35962  0.61932  1.0000
  F   F159      1.0  0.87426  0.86306  0.11188  1.0000
  F   F160      1.0  0.87826  0.88268  0.59313  1.0000
  F   F161      1.0  0.18606  0.25656  0.35582  1.0000
  F   F162      1.0  0.19888  0.24968  0.84452  1.0000
  F   F163      1.0  0.18631  0.74150  0.35255  1.0000
  F   F164      1.0  0.18982  0.75424  0.85432  1.0000
  F   F165      1.0  0.42886  0.24145  0.35693  1.0000
  F   F166      1.0  0.43963  0.25106  0.86130  1.0000
  F   F167      1.0  0.42138  0.74430  0.38187  1.0000
  F   F168      1.0  0.43891  0.74242  0.85951  1.0000
  F   F169      1.0  0.69575  0.24948  0.35261  1.0000
  F   F170      1.0  0.68815  0.25128  0.84776  1.0000
  F   F171      1.0  0.67775  0.75623  0.36558  1.0000
  F   F172      1.0  0.69441  0.74904  0.84806  1.0000
  F   F173      1.0  0.94406  0.24771  0.34104  1.0000
  F   F174      1.0  0.92807  0.25207  0.86701  1.0000
  F   F175      1.0  0.93979  0.75588  0.33776  1.0000
  F   F176      1.0  0.93646  0.75995  0.84682  1.0000
  F   F177      1.0  0.12914  0.14541  0.37237  1.0000
  F   F178      1.0  0.12511  0.12038  0.90020  1.0000
  F   F179      1.0  0.12449  0.61284  0.40309  1.0000
  F   F180      1.0  0.12355  0.65866  0.87584  1.0000
  F   F181      1.0  0.37449  0.12910  0.39636  1.0000
  F   F182      1.0  0.37330  0.11062  0.90894  1.0000
  F   F183      1.0  0.37172  0.61942  0.39558  1.0000
  F   F184      1.0  0.37182  0.60909  0.91515  1.0000
  F   F185      1.0  0.62685  0.15912  0.36272  1.0000
  F   F186      1.0  0.62316  0.13077  0.88184  1.0000
  F   F187      1.0  0.62960  0.64631  0.37821  1.0000
  F   F188      1.0  0.62628  0.63394  0.89103  1.0000
  F   F189      1.0  0.87698  0.13117  0.39807  1.0000
  F   F190      1.0  0.87314  0.14283  0.88605  1.0000
  F   F191      1.0  0.87047  0.62135  0.41979  1.0000
  F   F192      1.0  0.87786  0.64914  0.86933  1.0000
  F   F193      1.0  0.00759  0.36131  0.08172  1.0000
  F   F194      1.0  0.00938  0.36418  0.56886  1.0000
  F   F195      1.0  0.00670  0.86062  0.08225  1.0000
  F   F196      1.0  0.00792  0.85401  0.59225  1.0000
  F   F197      1.0  0.26024  0.36873  0.07732  1.0000
  F   F198      1.0  0.25773  0.36863  0.57501  1.0000
  F   F199      1.0  0.26071  0.86993  0.06459  1.0000
  F   F200      1.0  0.25224  0.85783  0.57799  1.0000
  F   F201      1.0  0.50649  0.36110  0.07314  1.0000
  F   F202      1.0  0.50406  0.36829  0.56597  1.0000
  F   F203      1.0  0.50308  0.86033  0.06974  1.0000
  F   F204      1.0  0.49858  0.86909  0.58222  1.0000
  F   F205      1.0  0.75785  0.36660  0.03663  1.0000
  F   F206      1.0  0.76364  0.37700  0.55841  1.0000
  F   F207      1.0  0.75840  0.86369  0.05936  1.0000
  F   F208      1.0  0.75678  0.86048  0.57587  1.0000
  F   F209      1.0  0.06391  0.48021  0.19371  1.0000
  F   F210      1.0  0.07789  0.47997  0.67585  1.0000
  F   F211      1.0  0.07383  0.99191  0.16059  1.0000
  F   F212      1.0  0.06685  0.97952  0.69023  1.0000
  F   F213      1.0  0.32119  0.48132  0.18057  1.0000
  F   F214      1.0  0.31799  0.46227  0.70586  1.0000
  F   F215      1.0  0.31597  0.97820  0.18263  1.0000
  F   F216      1.0  0.31740  0.98754  0.67851  1.0000
  F   F217      1.0  0.57346  0.47922  0.15838  1.0000
  F   F218      1.0  0.56473  0.48996  0.67672  1.0000
  F   F219      1.0  0.56629  0.99633  0.15889  1.0000
  F   F220      1.0  0.56943  0.99633  0.66435  1.0000
  F   F221      1.0  0.82571  0.48654  0.17006  1.0000
  F   F222      1.0  0.82380  0.47681  0.67238  1.0000
  F   F223      1.0  0.81523  0.98732  0.17470  1.0000
  F   F224      1.0  0.82082  0.98714  0.66987  1.0000
  F   F225      1.0  0.23665  0.13803  0.43930  1.0000
  F   F226      1.0  0.24238  0.13193  0.93544  1.0000
  F   F227      1.0  0.23765  0.63124  0.43309  1.0000
  F   F228      1.0  0.24382  0.62810  0.92975  1.0000
  F   F229      1.0  0.49073  0.14289  0.42664  1.0000
  F   F230      1.0  0.48784  0.13177  0.93302  1.0000
  F   F231      1.0  0.48621  0.63949  0.42772  1.0000
  F   F232      1.0  0.49805  0.62259  0.92352  1.0000
  F   F233      1.0  0.74315  0.12747  0.43770  1.0000
  F   F234      1.0  0.74559  0.14051  0.91065  1.0000
  F   F235      1.0  0.74231  0.65497  0.41007  1.0000
  F   F236      1.0  0.73954  0.63477  0.92613  1.0000
  F   F237      1.0  0.98838  0.13130  0.44119  1.0000
  F   F238      1.0  0.99229  0.14964  0.91057  1.0000
  F   F239      1.0  0.99393  0.64039  0.42220  1.0000
  F   F240      1.0  0.99498  0.64657  0.92359  1.0000
  F   F241      1.0  0.17995  0.00715  0.33661  1.0000
  F   F242      1.0  0.18293  0.01374  0.82862  1.0000
  F   F243      1.0  0.18276  0.50481  0.32861  1.0000
  F   F244      1.0  0.17855  0.50338  0.84901  1.0000
  F   F245      1.0  0.42125  0.01569  0.33148  1.0000
  F   F246      1.0  0.42598  0.01289  0.82390  1.0000
  F   F247      1.0  0.43518  0.49790  0.32471  1.0000
  F   F248      1.0  0.43021  0.51022  0.83626  1.0000
  F   F249      1.0  0.68094  0.01567  0.32178  1.0000
  F   F250      1.0  0.67547  0.00973  0.84097  1.0000
  F   F251      1.0  0.68137  0.53057  0.31641  1.0000
  F   F252      1.0  0.68620  0.52086  0.79939  1.0000
  F   F253      1.0  0.93490  0.01407  0.32382  1.0000
  F   F254      1.0  0.92866  0.02611  0.82013  1.0000
  F   F255      1.0  0.93066  0.52242  0.32056  1.0000
  F   F256      1.0  0.92648  0.52010  0.82975  1.0000
  F   F257      1.0  0.00316  0.25666  0.98593  1.0000
  F   F258      1.0  0.00059  0.25205  0.49470  1.0000
  F   F259      1.0  0.99750  0.76035  0.99370  1.0000
  F   F260      1.0  0.00080  0.77267  0.47881  1.0000
  F   F261      1.0  0.25033  0.25232  0.00064  1.0000
  F   F262      1.0  0.24980  0.24039  0.52808  1.0000
  F   F263      1.0  0.25406  0.74269  0.00561  1.0000
  F   F264      1.0  0.24312  0.73207  0.52324  1.0000
  F   F265      1.0  0.50479  0.25713  0.99132  1.0000
  F   F266      1.0  0.50365  0.23349  0.51992  1.0000
  F   F267      1.0  0.50218  0.76160  0.98435  1.0000
  F   F268      1.0  0.49830  0.75775  0.50101  1.0000
  F   F269      1.0  0.74478  0.22382  0.02841  1.0000
  F   F270      1.0  0.75321  0.25532  0.50220  1.0000
  F   F271      1.0  0.74645  0.74357  0.99998  1.0000
  F   F272      1.0  0.75092  0.75349  0.50311  1.0000
  F   F273      1.0  0.12789  0.98923  0.25210  1.0000
  F   F274      1.0  0.12507  0.00207  0.74176  1.0000
  F   F275      1.0  0.12231  0.49555  0.25911  1.0000
  F   F276      1.0  0.13473  0.50266  0.75168  1.0000
  F   F277      1.0  0.36465  0.98759  0.27257  1.0000
  F   F278      1.0  0.36371  0.98958  0.76750  1.0000
  F   F279      1.0  0.36612  0.48590  0.26700  1.0000
  F   F280      1.0  0.37835  0.49457  0.75207  1.0000
  F   F281      1.0  0.62653  0.00416  0.24560  1.0000
  F   F282      1.0  0.62716  0.00471  0.75646  1.0000
  F   F283      1.0  0.61988  0.49974  0.25103  1.0000
  F   F284      1.0  0.61774  0.49618  0.75960  1.0000
  F   F285      1.0  0.87492  0.00328  0.25165  1.0000
  F   F286      1.0  0.88169  0.00830  0.73039  1.0000
  F   F287      1.0  0.87750  0.51341  0.23913  1.0000
  F   F288      1.0  0.87565  0.49594  0.74247  1.0000
  F   F289      1.0  0.04006  0.03694  0.02501  1.0000
  F   F290      1.0  0.04386  0.03083  0.51807  1.0000
  F   F291      1.0  0.04745  0.52297  0.01744  1.0000
  F   F292      1.0  0.03707  0.52745  0.52691  1.0000
  F   F293      1.0  0.29175  0.02334  0.02729  1.0000
  F   F294      1.0  0.29792  0.02802  0.52032  1.0000
  F   F295      1.0  0.29139  0.51778  0.03893  1.0000
  F   F296      1.0  0.29572  0.52761  0.53940  1.0000
  F   F297      1.0  0.53974  0.03613  0.01167  1.0000
  F   F298      1.0  0.54347  0.02476  0.52624  1.0000
  F   F299      1.0  0.55349  0.52312  0.99331  1.0000
  F   F300      1.0  0.53702  0.53339  0.52321  1.0000
  F   F301      1.0  0.78876  0.02575  0.02989  1.0000
  F   F302      1.0  0.79746  0.03333  0.51532  1.0000
  F   F303      1.0  0.78686  0.54253  0.02443  1.0000
  F   F304      1.0  0.78381  0.53734  0.53024  1.0000
  F   F305      1.0  0.23583  0.42075  0.22594  1.0000
  F   F306      1.0  0.23609  0.42903  0.72579  1.0000
  F   F307      1.0  0.23354  0.89276  0.24921  1.0000
  F   F308      1.0  0.22990  0.92281  0.71255  1.0000
  F   F309      1.0  0.48935  0.37385  0.24151  1.0000
  F   F310      1.0  0.48323  0.41758  0.72068  1.0000
  F   F311      1.0  0.48397  0.92024  0.22663  1.0000
  F   F312      1.0  0.48142  0.92320  0.71945  1.0000
  F   F313      1.0  0.73679  0.42257  0.22758  1.0000
  F   F314      1.0  0.73456  0.41975  0.72018  1.0000
  F   F315      1.0  0.73685  0.90870  0.22321  1.0000
  F   F316      1.0  0.73322  0.92680  0.72837  1.0000
  F   F317      1.0  0.98300  0.42315  0.23291  1.0000
  F   F318      1.0  0.97995  0.43561  0.72117  1.0000
  F   F319      1.0  0.98446  0.90952  0.21416  1.0000
  F   F320      1.0  0.98307  0.92648  0.72551  1.0000
  F   F321      1.0  0.19668  0.46901  0.49675  1.0000
  F   F322      1.0  0.21175  0.45667  0.97557  1.0000
  F   F323      1.0  0.20746  0.96640  0.47775  1.0000
  F   F324      1.0  0.19459  0.97671  0.00009  1.0000
  F   F325      1.0  0.45112  0.47375  0.48582  1.0000
  F   F326      1.0  0.45805  0.46880  0.96983  1.0000
  F   F327      1.0  0.46364  0.97897  0.45720  1.0000
  F   F328      1.0  0.46976  0.96356  0.94738  1.0000
  F   F329      1.0  0.70572  0.47816  0.48091  1.0000
  F   F330      1.0  0.69221  0.47974  0.98497  1.0000
  F   F331      1.0  0.71232  0.97589  0.46864  1.0000
  F   F332      1.0  0.71473  0.95921  0.95946  1.0000
  F   F333      1.0  0.95671  0.47939  0.46612  1.0000
  F   F334      1.0  0.95379  0.46821  0.97868  1.0000
  F   F335      1.0  0.96406  0.96691  0.47620  1.0000
  F   F336      1.0  0.95543  0.97376  0.96912  1.0000
  F   F337      1.0  0.01312  0.10013  0.25652  1.0000
  F   F338      1.0  0.01343  0.09497  0.76968  1.0000
  F   F339      1.0  0.01309  0.60590  0.25482  1.0000
  F   F340      1.0  0.01414  0.57469  0.78231  1.0000
  F   F341      1.0  0.27115  0.07805  0.28946  1.0000
  F   F342      1.0  0.26959  0.08287  0.78546  1.0000
  F   F343      1.0  0.26242  0.58588  0.27384  1.0000
  F   F344      1.0  0.26947  0.56171  0.78314  1.0000
  F   F345      1.0  0.51345  0.08525  0.26755  1.0000
  F   F346      1.0  0.51313  0.10115  0.75429  1.0000
  F   F347      1.0  0.51460  0.58132  0.28080  1.0000
  F   F348      1.0  0.51641  0.59721  0.76704  1.0000
  F   F349      1.0  0.76641  0.09301  0.27011  1.0000
  F   F350      1.0  0.76928  0.09387  0.75980  1.0000
  F   F351      1.0  0.76508  0.57872  0.26752  1.0000
  F   F352      1.0  0.77021  0.58894  0.76915  1.0000
  F   F353      1.0  0.10819  0.41481  0.45658  1.0000
  F   F354      1.0  0.09717  0.41089  0.94630  1.0000
  F   F355      1.0  0.09570  0.88985  0.45543  1.0000
  F   F356      1.0  0.10495  0.91818  0.96543  1.0000
  F   F357      1.0  0.35281  0.38883  0.46201  1.0000
  F   F358      1.0  0.34921  0.39707  0.96700  1.0000
  F   F359      1.0  0.34215  0.89766  0.47386  1.0000
  F   F360      1.0  0.35301  0.89511  0.96135  1.0000
  F   F361      1.0  0.60779  0.42349  0.47382  1.0000
  F   F362      1.0  0.60130  0.39738  0.96706  1.0000
  F   F363      1.0  0.60047  0.91434  0.45527  1.0000
  F   F364      1.0  0.58848  0.89926  0.95744  1.0000
  F   F365      1.0  0.85472  0.41900  0.45722  1.0000
  F   F366      1.0  0.84582  0.41990  0.95755  1.0000
  F   F367      1.0  0.85392  0.90796  0.44623  1.0000
  F   F368      1.0  0.85038  0.91614  0.95700  1.0000
  F   F369      1.0  0.04099  0.30011  0.29434  1.0000
  F   F370      1.0  0.04020  0.31487  0.78043  1.0000
  F   F371      1.0  0.03846  0.80294  0.29487  1.0000
  F   F372      1.0  0.05942  0.80730  0.77684  1.0000
  F   F373      1.0  0.29880  0.30528  0.28980  1.0000
  F   F374      1.0  0.29822  0.29512  0.79930  1.0000
  F   F375      1.0  0.29205  0.79167  0.29442  1.0000
  F   F376      1.0  0.29755  0.79276  0.78345  1.0000
  F   F377      1.0  0.54749  0.30030  0.30775  1.0000
  F   F378      1.0  0.53777  0.29523  0.79696  1.0000
  F   F379      1.0  0.54353  0.80056  0.29327  1.0000
  F   F380      1.0  0.53949  0.80243  0.78958  1.0000
  F   F381      1.0  0.80239  0.29640  0.29709  1.0000
  F   F382      1.0  0.78788  0.28838  0.80196  1.0000
  F   F383      1.0  0.79866  0.80171  0.28755  1.0000
  F   F384      1.0  0.79320  0.81021  0.77207  1.0000
