data_image0
_chemical_formula_structural       Hf96F384
_chemical_formula_sum              "Hf96 F384"
_cell_length_a       31.0307
_cell_length_b       15.5181
_cell_length_c       15.511
_cell_angle_alpha    63.342
_cell_angle_beta     63.342
_cell_angle_gamma    80.1625

_space_group_name_H-M_alt    "P 1"
_space_group_IT_number       1

loop_
  _space_group_symop_operation_xyz
  'x, y, z'

loop_
  _atom_site_type_symbol
  _atom_site_label
  _atom_site_symmetry_multiplicity
  _atom_site_fract_x
  _atom_site_fract_y
  _atom_site_fract_z
  _atom_site_occupancy
  Hf  Hf1       1.0  0.19385  0.10376  0.38202  1.0000
  Hf  Hf2       1.0  0.19334  0.10877  0.88164  1.0000
  Hf  Hf3       1.0  0.19459  0.60889  0.38201  1.0000
  Hf  Hf4       1.0  0.19690  0.60353  0.87716  1.0000
  Hf  Hf5       1.0  0.44658  0.11564  0.37005  1.0000
  Hf  Hf6       1.0  0.44929  0.10594  0.86824  1.0000
  Hf  Hf7       1.0  0.44344  0.61080  0.37806  1.0000
  Hf  Hf8       1.0  0.44540  0.61197  0.87600  1.0000
  Hf  Hf9       1.0  0.69499  0.10613  0.38258  1.0000
  Hf  Hf10      1.0  0.69670  0.10995  0.87337  1.0000
  Hf  Hf11      1.0  0.69409  0.60936  0.37496  1.0000
  Hf  Hf12      1.0  0.69717  0.60775  0.88041  1.0000
  Hf  Hf13      1.0  0.94479  0.10047  0.37638  1.0000
  Hf  Hf14      1.0  0.94616  0.10135  0.88382  1.0000
  Hf  Hf15      1.0  0.94622  0.60376  0.37898  1.0000
  Hf  Hf16      1.0  0.94700  0.60282  0.87721  1.0000
  Hf  Hf17      1.0  0.05501  0.39112  0.12109  1.0000
  Hf  Hf18      1.0  0.04792  0.39424  0.62316  1.0000
  Hf  Hf19      1.0  0.05382  0.90112  0.12031  1.0000
  Hf  Hf20      1.0  0.05382  0.89260  0.62975  1.0000
  Hf  Hf21      1.0  0.30595  0.39220  0.12340  1.0000
  Hf  Hf22      1.0  0.30467  0.38994  0.62193  1.0000
  Hf  Hf23      1.0  0.30402  0.90379  0.11190  1.0000
  Hf  Hf24      1.0  0.30307  0.87986  0.62971  1.0000
  Hf  Hf25      1.0  0.55153  0.39709  0.12064  1.0000
  Hf  Hf26      1.0  0.55687  0.39875  0.62131  1.0000
  Hf  Hf27      1.0  0.55396  0.89393  0.11912  1.0000
  Hf  Hf28      1.0  0.55415  0.89717  0.62110  1.0000
  Hf  Hf29      1.0  0.80233  0.38188  0.12714  1.0000
  Hf  Hf30      1.0  0.80743  0.39852  0.61334  1.0000
  Hf  Hf31      1.0  0.80606  0.88591  0.12494  1.0000
  Hf  Hf32      1.0  0.80213  0.88541  0.62853  1.0000
  Hf  Hf33      1.0  0.05685  0.18373  0.41764  1.0000
  Hf  Hf34      1.0  0.05441  0.19729  0.91727  1.0000
  Hf  Hf35      1.0  0.05476  0.69478  0.40992  1.0000
  Hf  Hf36      1.0  0.05570  0.68269  0.91783  1.0000
  Hf  Hf37      1.0  0.30368  0.18029  0.42443  1.0000
  Hf  Hf38      1.0  0.30852  0.18670  0.91453  1.0000
  Hf  Hf39      1.0  0.30533  0.68720  0.41671  1.0000
  Hf  Hf40      1.0  0.30533  0.67977  0.91332  1.0000
  Hf  Hf41      1.0  0.55868  0.19195  0.41138  1.0000
  Hf  Hf42      1.0  0.55456  0.18905  0.91097  1.0000
  Hf  Hf43      1.0  0.55400  0.68326  0.42166  1.0000
  Hf  Hf44      1.0  0.55738  0.68424  0.91727  1.0000
  Hf  Hf45      1.0  0.80880  0.18250  0.41321  1.0000
  Hf  Hf46      1.0  0.80565  0.18174  0.91730  1.0000
  Hf  Hf47      1.0  0.80564  0.68610  0.41521  1.0000
  Hf  Hf48      1.0  0.80890  0.67739  0.91014  1.0000
  Hf  Hf49      1.0  0.16125  0.39715  0.32640  1.0000
  Hf  Hf50      1.0  0.16254  0.38984  0.83107  1.0000
  Hf  Hf51      1.0  0.15713  0.88811  0.33532  1.0000
  Hf  Hf52      1.0  0.15928  0.89091  0.83150  1.0000
  Hf  Hf53      1.0  0.40533  0.39635  0.33326  1.0000
  Hf  Hf54      1.0  0.41245  0.38387  0.82441  1.0000
  Hf  Hf55      1.0  0.40818  0.88484  0.33803  1.0000
  Hf  Hf56      1.0  0.40519  0.88472  0.83839  1.0000
  Hf  Hf57      1.0  0.66206  0.39623  0.32365  1.0000
  Hf  Hf58      1.0  0.66042  0.38758  0.83204  1.0000
  Hf  Hf59      1.0  0.66134  0.88946  0.33155  1.0000
  Hf  Hf60      1.0  0.65854  0.88870  0.82718  1.0000
  Hf  Hf61      1.0  0.91320  0.38506  0.32577  1.0000
  Hf  Hf62      1.0  0.90958  0.38068  0.83817  1.0000
  Hf  Hf63      1.0  0.90654  0.88365  0.33340  1.0000
  Hf  Hf64      1.0  0.90680  0.88828  0.83059  1.0000
  Hf  Hf65      1.0  0.19598  0.31955  0.08692  1.0000
  Hf  Hf66      1.0  0.19129  0.31865  0.58727  1.0000
  Hf  Hf67      1.0  0.19632  0.82014  0.08409  1.0000
  Hf  Hf68      1.0  0.19387  0.81713  0.58362  1.0000
  Hf  Hf69      1.0  0.43870  0.31935  0.08463  1.0000
  Hf  Hf70      1.0  0.44715  0.31905  0.57262  1.0000
  Hf  Hf71      1.0  0.44495  0.81325  0.08463  1.0000
  Hf  Hf72      1.0  0.44416  0.81638  0.58779  1.0000
  Hf  Hf73      1.0  0.69461  0.31156  0.08006  1.0000
  Hf  Hf74      1.0  0.69671  0.31700  0.58012  1.0000
  Hf  Hf75      1.0  0.69287  0.81725  0.08370  1.0000
  Hf  Hf76      1.0  0.69565  0.81583  0.58610  1.0000
  Hf  Hf77      1.0  0.94342  0.30526  0.08784  1.0000
  Hf  Hf78      1.0  0.94191  0.30643  0.58385  1.0000
  Hf  Hf79      1.0  0.94405  0.80853  0.08941  1.0000
  Hf  Hf80      1.0  0.94332  0.81561  0.58474  1.0000
  Hf  Hf81      1.0  0.09004  0.11063  0.17309  1.0000
  Hf  Hf82      1.0  0.09030  0.10659  0.67704  1.0000
  Hf  Hf83      1.0  0.09219  0.61619  0.17200  1.0000
  Hf  Hf84      1.0  0.09394  0.61478  0.66500  1.0000
  Hf  Hf85      1.0  0.33838  0.10279  0.17508  1.0000
  Hf  Hf86      1.0  0.34052  0.10149  0.66620  1.0000
  Hf  Hf87      1.0  0.33792  0.61719  0.16666  1.0000
  Hf  Hf88      1.0  0.34392  0.60765  0.66700  1.0000
  Hf  Hf89      1.0  0.59132  0.10405  0.16811  1.0000
  Hf  Hf90      1.0  0.59475  0.11588  0.66166  1.0000
  Hf  Hf91      1.0  0.58843  0.61094  0.17245  1.0000
  Hf  Hf92      1.0  0.58938  0.61310  0.66970  1.0000
  Hf  Hf93      1.0  0.83799  0.10704  0.17262  1.0000
  Hf  Hf94      1.0  0.83583  0.11330  0.67190  1.0000
  Hf  Hf95      1.0  0.84421  0.61384  0.16076  1.0000
  Hf  Hf96      1.0  0.83684  0.59734  0.67335  1.0000
  F   F1        1.0  0.08017  0.12219  0.30560  1.0000
  F   F2        1.0  0.07776  0.14366  0.80443  1.0000
  F   F3        1.0  0.08264  0.64454  0.30068  1.0000
  F   F4        1.0  0.07798  0.62725  0.79863  1.0000
  F   F5        1.0  0.32092  0.11027  0.32352  1.0000
  F   F6        1.0  0.32747  0.12033  0.81124  1.0000
  F   F7        1.0  0.33253  0.62664  0.30529  1.0000
  F   F8        1.0  0.33397  0.64001  0.79231  1.0000
  F   F9        1.0  0.58404  0.13934  0.29726  1.0000
  F   F10       1.0  0.58748  0.13911  0.79105  1.0000
  F   F11       1.0  0.58064  0.61466  0.30660  1.0000
  F   F12       1.0  0.58300  0.63710  0.79829  1.0000
  F   F13       1.0  0.83571  0.14824  0.28615  1.0000
  F   F14       1.0  0.82411  0.11494  0.81821  1.0000
  F   F15       1.0  0.82312  0.61592  0.31078  1.0000
  F   F16       1.0  0.82695  0.61070  0.81631  1.0000
  F   F17       1.0  0.18251  0.34337  0.44621  1.0000
  F   F18       1.0  0.19036  0.34656  0.94917  1.0000
  F   F19       1.0  0.18563  0.83669  0.44865  1.0000
  F   F20       1.0  0.18580  0.84463  0.95301  1.0000
  F   F21       1.0  0.44117  0.36537  0.42886  1.0000
  F   F22       1.0  0.43457  0.33067  0.94967  1.0000
  F   F23       1.0  0.43610  0.84250  0.44737  1.0000
  F   F24       1.0  0.43307  0.84718  0.94344  1.0000
  F   F25       1.0  0.68897  0.35259  0.42812  1.0000
  F   F26       1.0  0.68158  0.32599  0.94800  1.0000
  F   F27       1.0  0.69386  0.83781  0.43720  1.0000
  F   F28       1.0  0.68774  0.84071  0.94508  1.0000
  F   F29       1.0  0.93679  0.32398  0.44375  1.0000
  F   F30       1.0  0.94401  0.33745  0.94083  1.0000
  F   F31       1.0  0.93238  0.83629  0.45059  1.0000
  F   F32       1.0  0.93959  0.84048  0.94040  1.0000
  F   F33       1.0  0.16867  0.37045  0.19919  1.0000
  F   F34       1.0  0.17198  0.37496  0.69952  1.0000
  F   F35       1.0  0.17227  0.87800  0.20225  1.0000
  F   F36       1.0  0.16829  0.86986  0.69885  1.0000
  F   F37       1.0  0.41497  0.37067  0.20195  1.0000
  F   F38       1.0  0.41907  0.37092  0.69382  1.0000
  F   F39       1.0  0.41697  0.85681  0.19843  1.0000
  F   F40       1.0  0.42004  0.87438  0.69044  1.0000
  F   F41       1.0  0.66688  0.35104  0.20531  1.0000
  F   F42       1.0  0.68271  0.38656  0.68938  1.0000
  F   F43       1.0  0.67195  0.88480  0.18548  1.0000
  F   F44       1.0  0.68130  0.89025  0.68353  1.0000
  F   F45       1.0  0.92718  0.37467  0.18810  1.0000
  F   F46       1.0  0.91243  0.36031  0.70890  1.0000
  F   F47       1.0  0.91554  0.88101  0.19184  1.0000
  F   F48       1.0  0.92046  0.86187  0.70011  1.0000
  F   F49       1.0  0.07067  0.17121  0.05159  1.0000
  F   F50       1.0  0.06037  0.15505  0.55941  1.0000
  F   F51       1.0  0.06238  0.65207  0.05796  1.0000
  F   F52       1.0  0.07381  0.67519  0.53834  1.0000
  F   F53       1.0  0.31454  0.15928  0.05246  1.0000
  F   F54       1.0  0.31024  0.15137  0.55975  1.0000
  F   F55       1.0  0.31493  0.66986  0.04400  1.0000
  F   F56       1.0  0.31418  0.65467  0.55512  1.0000
  F   F57       1.0  0.56038  0.16355  0.06026  1.0000
  F   F58       1.0  0.56579  0.16644  0.55223  1.0000
  F   F59       1.0  0.56412  0.65578  0.05645  1.0000
  F   F60       1.0  0.55931  0.65453  0.55659  1.0000
  F   F61       1.0  0.81347  0.15439  0.05855  1.0000
  F   F62       1.0  0.81698  0.16755  0.55042  1.0000
  F   F63       1.0  0.82600  0.65376  0.03706  1.0000
  F   F64       1.0  0.80841  0.64762  0.55743  1.0000
  F   F65       1.0  0.20599  0.19320  0.19805  1.0000
  F   F66       1.0  0.19813  0.19842  0.72007  1.0000
  F   F67       1.0  0.20578  0.71337  0.20981  1.0000
  F   F68       1.0  0.19954  0.69718  0.71677  1.0000
  F   F69       1.0  0.45711  0.20778  0.21399  1.0000
  F   F70       1.0  0.45600  0.19515  0.71917  1.0000
  F   F71       1.0  0.46107  0.70793  0.21271  1.0000
  F   F72       1.0  0.45561  0.70324  0.71378  1.0000
  F   F73       1.0  0.70212  0.19339  0.22386  1.0000
  F   F74       1.0  0.70005  0.20961  0.69858  1.0000
  F   F75       1.0  0.69591  0.71068  0.21802  1.0000
  F   F76       1.0  0.71129  0.70631  0.71355  1.0000
  F   F77       1.0  0.94898  0.18959  0.21270  1.0000
  F   F78       1.0  0.95328  0.19097  0.70272  1.0000
  F   F79       1.0  0.95688  0.69768  0.21847  1.0000
  F   F80       1.0  0.95612  0.70091  0.71655  1.0000
  F   F81       1.0  0.14649  0.08509  0.04334  1.0000
  F   F82       1.0  0.14905  0.08223  0.53937  1.0000
  F   F83       1.0  0.14870  0.59251  0.04460  1.0000
  F   F84       1.0  0.15460  0.58789  0.54555  1.0000
  F   F85       1.0  0.40203  0.08806  0.05515  1.0000
  F   F86       1.0  0.39900  0.10054  0.53452  1.0000
  F   F87       1.0  0.39881  0.59744  0.04272  1.0000
  F   F88       1.0  0.39478  0.59069  0.53707  1.0000
  F   F89       1.0  0.64867  0.08509  0.03847  1.0000
  F   F90       1.0  0.65343  0.08855  0.54304  1.0000
  F   F91       1.0  0.65004  0.59400  0.04098  1.0000
  F   F92       1.0  0.64687  0.61060  0.53968  1.0000
  F   F93       1.0  0.89797  0.08554  0.04117  1.0000
  F   F94       1.0  0.90492  0.07268  0.52737  1.0000
  F   F95       1.0  0.90649  0.60290  0.02848  1.0000
  F   F96       1.0  0.89731  0.60177  0.53735  1.0000
  F   F97       1.0  0.14769  0.20517  0.12490  1.0000
  F   F98       1.0  0.15008  0.20637  0.61527  1.0000
  F   F99       1.0  0.15422  0.68351  0.13557  1.0000
  F   F100      1.0  0.14579  0.70529  0.63215  1.0000
  F   F101      1.0  0.40386  0.19522  0.14183  1.0000
  F   F102      1.0  0.40835  0.20401  0.61523  1.0000
  F   F103      1.0  0.40160  0.69920  0.13324  1.0000
  F   F104      1.0  0.40084  0.69591  0.62336  1.0000
  F   F105      1.0  0.65282  0.18151  0.12587  1.0000
  F   F106      1.0  0.65117  0.20716  0.59788  1.0000
  F   F107      1.0  0.64467  0.71164  0.12715  1.0000
  F   F108      1.0  0.65937  0.69657  0.62737  1.0000
  F   F109      1.0  0.90086  0.19015  0.12199  1.0000
  F   F110      1.0  0.89460  0.18419  0.62262  1.0000
  F   F111      1.0  0.90525  0.69555  0.11652  1.0000
  F   F112      1.0  0.90025  0.68741  0.63937  1.0000
  F   F113      1.0  0.10672  0.30511  0.38258  1.0000
  F   F114      1.0  0.09316  0.31179  0.87634  1.0000
  F   F115      1.0  0.10122  0.80516  0.36281  1.0000
  F   F116      1.0  0.09497  0.80291  0.88275  1.0000
  F   F117      1.0  0.34450  0.30673  0.39132  1.0000
  F   F118      1.0  0.35003  0.29816  0.87853  1.0000
  F   F119      1.0  0.34442  0.80076  0.38936  1.0000
  F   F120      1.0  0.33961  0.80223  0.87075  1.0000
  F   F121      1.0  0.59484  0.30980  0.37481  1.0000
  F   F122      1.0  0.60102  0.30123  0.87099  1.0000
  F   F123      1.0  0.60044  0.80367  0.37712  1.0000
  F   F124      1.0  0.59922  0.80004  0.88244  1.0000
  F   F125      1.0  0.85270  0.30690  0.36698  1.0000
  F   F126      1.0  0.84651  0.30051  0.90051  1.0000
  F   F127      1.0  0.84228  0.80228  0.37308  1.0000
  F   F128      1.0  0.84772  0.81028  0.87716  1.0000
  F   F129      1.0  0.05776  0.24583  0.16985  1.0000
  F   F130      1.0  0.06666  0.25157  0.64286  1.0000
  F   F131      1.0  0.06710  0.75086  0.13925  1.0000
  F   F132      1.0  0.06737  0.75697  0.63139  1.0000
  F   F133      1.0  0.32108  0.25037  0.14122  1.0000
  F   F134      1.0  0.32879  0.24792  0.61645  1.0000
  F   F135      1.0  0.31562  0.75529  0.12810  1.0000
  F   F136      1.0  0.32530  0.74848  0.62293  1.0000
  F   F137      1.0  0.56065  0.24949  0.14614  1.0000
  F   F138      1.0  0.55656  0.25836  0.65201  1.0000
  F   F139      1.0  0.55781  0.74650  0.15331  1.0000
  F   F140      1.0  0.57357  0.75161  0.63195  1.0000
  F   F141      1.0  0.81263  0.24741  0.13928  1.0000
  F   F142      1.0  0.81204  0.25071  0.64278  1.0000
  F   F143      1.0  0.81332  0.74102  0.14882  1.0000
  F   F144      1.0  0.81620  0.74687  0.64293  1.0000
  F   F145      1.0  0.12733  0.38088  0.09475  1.0000
  F   F146      1.0  0.12004  0.37126  0.61436  1.0000
  F   F147      1.0  0.12091  0.86999  0.11763  1.0000
  F   F148      1.0  0.12129  0.88968  0.60622  1.0000
  F   F149      1.0  0.37773  0.38942  0.09684  1.0000
  F   F150      1.0  0.37557  0.37711  0.59205  1.0000
  F   F151      1.0  0.37243  0.88276  0.09666  1.0000
  F   F152      1.0  0.37257  0.86863  0.61745  1.0000
  F   F153      1.0  0.62218  0.35980  0.11304  1.0000
  F   F154      1.0  0.62651  0.34472  0.62659  1.0000
  F   F155      1.0  0.62826  0.87823  0.10259  1.0000
  F   F156      1.0  0.62597  0.86452  0.61693  1.0000
  F   F157      1.0  0.87598  0.34437  0.12895  1.0000
  F   F158      1.0  0.87643  0.37750  0.59138  1.0000
  F   F159      1.0  0.87662  0.86418  0.09513  1.0000
  F   F160      1.0  0.87701  0.87376  0.59727  1.0000
  F   F161      1.0  0.19578  0.24422  0.34370  1.0000
  F   F162      1.0  0.18718  0.25224  0.85772  1.0000
  F   F163      1.0  0.18798  0.74911  0.35713  1.0000
  F   F164      1.0  0.17881  0.73787  0.87296  1.0000
  F   F165      1.0  0.43770  0.26059  0.35095  1.0000
  F   F166      1.0  0.44070  0.25066  0.84924  1.0000
  F   F167      1.0  0.42949  0.74032  0.38470  1.0000
  F   F168      1.0  0.42776  0.75551  0.86613  1.0000
  F   F169      1.0  0.68608  0.25017  0.35798  1.0000
  F   F170      1.0  0.69600  0.24848  0.83509  1.0000
  F   F171      1.0  0.68228  0.75028  0.36598  1.0000
  F   F172      1.0  0.68483  0.75622  0.86010  1.0000
  F   F173      1.0  0.93899  0.24637  0.34985  1.0000
  F   F174      1.0  0.93623  0.25208  0.86062  1.0000
  F   F175      1.0  0.92981  0.75552  0.35633  1.0000
  F   F176      1.0  0.93854  0.75381  0.85449  1.0000
  F   F177      1.0  0.12713  0.14548  0.39002  1.0000
  F   F178      1.0  0.12700  0.14436  0.88418  1.0000
  F   F179      1.0  0.12431  0.62225  0.41122  1.0000
  F   F180      1.0  0.12417  0.62515  0.89342  1.0000
  F   F181      1.0  0.37630  0.15819  0.37959  1.0000
  F   F182      1.0  0.37314  0.12613  0.91119  1.0000
  F   F183      1.0  0.37735  0.65780  0.36846  1.0000
  F   F184      1.0  0.37645  0.62885  0.89118  1.0000
  F   F185      1.0  0.62631  0.12764  0.39959  1.0000
  F   F186      1.0  0.62822  0.12310  0.90210  1.0000
  F   F187      1.0  0.62141  0.61524  0.40801  1.0000
  F   F188      1.0  0.62845  0.62476  0.88387  1.0000
  F   F189      1.0  0.87395  0.13427  0.38470  1.0000
  F   F190      1.0  0.87355  0.14054  0.88466  1.0000
  F   F191      1.0  0.87450  0.63135  0.39179  1.0000
  F   F192      1.0  0.87992  0.64556  0.86035  1.0000
  F   F193      1.0  0.00628  0.33409  0.08411  1.0000
  F   F194      1.0  0.00436  0.35165  0.58917  1.0000
  F   F195      1.0  0.00503  0.85993  0.08750  1.0000
  F   F196      1.0  0.00978  0.85838  0.58323  1.0000
  F   F197      1.0  0.25734  0.36012  0.08420  1.0000
  F   F198      1.0  0.25987  0.34126  0.58914  1.0000
  F   F199      1.0  0.26029  0.86769  0.06693  1.0000
  F   F200      1.0  0.25933  0.84434  0.58290  1.0000
  F   F201      1.0  0.50278  0.37140  0.06732  1.0000
  F   F202      1.0  0.50690  0.35402  0.57263  1.0000
  F   F203      1.0  0.50497  0.87636  0.07636  1.0000
  F   F204      1.0  0.50950  0.85713  0.57422  1.0000
  F   F205      1.0  0.75421  0.36420  0.08502  1.0000
  F   F206      1.0  0.76109  0.36452  0.55938  1.0000
  F   F207      1.0  0.76098  0.86033  0.07012  1.0000
  F   F208      1.0  0.75754  0.86884  0.57239  1.0000
  F   F209      1.0  0.06923  0.47883  0.17526  1.0000
  F   F210      1.0  0.07071  0.49757  0.65767  1.0000
  F   F211      1.0  0.06518  0.98539  0.17707  1.0000
  F   F212      1.0  0.06635  0.98262  0.69109  1.0000
  F   F213      1.0  0.31849  0.47892  0.17491  1.0000
  F   F214      1.0  0.31766  0.48661  0.67502  1.0000
  F   F215      1.0  0.31969  0.98620  0.17749  1.0000
  F   F216      1.0  0.31645  0.97754  0.69247  1.0000
  F   F217      1.0  0.56943  0.48784  0.15323  1.0000
  F   F218      1.0  0.56925  0.48558  0.67632  1.0000
  F   F219      1.0  0.56914  0.97971  0.17941  1.0000
  F   F220      1.0  0.57480  0.98921  0.66423  1.0000
  F   F221      1.0  0.81973  0.48950  0.17809  1.0000
  F   F222      1.0  0.81757  0.47256  0.68519  1.0000
  F   F223      1.0  0.81945  0.98480  0.17102  1.0000
  F   F224      1.0  0.81680  0.97538  0.68430  1.0000
  F   F225      1.0  0.24156  0.13059  0.43961  1.0000
  F   F226      1.0  0.23809  0.15052  0.93539  1.0000
  F   F227      1.0  0.24586  0.64864  0.41391  1.0000
  F   F228      1.0  0.24430  0.64248  0.92242  1.0000
  F   F229      1.0  0.49690  0.13952  0.41812  1.0000
  F   F230      1.0  0.49378  0.13961  0.91395  1.0000
  F   F231      1.0  0.49626  0.64987  0.40698  1.0000
  F   F232      1.0  0.49193  0.65208  0.91834  1.0000
  F   F233      1.0  0.74290  0.14338  0.42438  1.0000
  F   F234      1.0  0.73952  0.14198  0.92724  1.0000
  F   F235      1.0  0.74030  0.65270  0.42746  1.0000
  F   F236      1.0  0.73909  0.63178  0.93339  1.0000
  F   F237      1.0  0.99586  0.14215  0.43000  1.0000
  F   F238      1.0  0.99153  0.14078  0.91602  1.0000
  F   F239      1.0  0.98832  0.65344  0.41634  1.0000
  F   F240      1.0  0.99455  0.63605  0.92132  1.0000
  F   F241      1.0  0.17275  0.02910  0.32071  1.0000
  F   F242      1.0  0.18203  0.01414  0.82680  1.0000
  F   F243      1.0  0.18512  0.52198  0.31086  1.0000
  F   F244      1.0  0.18568  0.50934  0.81783  1.0000
  F   F245      1.0  0.42413  0.01917  0.34105  1.0000
  F   F246      1.0  0.43012  0.01962  0.81973  1.0000
  F   F247      1.0  0.42201  0.52557  0.33576  1.0000
  F   F248      1.0  0.42909  0.51626  0.81492  1.0000
  F   F249      1.0  0.68106  0.00795  0.32452  1.0000
  F   F250      1.0  0.67813  0.01899  0.81181  1.0000
  F   F251      1.0  0.67929  0.53312  0.31160  1.0000
  F   F252      1.0  0.68426  0.51801  0.81003  1.0000
  F   F253      1.0  0.92295  0.00324  0.34401  1.0000
  F   F254      1.0  0.92830  0.01186  0.83826  1.0000
  F   F255      1.0  0.93797  0.51846  0.30483  1.0000
  F   F256      1.0  0.93089  0.51275  0.82385  1.0000
  F   F257      1.0  0.99465  0.23023  0.01614  1.0000
  F   F258      1.0  0.00501  0.25820  0.50412  1.0000
  F   F259      1.0  0.00144  0.74630  0.00652  1.0000
  F   F260      1.0  0.00306  0.75089  0.50836  1.0000
  F   F261      1.0  0.26090  0.26233  0.98995  1.0000
  F   F262      1.0  0.24292  0.24577  0.50640  1.0000
  F   F263      1.0  0.25173  0.75959  0.99715  1.0000
  F   F264      1.0  0.24647  0.74710  0.51282  1.0000
  F   F265      1.0  0.49688  0.24077  0.99732  1.0000
  F   F266      1.0  0.50067  0.24628  0.49446  1.0000
  F   F267      1.0  0.50601  0.77826  0.98137  1.0000
  F   F268      1.0  0.49998  0.76248  0.48745  1.0000
  F   F269      1.0  0.75267  0.25213  0.99688  1.0000
  F   F270      1.0  0.75160  0.25075  0.48659  1.0000
  F   F271      1.0  0.74902  0.73802  0.00443  1.0000
  F   F272      1.0  0.75275  0.77228  0.48759  1.0000
  F   F273      1.0  0.11868  0.99077  0.24879  1.0000
  F   F274      1.0  0.12959  0.00826  0.74833  1.0000
  F   F275      1.0  0.12600  0.50553  0.24602  1.0000
  F   F276      1.0  0.12667  0.49527  0.74897  1.0000
  F   F277      1.0  0.37208  0.99014  0.26113  1.0000
  F   F278      1.0  0.38578  0.99864  0.73249  1.0000
  F   F279      1.0  0.36927  0.50353  0.24829  1.0000
  F   F280      1.0  0.36774  0.48236  0.76628  1.0000
  F   F281      1.0  0.62013  0.98800  0.27113  1.0000
  F   F282      1.0  0.61460  0.98952  0.76385  1.0000
  F   F283      1.0  0.62655  0.49866  0.23985  1.0000
  F   F284      1.0  0.61982  0.48906  0.76096  1.0000
  F   F285      1.0  0.86949  0.99466  0.26053  1.0000
  F   F286      1.0  0.87904  0.00224  0.73707  1.0000
  F   F287      1.0  0.88238  0.49991  0.24389  1.0000
  F   F288      1.0  0.87380  0.49320  0.75366  1.0000
  F   F289      1.0  0.04364  0.03783  0.02501  1.0000
  F   F290      1.0  0.04659  0.03344  0.52590  1.0000
  F   F291      1.0  0.04542  0.52377  0.01496  1.0000
  F   F292      1.0  0.03861  0.54621  0.51416  1.0000
  F   F293      1.0  0.28833  0.03289  0.03627  1.0000
  F   F294      1.0  0.30152  0.02954  0.52942  1.0000
  F   F295      1.0  0.29611  0.53530  0.03318  1.0000
  F   F296      1.0  0.28924  0.52754  0.53327  1.0000
  F   F297      1.0  0.54475  0.03424  0.02248  1.0000
  F   F298      1.0  0.54541  0.03027  0.53627  1.0000
  F   F299      1.0  0.53700  0.54571  0.02407  1.0000
  F   F300      1.0  0.53577  0.52428  0.53307  1.0000
  F   F301      1.0  0.79756  0.03273  0.00663  1.0000
  F   F302      1.0  0.79811  0.03412  0.51497  1.0000
  F   F303      1.0  0.79507  0.52444  0.01731  1.0000
  F   F304      1.0  0.79093  0.53018  0.52361  1.0000
  F   F305      1.0  0.23619  0.41449  0.22152  1.0000
  F   F306      1.0  0.23918  0.40285  0.73009  1.0000
  F   F307      1.0  0.23819  0.91520  0.22932  1.0000
  F   F308      1.0  0.23217  0.90646  0.73077  1.0000
  F   F309      1.0  0.47885  0.42615  0.22305  1.0000
  F   F310      1.0  0.48343  0.41605  0.72143  1.0000
  F   F311      1.0  0.47828  0.91924  0.22043  1.0000
  F   F312      1.0  0.48593  0.90541  0.73302  1.0000
  F   F313      1.0  0.73247  0.43612  0.21266  1.0000
  F   F314      1.0  0.73991  0.41424  0.72518  1.0000
  F   F315      1.0  0.73498  0.92648  0.21342  1.0000
  F   F316      1.0  0.74027  0.91146  0.72702  1.0000
  F   F317      1.0  0.98882  0.40097  0.22858  1.0000
  F   F318      1.0  0.98274  0.41760  0.71691  1.0000
  F   F319      1.0  0.98256  0.93003  0.21421  1.0000
  F   F320      1.0  0.98238  0.92213  0.73098  1.0000
  F   F321      1.0  0.21064  0.46440  0.46632  1.0000
  F   F322      1.0  0.20943  0.47587  0.97549  1.0000
  F   F323      1.0  0.21498  0.95580  0.47405  1.0000
  F   F324      1.0  0.21421  0.97523  0.96936  1.0000
  F   F325      1.0  0.45131  0.47811  0.49282  1.0000
  F   F326      1.0  0.44792  0.47858  0.97809  1.0000
  F   F327      1.0  0.44971  0.97220  0.48345  1.0000
  F   F328      1.0  0.44619  0.96591  0.98778  1.0000
  F   F329      1.0  0.69979  0.47346  0.48016  1.0000
  F   F330      1.0  0.70287  0.45837  0.96930  1.0000
  F   F331      1.0  0.70566  0.96687  0.48319  1.0000
  F   F332      1.0  0.71502  0.97189  0.96376  1.0000
  F   F333      1.0  0.96019  0.46665  0.47115  1.0000
  F   F334      1.0  0.95737  0.46857  0.98488  1.0000
  F   F335      1.0  0.96591  0.95480  0.47476  1.0000
  F   F336      1.0  0.95899  0.96390  0.98595  1.0000
  F   F337      1.0  0.01068  0.08059  0.28026  1.0000
  F   F338      1.0  0.01303  0.08387  0.77811  1.0000
  F   F339      1.0  0.01848  0.58586  0.27370  1.0000
  F   F340      1.0  0.01813  0.58888  0.75862  1.0000
  F   F341      1.0  0.26023  0.09650  0.26992  1.0000
  F   F342      1.0  0.26551  0.11139  0.77286  1.0000
  F   F343      1.0  0.26787  0.58799  0.27353  1.0000
  F   F344      1.0  0.26800  0.59289  0.76910  1.0000
  F   F345      1.0  0.51504  0.09139  0.26502  1.0000
  F   F346      1.0  0.52065  0.07939  0.77131  1.0000
  F   F347      1.0  0.51829  0.57092  0.27737  1.0000
  F   F348      1.0  0.51384  0.58589  0.78580  1.0000
  F   F349      1.0  0.76811  0.07792  0.28679  1.0000
  F   F350      1.0  0.76163  0.08071  0.77525  1.0000
  F   F351      1.0  0.76066  0.59059  0.26249  1.0000
  F   F352      1.0  0.76478  0.58088  0.78150  1.0000
  F   F353      1.0  0.09881  0.41925  0.46295  1.0000
  F   F354      1.0  0.09908  0.40398  0.95976  1.0000
  F   F355      1.0  0.09878  0.90767  0.45290  1.0000
  F   F356      1.0  0.10318  0.91198  0.96356  1.0000
  F   F357      1.0  0.34716  0.42493  0.45015  1.0000
  F   F358      1.0  0.34566  0.41114  0.97252  1.0000
  F   F359      1.0  0.35025  0.90665  0.46394  1.0000
  F   F360      1.0  0.34487  0.91788  0.94986  1.0000
  F   F361      1.0  0.60544  0.41055  0.46622  1.0000
  F   F362      1.0  0.59900  0.40991  0.96352  1.0000
  F   F363      1.0  0.60054  0.91693  0.46411  1.0000
  F   F364      1.0  0.60020  0.89684  0.96646  1.0000
  F   F365      1.0  0.85844  0.41712  0.44763  1.0000
  F   F366      1.0  0.85423  0.41804  0.96915  1.0000
  F   F367      1.0  0.84831  0.89252  0.45843  1.0000
  F   F368      1.0  0.85079  0.90196  0.96414  1.0000
  F   F369      1.0  0.05330  0.30088  0.29750  1.0000
  F   F370      1.0  0.04022  0.31198  0.78844  1.0000
  F   F371      1.0  0.04302  0.80138  0.28907  1.0000
  F   F372      1.0  0.04245  0.78787  0.79687  1.0000
  F   F373      1.0  0.29796  0.29653  0.29725  1.0000
  F   F374      1.0  0.30705  0.29406  0.77336  1.0000
  F   F375      1.0  0.29863  0.81009  0.28787  1.0000
  F   F376      1.0  0.28902  0.79783  0.78651  1.0000
  F   F377      1.0  0.54544  0.30583  0.28494  1.0000
  F   F378      1.0  0.54599  0.30654  0.78888  1.0000
  F   F379      1.0  0.55348  0.80109  0.28066  1.0000
  F   F380      1.0  0.54583  0.80327  0.78736  1.0000
  F   F381      1.0  0.79692  0.30415  0.27804  1.0000
  F   F382      1.0  0.80712  0.29888  0.77887  1.0000
  F   F383      1.0  0.79829  0.80047  0.27566  1.0000
  F   F384      1.0  0.80356  0.78551  0.78142  1.0000
