data_image0
_chemical_formula_structural       Hf96F384
_chemical_formula_sum              "Hf96 F384"
_cell_length_a       31.0301
_cell_length_b       15.5147
_cell_length_c       15.5071
_cell_angle_alpha    63.342
_cell_angle_beta     63.342
_cell_angle_gamma    80.1625

_space_group_name_H-M_alt    "P 1"
_space_group_IT_number       1

loop_
  _space_group_symop_operation_xyz
  'x, y, z'

loop_
  _atom_site_type_symbol
  _atom_site_label
  _atom_site_symmetry_multiplicity
  _atom_site_fract_x
  _atom_site_fract_y
  _atom_site_fract_z
  _atom_site_occupancy
  Hf  Hf1       1.0  0.19741  0.10613  0.38154  1.0000
  Hf  Hf2       1.0  0.19591  0.11165  0.87890  1.0000
  Hf  Hf3       1.0  0.19948  0.60979  0.37279  1.0000
  Hf  Hf4       1.0  0.19591  0.59866  0.88711  1.0000
  Hf  Hf5       1.0  0.44909  0.10443  0.36784  1.0000
  Hf  Hf6       1.0  0.44901  0.11541  0.86500  1.0000
  Hf  Hf7       1.0  0.44368  0.60248  0.38849  1.0000
  Hf  Hf8       1.0  0.44712  0.60580  0.88109  1.0000
  Hf  Hf9       1.0  0.69480  0.10426  0.37772  1.0000
  Hf  Hf10      1.0  0.69415  0.11483  0.86981  1.0000
  Hf  Hf11      1.0  0.69670  0.60315  0.37475  1.0000
  Hf  Hf12      1.0  0.69562  0.60552  0.87519  1.0000
  Hf  Hf13      1.0  0.94255  0.10257  0.37599  1.0000
  Hf  Hf14      1.0  0.94961  0.10293  0.87694  1.0000
  Hf  Hf15      1.0  0.94733  0.60757  0.37251  1.0000
  Hf  Hf16      1.0  0.95022  0.60427  0.87501  1.0000
  Hf  Hf17      1.0  0.05496  0.39331  0.11854  1.0000
  Hf  Hf18      1.0  0.05450  0.39657  0.61713  1.0000
  Hf  Hf19      1.0  0.05968  0.89368  0.11036  1.0000
  Hf  Hf20      1.0  0.05383  0.89575  0.62879  1.0000
  Hf  Hf21      1.0  0.30299  0.40273  0.12340  1.0000
  Hf  Hf22      1.0  0.30378  0.39182  0.62944  1.0000
  Hf  Hf23      1.0  0.30632  0.89213  0.12374  1.0000
  Hf  Hf24      1.0  0.30479  0.89334  0.62011  1.0000
  Hf  Hf25      1.0  0.55200  0.39754  0.12612  1.0000
  Hf  Hf26      1.0  0.55550  0.38808  0.62591  1.0000
  Hf  Hf27      1.0  0.55563  0.89565  0.11608  1.0000
  Hf  Hf28      1.0  0.55511  0.88951  0.62156  1.0000
  Hf  Hf29      1.0  0.79967  0.39141  0.12859  1.0000
  Hf  Hf30      1.0  0.80649  0.40092  0.61510  1.0000
  Hf  Hf31      1.0  0.80303  0.88309  0.13159  1.0000
  Hf  Hf32      1.0  0.80678  0.88983  0.62010  1.0000
  Hf  Hf33      1.0  0.05563  0.17991  0.42215  1.0000
  Hf  Hf34      1.0  0.05547  0.18942  0.91398  1.0000
  Hf  Hf35      1.0  0.05517  0.67938  0.41931  1.0000
  Hf  Hf36      1.0  0.05607  0.68393  0.91575  1.0000
  Hf  Hf37      1.0  0.30816  0.18539  0.41543  1.0000
  Hf  Hf38      1.0  0.30466  0.18143  0.92315  1.0000
  Hf  Hf39      1.0  0.30466  0.68622  0.41968  1.0000
  Hf  Hf40      1.0  0.30874  0.67819  0.91330  1.0000
  Hf  Hf41      1.0  0.55447  0.17756  0.42331  1.0000
  Hf  Hf42      1.0  0.55644  0.18700  0.91870  1.0000
  Hf  Hf43      1.0  0.55595  0.67114  0.41544  1.0000
  Hf  Hf44      1.0  0.56242  0.67821  0.90931  1.0000
  Hf  Hf45      1.0  0.80312  0.18380  0.42100  1.0000
  Hf  Hf46      1.0  0.80302  0.17397  0.92337  1.0000
  Hf  Hf47      1.0  0.80709  0.68246  0.41398  1.0000
  Hf  Hf48      1.0  0.80919  0.68791  0.91468  1.0000
  Hf  Hf49      1.0  0.15525  0.39232  0.33605  1.0000
  Hf  Hf50      1.0  0.16076  0.39344  0.82442  1.0000
  Hf  Hf51      1.0  0.16114  0.89444  0.32901  1.0000
  Hf  Hf52      1.0  0.16188  0.89054  0.83023  1.0000
  Hf  Hf53      1.0  0.40862  0.38126  0.34386  1.0000
  Hf  Hf54      1.0  0.40143  0.39404  0.84046  1.0000
  Hf  Hf55      1.0  0.40803  0.88962  0.33447  1.0000
  Hf  Hf56      1.0  0.40979  0.88927  0.83029  1.0000
  Hf  Hf57      1.0  0.65378  0.38290  0.33775  1.0000
  Hf  Hf58      1.0  0.65692  0.38779  0.83417  1.0000
  Hf  Hf59      1.0  0.65938  0.88779  0.33082  1.0000
  Hf  Hf60      1.0  0.65918  0.89210  0.82971  1.0000
  Hf  Hf61      1.0  0.91082  0.39316  0.32520  1.0000
  Hf  Hf62      1.0  0.90860  0.38321  0.83129  1.0000
  Hf  Hf63      1.0  0.90988  0.88822  0.32355  1.0000
  Hf  Hf64      1.0  0.91017  0.88583  0.82791  1.0000
  Hf  Hf65      1.0  0.19165  0.31810  0.08923  1.0000
  Hf  Hf66      1.0  0.19186  0.32012  0.58318  1.0000
  Hf  Hf67      1.0  0.19709  0.82024  0.07969  1.0000
  Hf  Hf68      1.0  0.19353  0.81395  0.58668  1.0000
  Hf  Hf69      1.0  0.44276  0.31920  0.08909  1.0000
  Hf  Hf70      1.0  0.44349  0.31162  0.58711  1.0000
  Hf  Hf71      1.0  0.44491  0.80952  0.08941  1.0000
  Hf  Hf72      1.0  0.44200  0.81549  0.58625  1.0000
  Hf  Hf73      1.0  0.69240  0.31778  0.08613  1.0000
  Hf  Hf74      1.0  0.69355  0.31613  0.58194  1.0000
  Hf  Hf75      1.0  0.69403  0.81199  0.08533  1.0000
  Hf  Hf76      1.0  0.69460  0.82319  0.57795  1.0000
  Hf  Hf77      1.0  0.93937  0.31013  0.09066  1.0000
  Hf  Hf78      1.0  0.94322  0.31767  0.57851  1.0000
  Hf  Hf79      1.0  0.94565  0.82185  0.07620  1.0000
  Hf  Hf80      1.0  0.94433  0.81462  0.58348  1.0000
  Hf  Hf81      1.0  0.09133  0.11406  0.16762  1.0000
  Hf  Hf82      1.0  0.09248  0.11356  0.66536  1.0000
  Hf  Hf83      1.0  0.09137  0.61249  0.16367  1.0000
  Hf  Hf84      1.0  0.09148  0.62829  0.65544  1.0000
  Hf  Hf85      1.0  0.34114  0.11678  0.16750  1.0000
  Hf  Hf86      1.0  0.34035  0.11059  0.66873  1.0000
  Hf  Hf87      1.0  0.34420  0.61471  0.16814  1.0000
  Hf  Hf88      1.0  0.33904  0.61102  0.67393  1.0000
  Hf  Hf89      1.0  0.58919  0.11404  0.16219  1.0000
  Hf  Hf90      1.0  0.58996  0.10539  0.67328  1.0000
  Hf  Hf91      1.0  0.58713  0.61559  0.16745  1.0000
  Hf  Hf92      1.0  0.59237  0.61006  0.66484  1.0000
  Hf  Hf93      1.0  0.83812  0.11312  0.16799  1.0000
  Hf  Hf94      1.0  0.83979  0.11831  0.66700  1.0000
  Hf  Hf95      1.0  0.84132  0.60964  0.16496  1.0000
  Hf  Hf96      1.0  0.84149  0.61015  0.66594  1.0000
  F   F1        1.0  0.07560  0.11814  0.31583  1.0000
  F   F2        1.0  0.08712  0.15215  0.78438  1.0000
  F   F3        1.0  0.07770  0.62877  0.29940  1.0000
  F   F4        1.0  0.08458  0.64494  0.78371  1.0000
  F   F5        1.0  0.32828  0.13240  0.30678  1.0000
  F   F6        1.0  0.32276  0.12509  0.81729  1.0000
  F   F7        1.0  0.33353  0.63190  0.30441  1.0000
  F   F8        1.0  0.32452  0.59935  0.82738  1.0000
  F   F9        1.0  0.57493  0.11110  0.31781  1.0000
  F   F10       1.0  0.58653  0.14303  0.79548  1.0000
  F   F11       1.0  0.57919  0.62212  0.30708  1.0000
  F   F12       1.0  0.57351  0.61364  0.81277  1.0000
  F   F13       1.0  0.82971  0.13628  0.29359  1.0000
  F   F14       1.0  0.82774  0.11669  0.81646  1.0000
  F   F15       1.0  0.82280  0.62308  0.31476  1.0000
  F   F16       1.0  0.82691  0.62861  0.80147  1.0000
  F   F17       1.0  0.18705  0.35781  0.43723  1.0000
  F   F18       1.0  0.18234  0.33241  0.94972  1.0000
  F   F19       1.0  0.19389  0.85249  0.43736  1.0000
  F   F20       1.0  0.19545  0.84751  0.93284  1.0000
  F   F21       1.0  0.43372  0.32418  0.45742  1.0000
  F   F22       1.0  0.42713  0.33900  0.95645  1.0000
  F   F23       1.0  0.42660  0.82575  0.46141  1.0000
  F   F24       1.0  0.44792  0.83972  0.94333  1.0000
  F   F25       1.0  0.68637  0.34181  0.44372  1.0000
  F   F26       1.0  0.67462  0.33183  0.95805  1.0000
  F   F27       1.0  0.68267  0.84233  0.44729  1.0000
  F   F28       1.0  0.69141  0.84852  0.93641  1.0000
  F   F29       1.0  0.93898  0.35182  0.43992  1.0000
  F   F30       1.0  0.92283  0.32401  0.95614  1.0000
  F   F31       1.0  0.93136  0.84941  0.44664  1.0000
  F   F32       1.0  0.94424  0.83850  0.94008  1.0000
  F   F33       1.0  0.16529  0.36700  0.20234  1.0000
  F   F34       1.0  0.17280  0.39232  0.67740  1.0000
  F   F35       1.0  0.17409  0.87578  0.18920  1.0000
  F   F36       1.0  0.16923  0.87736  0.68752  1.0000
  F   F37       1.0  0.41588  0.35519  0.20752  1.0000
  F   F38       1.0  0.41324  0.36163  0.70082  1.0000
  F   F39       1.0  0.42229  0.86862  0.19720  1.0000
  F   F40       1.0  0.42522  0.87852  0.68977  1.0000
  F   F41       1.0  0.66410  0.35196  0.21491  1.0000
  F   F42       1.0  0.66886  0.37546  0.69826  1.0000
  F   F43       1.0  0.67053  0.86273  0.20505  1.0000
  F   F44       1.0  0.67077  0.88017  0.68622  1.0000
  F   F45       1.0  0.92308  0.38457  0.18759  1.0000
  F   F46       1.0  0.91482  0.36097  0.70088  1.0000
  F   F47       1.0  0.91941  0.87366  0.19160  1.0000
  F   F48       1.0  0.91757  0.86059  0.69842  1.0000
  F   F49       1.0  0.05634  0.16361  0.05869  1.0000
  F   F50       1.0  0.06450  0.14925  0.55349  1.0000
  F   F51       1.0  0.06261  0.66379  0.05214  1.0000
  F   F52       1.0  0.06009  0.67039  0.54803  1.0000
  F   F53       1.0  0.29994  0.13908  0.07457  1.0000
  F   F54       1.0  0.31479  0.16522  0.54521  1.0000
  F   F55       1.0  0.32688  0.66623  0.04325  1.0000
  F   F56       1.0  0.31176  0.64908  0.55958  1.0000
  F   F57       1.0  0.55927  0.15227  0.06404  1.0000
  F   F58       1.0  0.55646  0.15567  0.57003  1.0000
  F   F59       1.0  0.56628  0.65980  0.05766  1.0000
  F   F60       1.0  0.56156  0.64942  0.55901  1.0000
  F   F61       1.0  0.80457  0.15320  0.06491  1.0000
  F   F62       1.0  0.81737  0.18041  0.53802  1.0000
  F   F63       1.0  0.81820  0.66887  0.04772  1.0000
  F   F64       1.0  0.81336  0.65833  0.54947  1.0000
  F   F65       1.0  0.20149  0.21687  0.22118  1.0000
  F   F66       1.0  0.20308  0.20266  0.70313  1.0000
  F   F67       1.0  0.20442  0.70785  0.20435  1.0000
  F   F68       1.0  0.20289  0.69525  0.72700  1.0000
  F   F69       1.0  0.45994  0.20141  0.21211  1.0000
  F   F70       1.0  0.46162  0.19305  0.70807  1.0000
  F   F71       1.0  0.44855  0.69092  0.22317  1.0000
  F   F72       1.0  0.45699  0.70908  0.70912  1.0000
  F   F73       1.0  0.70440  0.20435  0.20560  1.0000
  F   F74       1.0  0.70068  0.20159  0.71325  1.0000
  F   F75       1.0  0.70035  0.69835  0.20996  1.0000
  F   F76       1.0  0.70490  0.70610  0.70817  1.0000
  F   F77       1.0  0.95802  0.20726  0.21499  1.0000
  F   F78       1.0  0.96219  0.19221  0.69460  1.0000
  F   F79       1.0  0.95894  0.71767  0.19599  1.0000
  F   F80       1.0  0.96309  0.69458  0.70375  1.0000
  F   F81       1.0  0.14723  0.11359  0.03247  1.0000
  F   F82       1.0  0.15317  0.09558  0.53987  1.0000
  F   F83       1.0  0.14901  0.59457  0.04778  1.0000
  F   F84       1.0  0.14580  0.59816  0.53587  1.0000
  F   F85       1.0  0.39481  0.10993  0.04502  1.0000
  F   F86       1.0  0.39839  0.08138  0.55653  1.0000
  F   F87       1.0  0.40165  0.57105  0.05926  1.0000
  F   F88       1.0  0.39545  0.60618  0.54498  1.0000
  F   F89       1.0  0.64501  0.10690  0.03239  1.0000
  F   F90       1.0  0.64336  0.07556  0.55525  1.0000
  F   F91       1.0  0.64294  0.57867  0.04059  1.0000
  F   F92       1.0  0.65452  0.59368  0.53810  1.0000
  F   F93       1.0  0.89786  0.10500  0.02863  1.0000
  F   F94       1.0  0.89520  0.09025  0.53611  1.0000
  F   F95       1.0  0.90370  0.58138  0.03765  1.0000
  F   F96       1.0  0.89449  0.58515  0.54216  1.0000
  F   F97       1.0  0.15432  0.20355  0.13206  1.0000
  F   F98       1.0  0.15443  0.21233  0.60733  1.0000
  F   F99       1.0  0.15276  0.70629  0.11759  1.0000
  F   F100      1.0  0.14945  0.69589  0.62340  1.0000
  F   F101      1.0  0.39957  0.21130  0.13569  1.0000
  F   F102      1.0  0.39422  0.19943  0.64901  1.0000
  F   F103      1.0  0.40399  0.69628  0.11495  1.0000
  F   F104      1.0  0.39734  0.68962  0.65232  1.0000
  F   F105      1.0  0.65032  0.20144  0.13737  1.0000
  F   F106      1.0  0.65477  0.18807  0.61901  1.0000
  F   F107      1.0  0.65056  0.69289  0.12434  1.0000
  F   F108      1.0  0.65289  0.69086  0.63690  1.0000
  F   F109      1.0  0.90173  0.19311  0.12849  1.0000
  F   F110      1.0  0.89998  0.20181  0.62449  1.0000
  F   F111      1.0  0.90442  0.70017  0.11726  1.0000
  F   F112      1.0  0.90040  0.70152  0.62041  1.0000
  F   F113      1.0  0.09433  0.29534  0.40079  1.0000
  F   F114      1.0  0.10364  0.31790  0.85101  1.0000
  F   F115      1.0  0.10340  0.80667  0.37508  1.0000
  F   F116      1.0  0.10055  0.80145  0.85295  1.0000
  F   F117      1.0  0.34716  0.30416  0.38788  1.0000
  F   F118      1.0  0.34424  0.29701  0.88626  1.0000
  F   F119      1.0  0.35145  0.80313  0.37768  1.0000
  F   F120      1.0  0.34850  0.79355  0.86737  1.0000
  F   F121      1.0  0.59458  0.28438  0.39706  1.0000
  F   F122      1.0  0.60390  0.29132  0.88441  1.0000
  F   F123      1.0  0.59572  0.80269  0.39069  1.0000
  F   F124      1.0  0.60060  0.79591  0.87568  1.0000
  F   F125      1.0  0.84116  0.30945  0.35113  1.0000
  F   F126      1.0  0.85242  0.30243  0.88887  1.0000
  F   F127      1.0  0.85133  0.81079  0.36565  1.0000
  F   F128      1.0  0.85229  0.80100  0.87176  1.0000
  F   F129      1.0  0.06930  0.25585  0.13147  1.0000
  F   F130      1.0  0.06562  0.25458  0.62387  1.0000
  F   F131      1.0  0.06743  0.75105  0.14402  1.0000
  F   F132      1.0  0.06272  0.75404  0.64209  1.0000
  F   F133      1.0  0.31958  0.25804  0.12193  1.0000
  F   F134      1.0  0.31586  0.24635  0.63601  1.0000
  F   F135      1.0  0.31039  0.74715  0.14954  1.0000
  F   F136      1.0  0.31725  0.75380  0.63113  1.0000
  F   F137      1.0  0.55996  0.24121  0.14634  1.0000
  F   F138      1.0  0.57675  0.25861  0.62383  1.0000
  F   F139      1.0  0.55977  0.74784  0.15167  1.0000
  F   F140      1.0  0.57040  0.74423  0.63910  1.0000
  F   F141      1.0  0.81750  0.25431  0.12599  1.0000
  F   F142      1.0  0.81460  0.25812  0.64985  1.0000
  F   F143      1.0  0.81233  0.74097  0.15548  1.0000
  F   F144      1.0  0.81424  0.75086  0.63867  1.0000
  F   F145      1.0  0.12494  0.39296  0.09647  1.0000
  F   F146      1.0  0.12356  0.37429  0.60116  1.0000
  F   F147      1.0  0.12588  0.87870  0.10004  1.0000
  F   F148      1.0  0.12321  0.85852  0.61195  1.0000
  F   F149      1.0  0.37461  0.39053  0.08729  1.0000
  F   F150      1.0  0.37264  0.38457  0.60473  1.0000
  F   F151      1.0  0.37539  0.86369  0.10661  1.0000
  F   F152      1.0  0.37062  0.85793  0.62135  1.0000
  F   F153      1.0  0.62185  0.37404  0.11182  1.0000
  F   F154      1.0  0.62561  0.37612  0.60138  1.0000
  F   F155      1.0  0.62379  0.85244  0.11962  1.0000
  F   F156      1.0  0.62435  0.87387  0.59521  1.0000
  F   F157      1.0  0.86576  0.35845  0.14090  1.0000
  F   F158      1.0  0.87428  0.38305  0.58441  1.0000
  F   F159      1.0  0.87283  0.87105  0.10405  1.0000
  F   F160      1.0  0.87332  0.87651  0.60525  1.0000
  F   F161      1.0  0.18286  0.25004  0.36714  1.0000
  F   F162      1.0  0.19238  0.25608  0.84069  1.0000
  F   F163      1.0  0.19075  0.75915  0.35105  1.0000
  F   F164      1.0  0.17255  0.74750  0.87666  1.0000
  F   F165      1.0  0.43079  0.23513  0.37062  1.0000
  F   F166      1.0  0.43714  0.25617  0.85043  1.0000
  F   F167      1.0  0.43752  0.73975  0.35857  1.0000
  F   F168      1.0  0.42945  0.73759  0.87602  1.0000
  F   F169      1.0  0.67940  0.24212  0.36203  1.0000
  F   F170      1.0  0.69151  0.24884  0.85057  1.0000
  F   F171      1.0  0.69224  0.74678  0.34875  1.0000
  F   F172      1.0  0.68185  0.74265  0.86257  1.0000
  F   F173      1.0  0.92650  0.25202  0.36991  1.0000
  F   F174      1.0  0.94168  0.24237  0.84255  1.0000
  F   F175      1.0  0.93792  0.74762  0.35622  1.0000
  F   F176      1.0  0.93089  0.75066  0.86010  1.0000
  F   F177      1.0  0.12416  0.12603  0.39535  1.0000
  F   F178      1.0  0.12816  0.15204  0.88844  1.0000
  F   F179      1.0  0.12348  0.63417  0.38734  1.0000
  F   F180      1.0  0.12275  0.62073  0.90909  1.0000
  F   F181      1.0  0.37442  0.12256  0.40244  1.0000
  F   F182      1.0  0.37247  0.13717  0.89776  1.0000
  F   F183      1.0  0.37898  0.62609  0.39785  1.0000
  F   F184      1.0  0.37821  0.62695  0.88736  1.0000
  F   F185      1.0  0.61891  0.11560  0.41405  1.0000
  F   F186      1.0  0.62252  0.11632  0.90332  1.0000
  F   F187      1.0  0.62552  0.61860  0.40184  1.0000
  F   F188      1.0  0.62830  0.62877  0.87877  1.0000
  F   F189      1.0  0.87322  0.13373  0.38658  1.0000
  F   F190      1.0  0.87504  0.14723  0.88064  1.0000
  F   F191      1.0  0.87996  0.64002  0.37660  1.0000
  F   F192      1.0  0.87763  0.62945  0.87977  1.0000
  F   F193      1.0  0.00587  0.36463  0.07526  1.0000
  F   F194      1.0  0.00373  0.37104  0.55672  1.0000
  F   F195      1.0  0.01007  0.87582  0.06074  1.0000
  F   F196      1.0  0.00653  0.86056  0.57719  1.0000
  F   F197      1.0  0.25608  0.36764  0.08223  1.0000
  F   F198      1.0  0.25885  0.36599  0.57972  1.0000
  F   F199      1.0  0.26100  0.86370  0.06768  1.0000
  F   F200      1.0  0.25987  0.86361  0.57322  1.0000
  F   F201      1.0  0.50377  0.36270  0.08229  1.0000
  F   F202      1.0  0.50896  0.34577  0.57629  1.0000
  F   F203      1.0  0.50588  0.85624  0.07558  1.0000
  F   F204      1.0  0.50483  0.86279  0.57553  1.0000
  F   F205      1.0  0.75328  0.36173  0.07691  1.0000
  F   F206      1.0  0.75832  0.35566  0.57493  1.0000
  F   F207      1.0  0.75468  0.86049  0.07758  1.0000
  F   F208      1.0  0.75878  0.86597  0.57222  1.0000
  F   F209      1.0  0.06950  0.49432  0.15509  1.0000
  F   F210      1.0  0.06303  0.47892  0.68434  1.0000
  F   F211      1.0  0.07287  0.99114  0.17242  1.0000
  F   F212      1.0  0.07549  0.99498  0.65662  1.0000
  F   F213      1.0  0.31750  0.48262  0.19690  1.0000
  F   F214      1.0  0.31565  0.48069  0.68933  1.0000
  F   F215      1.0  0.32477  0.98608  0.17082  1.0000
  F   F216      1.0  0.31542  0.98438  0.67740  1.0000
  F   F217      1.0  0.55517  0.48495  0.19206  1.0000
  F   F218      1.0  0.57268  0.48711  0.67539  1.0000
  F   F219      1.0  0.57787  0.97740  0.16474  1.0000
  F   F220      1.0  0.56906  0.98767  0.67659  1.0000
  F   F221      1.0  0.81385  0.48723  0.17452  1.0000
  F   F222      1.0  0.81963  0.47277  0.68709  1.0000
  F   F223      1.0  0.82240  0.98234  0.17630  1.0000
  F   F224      1.0  0.81711  0.00182  0.67731  1.0000
  F   F225      1.0  0.24334  0.14379  0.42268  1.0000
  F   F226      1.0  0.23998  0.12609  0.95424  1.0000
  F   F227      1.0  0.23963  0.63029  0.44677  1.0000
  F   F228      1.0  0.24239  0.62832  0.93859  1.0000
  F   F229      1.0  0.49060  0.12846  0.42422  1.0000
  F   F230      1.0  0.49657  0.15078  0.91506  1.0000
  F   F231      1.0  0.48845  0.62143  0.45511  1.0000
  F   F232      1.0  0.48748  0.64520  0.93158  1.0000
  F   F233      1.0  0.73701  0.12459  0.44453  1.0000
  F   F234      1.0  0.73896  0.11837  0.94223  1.0000
  F   F235      1.0  0.74706  0.64228  0.41638  1.0000
  F   F236      1.0  0.74164  0.64959  0.91193  1.0000
  F   F237      1.0  0.98835  0.14312  0.41299  1.0000
  F   F238      1.0  0.99444  0.13340  0.94523  1.0000
  F   F239      1.0  0.99183  0.63532  0.42504  1.0000
  F   F240      1.0  0.99492  0.63509  0.92023  1.0000
  F   F241      1.0  0.18626  0.01885  0.32154  1.0000
  F   F242      1.0  0.17555  0.01239  0.83256  1.0000
  F   F243      1.0  0.18245  0.53086  0.31259  1.0000
  F   F244      1.0  0.17769  0.51503  0.83164  1.0000
  F   F245      1.0  0.43132  0.01703  0.31334  1.0000
  F   F246      1.0  0.43334  0.01034  0.82100  1.0000
  F   F247      1.0  0.43193  0.51292  0.32547  1.0000
  F   F248      1.0  0.43540  0.51164  0.82261  1.0000
  F   F249      1.0  0.68302  0.00485  0.33189  1.0000
  F   F250      1.0  0.67835  0.02258  0.81339  1.0000
  F   F251      1.0  0.68019  0.51632  0.31361  1.0000
  F   F252      1.0  0.67727  0.51282  0.82638  1.0000
  F   F253      1.0  0.93546  0.01897  0.30718  1.0000
  F   F254      1.0  0.93637  0.02134  0.82126  1.0000
  F   F255      1.0  0.93154  0.51649  0.31365  1.0000
  F   F256      1.0  0.92933  0.51262  0.83023  1.0000
  F   F257      1.0  0.99609  0.26833  0.98890  1.0000
  F   F258      1.0  0.00199  0.25254  0.49143  1.0000
  F   F259      1.0  0.00473  0.76023  0.99374  1.0000
  F   F260      1.0  0.00256  0.76417  0.48527  1.0000
  F   F261      1.0  0.25268  0.26698  0.99629  1.0000
  F   F262      1.0  0.25085  0.26319  0.48677  1.0000
  F   F263      1.0  0.25571  0.75450  0.99309  1.0000
  F   F264      1.0  0.24597  0.73547  0.51805  1.0000
  F   F265      1.0  0.50446  0.26639  0.00161  1.0000
  F   F266      1.0  0.49716  0.23842  0.50687  1.0000
  F   F267      1.0  0.50716  0.74961  0.99914  1.0000
  F   F268      1.0  0.49951  0.75202  0.50297  1.0000
  F   F269      1.0  0.74781  0.25263  0.98724  1.0000
  F   F270      1.0  0.74741  0.24591  0.50684  1.0000
  F   F271      1.0  0.74768  0.73490  0.01005  1.0000
  F   F272      1.0  0.75254  0.75648  0.48803  1.0000
  F   F273      1.0  0.13704  0.01422  0.22922  1.0000
  F   F274      1.0  0.12796  0.00254  0.74510  1.0000
  F   F275      1.0  0.12054  0.49488  0.25894  1.0000
  F   F276      1.0  0.12889  0.51112  0.74446  1.0000
  F   F277      1.0  0.37343  0.00795  0.25358  1.0000
  F   F278      1.0  0.36893  0.99651  0.76594  1.0000
  F   F279      1.0  0.37723  0.49972  0.25828  1.0000
  F   F280      1.0  0.38666  0.50908  0.73313  1.0000
  F   F281      1.0  0.63127  0.00415  0.23444  1.0000
  F   F282      1.0  0.61093  0.98732  0.78424  1.0000
  F   F283      1.0  0.61793  0.48932  0.25153  1.0000
  F   F284      1.0  0.62464  0.49530  0.75062  1.0000
  F   F285      1.0  0.87777  0.00710  0.24951  1.0000
  F   F286      1.0  0.87685  0.00308  0.75039  1.0000
  F   F287      1.0  0.87053  0.49148  0.25998  1.0000
  F   F288      1.0  0.87605  0.49935  0.74537  1.0000
  F   F289      1.0  0.05949  0.03326  0.00565  1.0000
  F   F290      1.0  0.03560  0.02478  0.53277  1.0000
  F   F291      1.0  0.04515  0.52602  0.01402  1.0000
  F   F292      1.0  0.03997  0.52629  0.52974  1.0000
  F   F293      1.0  0.30534  0.02168  0.00594  1.0000
  F   F294      1.0  0.29022  0.03653  0.53217  1.0000
  F   F295      1.0  0.29468  0.53728  0.03508  1.0000
  F   F296      1.0  0.29880  0.52943  0.53144  1.0000
  F   F297      1.0  0.54568  0.03274  0.01123  1.0000
  F   F298      1.0  0.54087  0.01839  0.53888  1.0000
  F   F299      1.0  0.53936  0.53593  0.02338  1.0000
  F   F300      1.0  0.54610  0.52434  0.52132  1.0000
  F   F301      1.0  0.79759  0.01123  0.02518  1.0000
  F   F302      1.0  0.79024  0.04126  0.53054  1.0000
  F   F303      1.0  0.78838  0.54496  0.02197  1.0000
  F   F304      1.0  0.79198  0.53883  0.52679  1.0000
  F   F305      1.0  0.23070  0.41654  0.23081  1.0000
  F   F306      1.0  0.23385  0.41729  0.73324  1.0000
  F   F307      1.0  0.24081  0.92324  0.21996  1.0000
  F   F308      1.0  0.23459  0.91234  0.72260  1.0000
  F   F309      1.0  0.48206  0.40261  0.24583  1.0000
  F   F310      1.0  0.48896  0.41467  0.71713  1.0000
  F   F311      1.0  0.48610  0.91735  0.22512  1.0000
  F   F312      1.0  0.48626  0.89849  0.74120  1.0000
  F   F313      1.0  0.72737  0.41730  0.22159  1.0000
  F   F314      1.0  0.73832  0.41155  0.72975  1.0000
  F   F315      1.0  0.73907  0.92832  0.22358  1.0000
  F   F316      1.0  0.73876  0.90307  0.72855  1.0000
  F   F317      1.0  0.98953  0.41146  0.22633  1.0000
  F   F318      1.0  0.98229  0.41950  0.71513  1.0000
  F   F319      1.0  0.98868  0.90499  0.22159  1.0000
  F   F320      1.0  0.98254  0.93013  0.72122  1.0000
  F   F321      1.0  0.20621  0.47331  0.46675  1.0000
  F   F322      1.0  0.21132  0.46246  0.98099  1.0000
  F   F323      1.0  0.20455  0.96725  0.49094  1.0000
  F   F324      1.0  0.20390  0.96836  0.98523  1.0000
  F   F325      1.0  0.45848  0.45860  0.47782  1.0000
  F   F326      1.0  0.45404  0.45991  0.97814  1.0000
  F   F327      1.0  0.44915  0.96350  0.47704  1.0000
  F   F328      1.0  0.45411  0.98158  0.96930  1.0000
  F   F329      1.0  0.70724  0.46797  0.47626  1.0000
  F   F330      1.0  0.70503  0.46667  0.97456  1.0000
  F   F331      1.0  0.70653  0.96094  0.48399  1.0000
  F   F332      1.0  0.70902  0.97192  0.96766  1.0000
  F   F333      1.0  0.95647  0.47929  0.46214  1.0000
  F   F334      1.0  0.95173  0.45408  0.97341  1.0000
  F   F335      1.0  0.95816  0.96740  0.47809  1.0000
  F   F336      1.0  0.95152  0.97547  0.98189  1.0000
  F   F337      1.0  0.01467  0.09892  0.26773  1.0000
  F   F338      1.0  0.02338  0.07226  0.77747  1.0000
  F   F339      1.0  0.01671  0.59067  0.26815  1.0000
  F   F340      1.0  0.02015  0.57909  0.77378  1.0000
  F   F341      1.0  0.26795  0.09537  0.26615  1.0000
  F   F342      1.0  0.25823  0.07547  0.78391  1.0000
  F   F343      1.0  0.26721  0.58895  0.27829  1.0000
  F   F344      1.0  0.26036  0.58747  0.77998  1.0000
  F   F345      1.0  0.51654  0.05970  0.28171  1.0000
  F   F346      1.0  0.51974  0.08449  0.78660  1.0000
  F   F347      1.0  0.51397  0.57996  0.28946  1.0000
  F   F348      1.0  0.51501  0.58596  0.77617  1.0000
  F   F349      1.0  0.75890  0.08501  0.28392  1.0000
  F   F350      1.0  0.76475  0.10111  0.76797  1.0000
  F   F351      1.0  0.76223  0.56457  0.28348  1.0000
  F   F352      1.0  0.76603  0.59315  0.77123  1.0000
  F   F353      1.0  0.09718  0.42726  0.45434  1.0000
  F   F354      1.0  0.09736  0.40365  0.95140  1.0000
  F   F355      1.0  0.10147  0.91528  0.45493  1.0000
  F   F356      1.0  0.10215  0.88917  0.96478  1.0000
  F   F357      1.0  0.35326  0.40310  0.46831  1.0000
  F   F358      1.0  0.34418  0.43282  0.94650  1.0000
  F   F359      1.0  0.34908  0.92369  0.45514  1.0000
  F   F360      1.0  0.35509  0.88585  0.96299  1.0000
  F   F361      1.0  0.60482  0.40416  0.46548  1.0000
  F   F362      1.0  0.59470  0.40820  0.97263  1.0000
  F   F363      1.0  0.60183  0.91920  0.45088  1.0000
  F   F364      1.0  0.60114  0.89232  0.96892  1.0000
  F   F365      1.0  0.84833  0.40659  0.45774  1.0000
  F   F366      1.0  0.84666  0.41251  0.97220  1.0000
  F   F367      1.0  0.85211  0.91637  0.46056  1.0000
  F   F368      1.0  0.85304  0.88274  0.96812  1.0000
  F   F369      1.0  0.05655  0.29647  0.27992  1.0000
  F   F370      1.0  0.03946  0.29351  0.79653  1.0000
  F   F371      1.0  0.05412  0.79907  0.29236  1.0000
  F   F372      1.0  0.04125  0.80536  0.78846  1.0000
  F   F373      1.0  0.29818  0.30896  0.27306  1.0000
  F   F374      1.0  0.29387  0.29329  0.77812  1.0000
  F   F375      1.0  0.29888  0.80500  0.29183  1.0000
  F   F376      1.0  0.29241  0.78174  0.78218  1.0000
  F   F377      1.0  0.55572  0.29798  0.29275  1.0000
  F   F378      1.0  0.55093  0.30193  0.78578  1.0000
  F   F379      1.0  0.54300  0.79172  0.29996  1.0000
  F   F380      1.0  0.55125  0.77750  0.78051  1.0000
  F   F381      1.0  0.78183  0.28834  0.28552  1.0000
  F   F382      1.0  0.81113  0.29130  0.79432  1.0000
  F   F383      1.0  0.79606  0.79861  0.28973  1.0000
  F   F384      1.0  0.80505  0.80486  0.77921  1.0000
