data_image0
_chemical_formula_structural       Hf96F384
_chemical_formula_sum              "Hf96 F384"
_cell_length_a       31.0574
_cell_length_b       15.5325
_cell_length_c       15.5201
_cell_angle_alpha    63.342
_cell_angle_beta     63.342
_cell_angle_gamma    80.1625

_space_group_name_H-M_alt    "P 1"
_space_group_IT_number       1

loop_
  _space_group_symop_operation_xyz
  'x, y, z'

loop_
  _atom_site_type_symbol
  _atom_site_label
  _atom_site_symmetry_multiplicity
  _atom_site_fract_x
  _atom_site_fract_y
  _atom_site_fract_z
  _atom_site_occupancy
  Hf  Hf1       1.0  0.19584  0.10634  0.37791  1.0000
  Hf  Hf2       1.0  0.19907  0.10524  0.86330  1.0000
  Hf  Hf3       1.0  0.19769  0.61196  0.37530  1.0000
  Hf  Hf4       1.0  0.19907  0.61426  0.86888  1.0000
  Hf  Hf5       1.0  0.44662  0.10058  0.38538  1.0000
  Hf  Hf6       1.0  0.44716  0.10350  0.87962  1.0000
  Hf  Hf7       1.0  0.44864  0.60900  0.37828  1.0000
  Hf  Hf8       1.0  0.44798  0.60683  0.87547  1.0000
  Hf  Hf9       1.0  0.69245  0.11943  0.37089  1.0000
  Hf  Hf10      1.0  0.69482  0.09879  0.86379  1.0000
  Hf  Hf11      1.0  0.69537  0.60870  0.37787  1.0000
  Hf  Hf12      1.0  0.69939  0.61042  0.85857  1.0000
  Hf  Hf13      1.0  0.93800  0.09338  0.38626  1.0000
  Hf  Hf14      1.0  0.94337  0.11319  0.86684  1.0000
  Hf  Hf15      1.0  0.94800  0.61501  0.36891  1.0000
  Hf  Hf16      1.0  0.94538  0.61255  0.88229  1.0000
  Hf  Hf17      1.0  0.05462  0.39036  0.13532  1.0000
  Hf  Hf18      1.0  0.05483  0.39344  0.62171  1.0000
  Hf  Hf19      1.0  0.05464  0.89592  0.12581  1.0000
  Hf  Hf20      1.0  0.05525  0.89083  0.61947  1.0000
  Hf  Hf21      1.0  0.30709  0.39403  0.11773  1.0000
  Hf  Hf22      1.0  0.30291  0.39526  0.61600  1.0000
  Hf  Hf23      1.0  0.30445  0.88505  0.13351  1.0000
  Hf  Hf24      1.0  0.30820  0.89278  0.62101  1.0000
  Hf  Hf25      1.0  0.55524  0.38858  0.12574  1.0000
  Hf  Hf26      1.0  0.54757  0.38949  0.64335  1.0000
  Hf  Hf27      1.0  0.55425  0.89450  0.12243  1.0000
  Hf  Hf28      1.0  0.55635  0.89375  0.62638  1.0000
  Hf  Hf29      1.0  0.80095  0.39205  0.13323  1.0000
  Hf  Hf30      1.0  0.80513  0.39071  0.61864  1.0000
  Hf  Hf31      1.0  0.80304  0.89129  0.12653  1.0000
  Hf  Hf32      1.0  0.79928  0.88627  0.63953  1.0000
  Hf  Hf33      1.0  0.05507  0.17847  0.41683  1.0000
  Hf  Hf34      1.0  0.05416  0.18360  0.90799  1.0000
  Hf  Hf35      1.0  0.05437  0.68067  0.41836  1.0000
  Hf  Hf36      1.0  0.05597  0.67576  0.92118  1.0000
  Hf  Hf37      1.0  0.30748  0.18128  0.41261  1.0000
  Hf  Hf38      1.0  0.30276  0.18319  0.91836  1.0000
  Hf  Hf39      1.0  0.30605  0.67763  0.42395  1.0000
  Hf  Hf40      1.0  0.30918  0.68026  0.91996  1.0000
  Hf  Hf41      1.0  0.55077  0.18225  0.42386  1.0000
  Hf  Hf42      1.0  0.55594  0.18129  0.92357  1.0000
  Hf  Hf43      1.0  0.55919  0.68224  0.41387  1.0000
  Hf  Hf44      1.0  0.55634  0.67462  0.92346  1.0000
  Hf  Hf45      1.0  0.80339  0.17814  0.42036  1.0000
  Hf  Hf46      1.0  0.80120  0.17166  0.91284  1.0000
  Hf  Hf47      1.0  0.80627  0.68426  0.41237  1.0000
  Hf  Hf48      1.0  0.80300  0.67150  0.92832  1.0000
  Hf  Hf49      1.0  0.16427  0.39398  0.32872  1.0000
  Hf  Hf50      1.0  0.16163  0.38429  0.83193  1.0000
  Hf  Hf51      1.0  0.15816  0.88672  0.32597  1.0000
  Hf  Hf52      1.0  0.16050  0.89155  0.83220  1.0000
  Hf  Hf53      1.0  0.41315  0.38557  0.33529  1.0000
  Hf  Hf54      1.0  0.40612  0.38725  0.83372  1.0000
  Hf  Hf55      1.0  0.40978  0.89130  0.32826  1.0000
  Hf  Hf56      1.0  0.41102  0.88740  0.83324  1.0000
  Hf  Hf57      1.0  0.65081  0.38999  0.35074  1.0000
  Hf  Hf58      1.0  0.66361  0.38833  0.82817  1.0000
  Hf  Hf59      1.0  0.65659  0.89143  0.33130  1.0000
  Hf  Hf60      1.0  0.65328  0.88874  0.83507  1.0000
  Hf  Hf61      1.0  0.90824  0.39205  0.32735  1.0000
  Hf  Hf62      1.0  0.91110  0.38602  0.83259  1.0000
  Hf  Hf63      1.0  0.90613  0.89073  0.33122  1.0000
  Hf  Hf64      1.0  0.90675  0.89044  0.83597  1.0000
  Hf  Hf65      1.0  0.19389  0.31648  0.09140  1.0000
  Hf  Hf66      1.0  0.19355  0.32205  0.57280  1.0000
  Hf  Hf67      1.0  0.19263  0.81376  0.08444  1.0000
  Hf  Hf68      1.0  0.19364  0.82057  0.58428  1.0000
  Hf  Hf69      1.0  0.44557  0.30968  0.08867  1.0000
  Hf  Hf70      1.0  0.44388  0.32581  0.58300  1.0000
  Hf  Hf71      1.0  0.44649  0.81404  0.07933  1.0000
  Hf  Hf72      1.0  0.44676  0.80189  0.58515  1.0000
  Hf  Hf73      1.0  0.69663  0.32815  0.07533  1.0000
  Hf  Hf74      1.0  0.69377  0.32878  0.57741  1.0000
  Hf  Hf75      1.0  0.69317  0.80963  0.08648  1.0000
  Hf  Hf76      1.0  0.69698  0.82603  0.57350  1.0000
  Hf  Hf77      1.0  0.94102  0.32642  0.08910  1.0000
  Hf  Hf78      1.0  0.94615  0.32727  0.57489  1.0000
  Hf  Hf79      1.0  0.94625  0.82723  0.07289  1.0000
  Hf  Hf80      1.0  0.94390  0.81546  0.58722  1.0000
  Hf  Hf81      1.0  0.08969  0.11541  0.16709  1.0000
  Hf  Hf82      1.0  0.09133  0.10503  0.66226  1.0000
  Hf  Hf83      1.0  0.09162  0.61896  0.15797  1.0000
  Hf  Hf84      1.0  0.09036  0.61651  0.66613  1.0000
  Hf  Hf85      1.0  0.34190  0.10776  0.17411  1.0000
  Hf  Hf86      1.0  0.34618  0.11170  0.66253  1.0000
  Hf  Hf87      1.0  0.34145  0.60960  0.17293  1.0000
  Hf  Hf88      1.0  0.34052  0.60761  0.67040  1.0000
  Hf  Hf89      1.0  0.58898  0.10742  0.17662  1.0000
  Hf  Hf90      1.0  0.58693  0.11715  0.66702  1.0000
  Hf  Hf91      1.0  0.59022  0.61182  0.16248  1.0000
  Hf  Hf92      1.0  0.59328  0.60938  0.67141  1.0000
  Hf  Hf93      1.0  0.83544  0.11336  0.16595  1.0000
  Hf  Hf94      1.0  0.84138  0.10872  0.66966  1.0000
  Hf  Hf95      1.0  0.84160  0.61848  0.16194  1.0000
  Hf  Hf96      1.0  0.84186  0.60718  0.66869  1.0000
  F   F1        1.0  0.07983  0.11485  0.30813  1.0000
  F   F2        1.0  0.07569  0.13638  0.79575  1.0000
  F   F3        1.0  0.07731  0.63133  0.29431  1.0000
  F   F4        1.0  0.07637  0.61420  0.81166  1.0000
  F   F5        1.0  0.33823  0.13743  0.29237  1.0000
  F   F6        1.0  0.32724  0.13339  0.80933  1.0000
  F   F7        1.0  0.33669  0.61530  0.31472  1.0000
  F   F8        1.0  0.33123  0.61164  0.81036  1.0000
  F   F9        1.0  0.57593  0.11270  0.32178  1.0000
  F   F10       1.0  0.57743  0.14112  0.80373  1.0000
  F   F11       1.0  0.56829  0.62109  0.31453  1.0000
  F   F12       1.0  0.59408  0.63408  0.80086  1.0000
  F   F13       1.0  0.82622  0.12962  0.30068  1.0000
  F   F14       1.0  0.82598  0.09440  0.81695  1.0000
  F   F15       1.0  0.83520  0.64971  0.28782  1.0000
  F   F16       1.0  0.82918  0.61066  0.81173  1.0000
  F   F17       1.0  0.19508  0.34648  0.41977  1.0000
  F   F18       1.0  0.18487  0.33158  0.95502  1.0000
  F   F19       1.0  0.17897  0.83895  0.45315  1.0000
  F   F20       1.0  0.19326  0.84717  0.93892  1.0000
  F   F21       1.0  0.43618  0.33174  0.45759  1.0000
  F   F22       1.0  0.43202  0.33068  0.94621  1.0000
  F   F23       1.0  0.43216  0.83215  0.44676  1.0000
  F   F24       1.0  0.43696  0.83944  0.95004  1.0000
  F   F25       1.0  0.68589  0.35860  0.44206  1.0000
  F   F26       1.0  0.68515  0.33879  0.95045  1.0000
  F   F27       1.0  0.68650  0.85265  0.44370  1.0000
  F   F28       1.0  0.68052  0.83101  0.94950  1.0000
  F   F29       1.0  0.93663  0.35458  0.44018  1.0000
  F   F30       1.0  0.94477  0.35453  0.92759  1.0000
  F   F31       1.0  0.93151  0.85135  0.44129  1.0000
  F   F32       1.0  0.93707  0.85219  0.94468  1.0000
  F   F33       1.0  0.17808  0.36969  0.19939  1.0000
  F   F34       1.0  0.16141  0.34501  0.69907  1.0000
  F   F35       1.0  0.17146  0.86179  0.20344  1.0000
  F   F36       1.0  0.17121  0.88104  0.69407  1.0000
  F   F37       1.0  0.42168  0.35943  0.20951  1.0000
  F   F38       1.0  0.41235  0.36796  0.70566  1.0000
  F   F39       1.0  0.42578  0.88592  0.18501  1.0000
  F   F40       1.0  0.42576  0.85619  0.70225  1.0000
  F   F41       1.0  0.66214  0.37383  0.19652  1.0000
  F   F42       1.0  0.67607  0.40463  0.67974  1.0000
  F   F43       1.0  0.67318  0.86734  0.18956  1.0000
  F   F44       1.0  0.67193  0.88202  0.69318  1.0000
  F   F45       1.0  0.91936  0.39602  0.18473  1.0000
  F   F46       1.0  0.92252  0.37368  0.69840  1.0000
  F   F47       1.0  0.92268  0.87517  0.19781  1.0000
  F   F48       1.0  0.91855  0.86848  0.69496  1.0000
  F   F49       1.0  0.06211  0.15495  0.05635  1.0000
  F   F50       1.0  0.06436  0.15951  0.54702  1.0000
  F   F51       1.0  0.06655  0.66180  0.04399  1.0000
  F   F52       1.0  0.07216  0.67502  0.54340  1.0000
  F   F53       1.0  0.30784  0.14235  0.06048  1.0000
  F   F54       1.0  0.32289  0.16216  0.54558  1.0000
  F   F55       1.0  0.32404  0.67600  0.04046  1.0000
  F   F56       1.0  0.30534  0.64152  0.56716  1.0000
  F   F57       1.0  0.55938  0.14893  0.06613  1.0000
  F   F58       1.0  0.56358  0.15945  0.55935  1.0000
  F   F59       1.0  0.55615  0.64954  0.06490  1.0000
  F   F60       1.0  0.56463  0.67050  0.55058  1.0000
  F   F61       1.0  0.81658  0.16799  0.04081  1.0000
  F   F62       1.0  0.82126  0.16398  0.53976  1.0000
  F   F63       1.0  0.80665  0.65739  0.05694  1.0000
  F   F64       1.0  0.81534  0.65157  0.54241  1.0000
  F   F65       1.0  0.21451  0.20578  0.21988  1.0000
  F   F66       1.0  0.20575  0.20183  0.69707  1.0000
  F   F67       1.0  0.20358  0.69430  0.21396  1.0000
  F   F68       1.0  0.20502  0.69720  0.72123  1.0000
  F   F69       1.0  0.45971  0.19235  0.22337  1.0000
  F   F70       1.0  0.45705  0.20541  0.69935  1.0000
  F   F71       1.0  0.44865  0.70373  0.20555  1.0000
  F   F72       1.0  0.45959  0.69240  0.71310  1.0000
  F   F73       1.0  0.70477  0.21672  0.21564  1.0000
  F   F74       1.0  0.69508  0.21190  0.70087  1.0000
  F   F75       1.0  0.71459  0.69525  0.19533  1.0000
  F   F76       1.0  0.70007  0.69951  0.70672  1.0000
  F   F77       1.0  0.93414  0.21542  0.22129  1.0000
  F   F78       1.0  0.95596  0.21457  0.70780  1.0000
  F   F79       1.0  0.95387  0.71824  0.20010  1.0000
  F   F80       1.0  0.95394  0.69879  0.71859  1.0000
  F   F81       1.0  0.14801  0.08972  0.04037  1.0000
  F   F82       1.0  0.15275  0.07319  0.55695  1.0000
  F   F83       1.0  0.14902  0.60874  0.02762  1.0000
  F   F84       1.0  0.14723  0.59155  0.54483  1.0000
  F   F85       1.0  0.40223  0.08067  0.03427  1.0000
  F   F86       1.0  0.40399  0.08439  0.53469  1.0000
  F   F87       1.0  0.40866  0.59548  0.03232  1.0000
  F   F88       1.0  0.39755  0.60457  0.54059  1.0000
  F   F89       1.0  0.64551  0.09659  0.05427  1.0000
  F   F90       1.0  0.64692  0.08506  0.53196  1.0000
  F   F91       1.0  0.64851  0.59491  0.05608  1.0000
  F   F92       1.0  0.64527  0.58557  0.52915  1.0000
  F   F93       1.0  0.89934  0.08573  0.01671  1.0000
  F   F94       1.0  0.89280  0.07344  0.55060  1.0000
  F   F95       1.0  0.89914  0.59156  0.04807  1.0000
  F   F96       1.0  0.89665  0.60083  0.53416  1.0000
  F   F97       1.0  0.15287  0.19187  0.14468  1.0000
  F   F98       1.0  0.14317  0.20120  0.62077  1.0000
  F   F99       1.0  0.15202  0.69280  0.12692  1.0000
  F   F100      1.0  0.14558  0.70660  0.64046  1.0000
  F   F101      1.0  0.40634  0.19407  0.12332  1.0000
  F   F102      1.0  0.39567  0.19435  0.64653  1.0000
  F   F103      1.0  0.39685  0.68864  0.12436  1.0000
  F   F104      1.0  0.40431  0.69259  0.63751  1.0000
  F   F105      1.0  0.65407  0.20176  0.14066  1.0000
  F   F106      1.0  0.64697  0.20272  0.61050  1.0000
  F   F107      1.0  0.64454  0.69865  0.13709  1.0000
  F   F108      1.0  0.65529  0.68675  0.61381  1.0000
  F   F109      1.0  0.89767  0.20248  0.10166  1.0000
  F   F110      1.0  0.89976  0.19402  0.62996  1.0000
  F   F111      1.0  0.89886  0.71555  0.11918  1.0000
  F   F112      1.0  0.89644  0.70601  0.62615  1.0000
  F   F113      1.0  0.09646  0.29859  0.34928  1.0000
  F   F114      1.0  0.09948  0.30179  0.86974  1.0000
  F   F115      1.0  0.09791  0.80880  0.37454  1.0000
  F   F116      1.0  0.11025  0.80327  0.87821  1.0000
  F   F117      1.0  0.35254  0.30378  0.37437  1.0000
  F   F118      1.0  0.34845  0.29380  0.89821  1.0000
  F   F119      1.0  0.34796  0.79383  0.39216  1.0000
  F   F120      1.0  0.34955  0.81471  0.87856  1.0000
  F   F121      1.0  0.58486  0.30746  0.40274  1.0000
  F   F122      1.0  0.59996  0.28892  0.86854  1.0000
  F   F123      1.0  0.60372  0.81339  0.36172  1.0000
  F   F124      1.0  0.59995  0.79556  0.87836  1.0000
  F   F125      1.0  0.84582  0.30659  0.36225  1.0000
  F   F126      1.0  0.83811  0.32749  0.88501  1.0000
  F   F127      1.0  0.85022  0.80766  0.36559  1.0000
  F   F128      1.0  0.84733  0.80628  0.88694  1.0000
  F   F129      1.0  0.07999  0.26012  0.11778  1.0000
  F   F130      1.0  0.05478  0.25271  0.64907  1.0000
  F   F131      1.0  0.05710  0.74857  0.14918  1.0000
  F   F132      1.0  0.06661  0.75426  0.63683  1.0000
  F   F133      1.0  0.32726  0.25763  0.12684  1.0000
  F   F134      1.0  0.31218  0.24402  0.64320  1.0000
  F   F135      1.0  0.31230  0.74699  0.15400  1.0000
  F   F136      1.0  0.32047  0.74601  0.63930  1.0000
  F   F137      1.0  0.57616  0.26156  0.12926  1.0000
  F   F138      1.0  0.55462  0.25116  0.65504  1.0000
  F   F139      1.0  0.57120  0.74953  0.11709  1.0000
  F   F140      1.0  0.57490  0.74714  0.63843  1.0000
  F   F141      1.0  0.80110  0.24780  0.14728  1.0000
  F   F142      1.0  0.80919  0.25003  0.65225  1.0000
  F   F143      1.0  0.81032  0.75235  0.13281  1.0000
  F   F144      1.0  0.81180  0.74035  0.64077  1.0000
  F   F145      1.0  0.12288  0.37152  0.12554  1.0000
  F   F146      1.0  0.12817  0.38098  0.58229  1.0000
  F   F147      1.0  0.12081  0.86953  0.12551  1.0000
  F   F148      1.0  0.12326  0.86955  0.61105  1.0000
  F   F149      1.0  0.38289  0.37279  0.10472  1.0000
  F   F150      1.0  0.37553  0.36008  0.60509  1.0000
  F   F151      1.0  0.37612  0.83320  0.14481  1.0000
  F   F152      1.0  0.37722  0.85952  0.61436  1.0000
  F   F153      1.0  0.63210  0.40948  0.07058  1.0000
  F   F154      1.0  0.62149  0.36056  0.62399  1.0000
  F   F155      1.0  0.62377  0.88382  0.10263  1.0000
  F   F156      1.0  0.62627  0.85406  0.61766  1.0000
  F   F157      1.0  0.86877  0.33837  0.13285  1.0000
  F   F158      1.0  0.87634  0.36516  0.60535  1.0000
  F   F159      1.0  0.87393  0.88368  0.10791  1.0000
  F   F160      1.0  0.87135  0.88967  0.59168  1.0000
  F   F161      1.0  0.17089  0.24288  0.37505  1.0000
  F   F162      1.0  0.19246  0.24695  0.85229  1.0000
  F   F163      1.0  0.19073  0.74930  0.34722  1.0000
  F   F164      1.0  0.19285  0.75836  0.84868  1.0000
  F   F165      1.0  0.43430  0.23997  0.37756  1.0000
  F   F166      1.0  0.44053  0.24386  0.84453  1.0000
  F   F167      1.0  0.44964  0.76006  0.32880  1.0000
  F   F168      1.0  0.43727  0.74930  0.86244  1.0000
  F   F169      1.0  0.67808  0.26302  0.36328  1.0000
  F   F170      1.0  0.67863  0.25137  0.86076  1.0000
  F   F171      1.0  0.69529  0.75540  0.34929  1.0000
  F   F172      1.0  0.68347  0.74334  0.85088  1.0000
  F   F173      1.0  0.92238  0.24259  0.38991  1.0000
  F   F174      1.0  0.92944  0.24319  0.87263  1.0000
  F   F175      1.0  0.93113  0.74038  0.37617  1.0000
  F   F176      1.0  0.93156  0.74629  0.87183  1.0000
  F   F177      1.0  0.12723  0.11551  0.40540  1.0000
  F   F178      1.0  0.12627  0.14815  0.88070  1.0000
  F   F179      1.0  0.12561  0.63430  0.39070  1.0000
  F   F180      1.0  0.12355  0.62662  0.89657  1.0000
  F   F181      1.0  0.37565  0.12368  0.39587  1.0000
  F   F182      1.0  0.37827  0.14121  0.88844  1.0000
  F   F183      1.0  0.38062  0.63494  0.39463  1.0000
  F   F184      1.0  0.37831  0.64425  0.87118  1.0000
  F   F185      1.0  0.62572  0.14526  0.38471  1.0000
  F   F186      1.0  0.62542  0.12294  0.89043  1.0000
  F   F187      1.0  0.63469  0.64018  0.36553  1.0000
  F   F188      1.0  0.62947  0.61276  0.91511  1.0000
  F   F189      1.0  0.87246  0.12110  0.39359  1.0000
  F   F190      1.0  0.87562  0.15353  0.86635  1.0000
  F   F191      1.0  0.87733  0.63636  0.38328  1.0000
  F   F192      1.0  0.87411  0.64149  0.89650  1.0000
  F   F193      1.0  0.00171  0.34189  0.10669  1.0000
  F   F194      1.0  0.01369  0.38056  0.55105  1.0000
  F   F195      1.0  0.00458  0.87891  0.06891  1.0000
  F   F196      1.0  0.00899  0.86229  0.56134  1.0000
  F   F197      1.0  0.26437  0.36594  0.06713  1.0000
  F   F198      1.0  0.25398  0.35474  0.57732  1.0000
  F   F199      1.0  0.25704  0.85558  0.06326  1.0000
  F   F200      1.0  0.26105  0.84187  0.58817  1.0000
  F   F201      1.0  0.51423  0.36172  0.06406  1.0000
  F   F202      1.0  0.50377  0.37402  0.58225  1.0000
  F   F203      1.0  0.50805  0.86632  0.06658  1.0000
  F   F204      1.0  0.50993  0.84848  0.59310  1.0000
  F   F205      1.0  0.75174  0.37667  0.06821  1.0000
  F   F206      1.0  0.75776  0.35609  0.57691  1.0000
  F   F207      1.0  0.75782  0.86596  0.06431  1.0000
  F   F208      1.0  0.75560  0.85759  0.59684  1.0000
  F   F209      1.0  0.07630  0.49829  0.16040  1.0000
  F   F210      1.0  0.07110  0.47934  0.67015  1.0000
  F   F211      1.0  0.06113  0.99387  0.19631  1.0000
  F   F212      1.0  0.06884  0.98611  0.66407  1.0000
  F   F213      1.0  0.32988  0.49994  0.13188  1.0000
  F   F214      1.0  0.32341  0.47408  0.66823  1.0000
  F   F215      1.0  0.31944  0.97704  0.18125  1.0000
  F   F216      1.0  0.32511  0.98680  0.66056  1.0000
  F   F217      1.0  0.56221  0.47251  0.19914  1.0000
  F   F218      1.0  0.56263  0.48742  0.68030  1.0000
  F   F219      1.0  0.57025  0.98289  0.17458  1.0000
  F   F220      1.0  0.56982  0.97136  0.68777  1.0000
  F   F221      1.0  0.82773  0.49013  0.16279  1.0000
  F   F222      1.0  0.82673  0.48269  0.66878  1.0000
  F   F223      1.0  0.81607  0.99240  0.16553  1.0000
  F   F224      1.0  0.81353  0.97166  0.70524  1.0000
  F   F225      1.0  0.24264  0.16011  0.40440  1.0000
  F   F226      1.0  0.24093  0.15268  0.92305  1.0000
  F   F227      1.0  0.24911  0.65031  0.40736  1.0000
  F   F228      1.0  0.24428  0.63859  0.91496  1.0000
  F   F229      1.0  0.49213  0.13149  0.43408  1.0000
  F   F230      1.0  0.49504  0.12354  0.92419  1.0000
  F   F231      1.0  0.48581  0.64773  0.44100  1.0000
  F   F232      1.0  0.49975  0.63231  0.92371  1.0000
  F   F233      1.0  0.73503  0.14361  0.42764  1.0000
  F   F234      1.0  0.74129  0.13651  0.90885  1.0000
  F   F235      1.0  0.74540  0.63742  0.44123  1.0000
  F   F236      1.0  0.74150  0.63583  0.91935  1.0000
  F   F237      1.0  0.98583  0.14565  0.43189  1.0000
  F   F238      1.0  0.99100  0.13784  0.92102  1.0000
  F   F239      1.0  0.99715  0.62494  0.41995  1.0000
  F   F240      1.0  0.99560  0.64848  0.92087  1.0000
  F   F241      1.0  0.19193  0.00993  0.32362  1.0000
  F   F242      1.0  0.18113  0.02383  0.81333  1.0000
  F   F243      1.0  0.18076  0.51674  0.33578  1.0000
  F   F244      1.0  0.17208  0.51191  0.84203  1.0000
  F   F245      1.0  0.43314  0.00820  0.32514  1.0000
  F   F246      1.0  0.42513  0.01900  0.82695  1.0000
  F   F247      1.0  0.43206  0.50643  0.32169  1.0000
  F   F248      1.0  0.42639  0.51915  0.83533  1.0000
  F   F249      1.0  0.67515  0.02682  0.32173  1.0000
  F   F250      1.0  0.68018  0.00665  0.82593  1.0000
  F   F251      1.0  0.68505  0.51614  0.32439  1.0000
  F   F252      1.0  0.68552  0.51233  0.81313  1.0000
  F   F253      1.0  0.93483  0.01317  0.31545  1.0000
  F   F254      1.0  0.93312  0.02496  0.81108  1.0000
  F   F255      1.0  0.92830  0.51754  0.31304  1.0000
  F   F256      1.0  0.92775  0.51795  0.84106  1.0000
  F   F257      1.0  0.99556  0.26245  0.99591  1.0000
  F   F258      1.0  0.00028  0.24619  0.50933  1.0000
  F   F259      1.0  0.99969  0.74246  0.00208  1.0000
  F   F260      1.0  0.99253  0.74302  0.51546  1.0000
  F   F261      1.0  0.24578  0.24353  0.01580  1.0000
  F   F262      1.0  0.25126  0.24955  0.49176  1.0000
  F   F263      1.0  0.24836  0.72593  0.01174  1.0000
  F   F264      1.0  0.24217  0.73867  0.50548  1.0000
  F   F265      1.0  0.50190  0.26574  0.99856  1.0000
  F   F266      1.0  0.49794  0.25467  0.50074  1.0000
  F   F267      1.0  0.51027  0.75601  0.99134  1.0000
  F   F268      1.0  0.50432  0.75987  0.49003  1.0000
  F   F269      1.0  0.75045  0.24357  0.98573  1.0000
  F   F270      1.0  0.74929  0.25292  0.49917  1.0000
  F   F271      1.0  0.75141  0.75978  0.98706  1.0000
  F   F272      1.0  0.75360  0.76690  0.49221  1.0000
  F   F273      1.0  0.13333  0.00775  0.24050  1.0000
  F   F274      1.0  0.12624  0.00560  0.75695  1.0000
  F   F275      1.0  0.13055  0.50686  0.23887  1.0000
  F   F276      1.0  0.13015  0.49237  0.73930  1.0000
  F   F277      1.0  0.38286  0.01000  0.24357  1.0000
  F   F278      1.0  0.37703  0.99383  0.75779  1.0000
  F   F279      1.0  0.37048  0.48821  0.24828  1.0000
  F   F280      1.0  0.37560  0.50194  0.73996  1.0000
  F   F281      1.0  0.62669  0.99814  0.24323  1.0000
  F   F282      1.0  0.61693  0.00297  0.75910  1.0000
  F   F283      1.0  0.62499  0.50488  0.25293  1.0000
  F   F284      1.0  0.61435  0.49243  0.76234  1.0000
  F   F285      1.0  0.87756  0.01564  0.23637  1.0000
  F   F286      1.0  0.88295  0.99590  0.74462  1.0000
  F   F287      1.0  0.86734  0.50496  0.26249  1.0000
  F   F288      1.0  0.88932  0.51342  0.72870  1.0000
  F   F289      1.0  0.04831  0.03117  0.02124  1.0000
  F   F290      1.0  0.03826  0.02916  0.52357  1.0000
  F   F291      1.0  0.04248  0.52664  0.02745  1.0000
  F   F292      1.0  0.04337  0.53694  0.52098  1.0000
  F   F293      1.0  0.29010  0.02706  0.01465  1.0000
  F   F294      1.0  0.28907  0.03550  0.52953  1.0000
  F   F295      1.0  0.28851  0.54495  0.01491  1.0000
  F   F296      1.0  0.28794  0.53169  0.52260  1.0000
  F   F297      1.0  0.53881  0.03141  0.02317  1.0000
  F   F298      1.0  0.53518  0.02888  0.54166  1.0000
  F   F299      1.0  0.54410  0.51899  0.02076  1.0000
  F   F300      1.0  0.54089  0.53357  0.52825  1.0000
  F   F301      1.0  0.79172  0.02358  0.02459  1.0000
  F   F302      1.0  0.79151  0.02650  0.52926  1.0000
  F   F303      1.0  0.78598  0.53043  0.04082  1.0000
  F   F304      1.0  0.79046  0.52423  0.52281  1.0000
  F   F305      1.0  0.24086  0.42311  0.21946  1.0000
  F   F306      1.0  0.23244  0.41373  0.71627  1.0000
  F   F307      1.0  0.23603  0.91871  0.20986  1.0000
  F   F308      1.0  0.23927  0.91158  0.73068  1.0000
  F   F309      1.0  0.49008  0.39286  0.24118  1.0000
  F   F310      1.0  0.47541  0.43087  0.72756  1.0000
  F   F311      1.0  0.49025  0.92365  0.21453  1.0000
  F   F312      1.0  0.48828  0.92360  0.72629  1.0000
  F   F313      1.0  0.73373  0.42591  0.22076  1.0000
  F   F314      1.0  0.73991  0.38512  0.74383  1.0000
  F   F315      1.0  0.73288  0.92808  0.21825  1.0000
  F   F316      1.0  0.73425  0.91319  0.73377  1.0000
  F   F317      1.0  0.98385  0.42334  0.21680  1.0000
  F   F318      1.0  0.99074  0.42313  0.72028  1.0000
  F   F319      1.0  0.98863  0.91019  0.23504  1.0000
  F   F320      1.0  0.98159  0.89258  0.73289  1.0000
  F   F321      1.0  0.20810  0.47776  0.47980  1.0000
  F   F322      1.0  0.20531  0.45856  0.99276  1.0000
  F   F323      1.0  0.21454  0.95850  0.47628  1.0000
  F   F324      1.0  0.20206  0.97687  0.97928  1.0000
  F   F325      1.0  0.45062  0.47861  0.48418  1.0000
  F   F326      1.0  0.45957  0.46204  0.98270  1.0000
  F   F327      1.0  0.45865  0.95522  0.47949  1.0000
  F   F328      1.0  0.45390  0.95594  0.98525  1.0000
  F   F329      1.0  0.71007  0.47774  0.47123  1.0000
  F   F330      1.0  0.71493  0.47359  0.95098  1.0000
  F   F331      1.0  0.71076  0.96921  0.48145  1.0000
  F   F332      1.0  0.70876  0.96694  0.96240  1.0000
  F   F333      1.0  0.94598  0.48242  0.48380  1.0000
  F   F334      1.0  0.95767  0.47186  0.98146  1.0000
  F   F335      1.0  0.96242  0.96773  0.46718  1.0000
  F   F336      1.0  0.96146  0.97669  0.95761  1.0000
  F   F337      1.0  0.00728  0.11715  0.26063  1.0000
  F   F338      1.0  0.01744  0.07127  0.76964  1.0000
  F   F339      1.0  0.01381  0.58550  0.27195  1.0000
  F   F340      1.0  0.01012  0.58863  0.77402  1.0000
  F   F341      1.0  0.27206  0.08684  0.27985  1.0000
  F   F342      1.0  0.27054  0.08804  0.77661  1.0000
  F   F343      1.0  0.27213  0.57958  0.27826  1.0000
  F   F344      1.0  0.26351  0.57973  0.77450  1.0000
  F   F345      1.0  0.52048  0.07229  0.28350  1.0000
  F   F346      1.0  0.51587  0.07861  0.77445  1.0000
  F   F347      1.0  0.51302  0.58959  0.27294  1.0000
  F   F348      1.0  0.51911  0.57091  0.79264  1.0000
  F   F349      1.0  0.76305  0.08702  0.27187  1.0000
  F   F350      1.0  0.76089  0.10062  0.75102  1.0000
  F   F351      1.0  0.76906  0.59235  0.27382  1.0000
  F   F352      1.0  0.76637  0.58438  0.75393  1.0000
  F   F353      1.0  0.10310  0.39908  0.44635  1.0000
  F   F354      1.0  0.09316  0.39829  0.96563  1.0000
  F   F355      1.0  0.09676  0.91715  0.45681  1.0000
  F   F356      1.0  0.10651  0.89630  0.98075  1.0000
  F   F357      1.0  0.35337  0.41048  0.45959  1.0000
  F   F358      1.0  0.35285  0.42841  0.94749  1.0000
  F   F359      1.0  0.34970  0.92039  0.45574  1.0000
  F   F360      1.0  0.35232  0.90514  0.98824  1.0000
  F   F361      1.0  0.59783  0.40679  0.47924  1.0000
  F   F362      1.0  0.59936  0.39956  0.95638  1.0000
  F   F363      1.0  0.60820  0.91185  0.46023  1.0000
  F   F364      1.0  0.59649  0.91057  0.95858  1.0000
  F   F365      1.0  0.85055  0.40103  0.46235  1.0000
  F   F366      1.0  0.84887  0.41335  0.97304  1.0000
  F   F367      1.0  0.84823  0.91395  0.44769  1.0000
  F   F368      1.0  0.85224  0.89885  0.97869  1.0000
  F   F369      1.0  0.03411  0.29563  0.28628  1.0000
  F   F370      1.0  0.05070  0.30290  0.77766  1.0000
  F   F371      1.0  0.04380  0.78736  0.30422  1.0000
  F   F372      1.0  0.05585  0.79426  0.78670  1.0000
  F   F373      1.0  0.30307  0.31037  0.27751  1.0000
  F   F374      1.0  0.29999  0.30448  0.78475  1.0000
  F   F375      1.0  0.29558  0.79763  0.31020  1.0000
  F   F376      1.0  0.30120  0.79270  0.78847  1.0000
  F   F377      1.0  0.55063  0.29231  0.28909  1.0000
  F   F378      1.0  0.53780  0.30247  0.79696  1.0000
  F   F379      1.0  0.55031  0.79562  0.28679  1.0000
  F   F380      1.0  0.54602  0.78874  0.79429  1.0000
  F   F381      1.0  0.78903  0.30854  0.29386  1.0000
  F   F382      1.0  0.81039  0.28394  0.78018  1.0000
  F   F383      1.0  0.78877  0.81108  0.28938  1.0000
  F   F384      1.0  0.80123  0.78714  0.78487  1.0000
