data_image0
_chemical_formula_structural       Hf96F384
_chemical_formula_sum              "Hf96 F384"
_cell_length_a       31.0098
_cell_length_b       15.5037
_cell_length_c       15.4954
_cell_angle_alpha    63.342
_cell_angle_beta     63.342
_cell_angle_gamma    80.1625

_space_group_name_H-M_alt    "P 1"
_space_group_IT_number       1

loop_
  _space_group_symop_operation_xyz
  'x, y, z'

loop_
  _atom_site_type_symbol
  _atom_site_label
  _atom_site_symmetry_multiplicity
  _atom_site_fract_x
  _atom_site_fract_y
  _atom_site_fract_z
  _atom_site_occupancy
  Hf  Hf1       1.0  0.19911  0.10524  0.37802  1.0000
  Hf  Hf2       1.0  0.19600  0.10688  0.87575  1.0000
  Hf  Hf3       1.0  0.19365  0.60807  0.37567  1.0000
  Hf  Hf4       1.0  0.19447  0.60670  0.87159  1.0000
  Hf  Hf5       1.0  0.44823  0.10877  0.37508  1.0000
  Hf  Hf6       1.0  0.44405  0.11200  0.87624  1.0000
  Hf  Hf7       1.0  0.44466  0.60791  0.37439  1.0000
  Hf  Hf8       1.0  0.44496  0.60812  0.87437  1.0000
  Hf  Hf9       1.0  0.69480  0.10493  0.38550  1.0000
  Hf  Hf10      1.0  0.69776  0.10547  0.87155  1.0000
  Hf  Hf11      1.0  0.69412  0.60619  0.37998  1.0000
  Hf  Hf12      1.0  0.69862  0.60061  0.87424  1.0000
  Hf  Hf13      1.0  0.94945  0.11088  0.36844  1.0000
  Hf  Hf14      1.0  0.94526  0.11480  0.87326  1.0000
  Hf  Hf15      1.0  0.94561  0.60985  0.37578  1.0000
  Hf  Hf16      1.0  0.94288  0.60148  0.88086  1.0000
  Hf  Hf17      1.0  0.05874  0.40180  0.11720  1.0000
  Hf  Hf18      1.0  0.05183  0.39120  0.62516  1.0000
  Hf  Hf19      1.0  0.05159  0.89561  0.13331  1.0000
  Hf  Hf20      1.0  0.05168  0.88533  0.62964  1.0000
  Hf  Hf21      1.0  0.30571  0.39127  0.12637  1.0000
  Hf  Hf22      1.0  0.30236  0.39926  0.61613  1.0000
  Hf  Hf23      1.0  0.30340  0.90232  0.11810  1.0000
  Hf  Hf24      1.0  0.30226  0.88995  0.63103  1.0000
  Hf  Hf25      1.0  0.54944  0.38936  0.13052  1.0000
  Hf  Hf26      1.0  0.55335  0.39410  0.63191  1.0000
  Hf  Hf27      1.0  0.55323  0.89327  0.12993  1.0000
  Hf  Hf28      1.0  0.55723  0.89767  0.61722  1.0000
  Hf  Hf29      1.0  0.79960  0.39546  0.12657  1.0000
  Hf  Hf30      1.0  0.80509  0.38699  0.62494  1.0000
  Hf  Hf31      1.0  0.80590  0.89483  0.12523  1.0000
  Hf  Hf32      1.0  0.80239  0.89065  0.63224  1.0000
  Hf  Hf33      1.0  0.05753  0.18018  0.41686  1.0000
  Hf  Hf34      1.0  0.05671  0.17966  0.91891  1.0000
  Hf  Hf35      1.0  0.05386  0.68058  0.42234  1.0000
  Hf  Hf36      1.0  0.05336  0.68926  0.91240  1.0000
  Hf  Hf37      1.0  0.30631  0.18148  0.41653  1.0000
  Hf  Hf38      1.0  0.30634  0.18590  0.91202  1.0000
  Hf  Hf39      1.0  0.30231  0.69013  0.41256  1.0000
  Hf  Hf40      1.0  0.30240  0.67766  0.91865  1.0000
  Hf  Hf41      1.0  0.55874  0.18628  0.41488  1.0000
  Hf  Hf42      1.0  0.55815  0.17727  0.91780  1.0000
  Hf  Hf43      1.0  0.55108  0.68029  0.42117  1.0000
  Hf  Hf44      1.0  0.55467  0.68318  0.91324  1.0000
  Hf  Hf45      1.0  0.80755  0.18607  0.41257  1.0000
  Hf  Hf46      1.0  0.80602  0.19079  0.90949  1.0000
  Hf  Hf47      1.0  0.80684  0.67763  0.41616  1.0000
  Hf  Hf48      1.0  0.80557  0.67580  0.91938  1.0000
  Hf  Hf49      1.0  0.16026  0.39026  0.33145  1.0000
  Hf  Hf50      1.0  0.15913  0.38932  0.83186  1.0000
  Hf  Hf51      1.0  0.15933  0.89336  0.33287  1.0000
  Hf  Hf52      1.0  0.15694  0.88401  0.83797  1.0000
  Hf  Hf53      1.0  0.40531  0.39321  0.33058  1.0000
  Hf  Hf54      1.0  0.40795  0.39081  0.83355  1.0000
  Hf  Hf55      1.0  0.40721  0.88746  0.32535  1.0000
  Hf  Hf56      1.0  0.40924  0.89080  0.82689  1.0000
  Hf  Hf57      1.0  0.66088  0.39441  0.32807  1.0000
  Hf  Hf58      1.0  0.65882  0.38238  0.83880  1.0000
  Hf  Hf59      1.0  0.66239  0.88255  0.33364  1.0000
  Hf  Hf60      1.0  0.65763  0.88750  0.83719  1.0000
  Hf  Hf61      1.0  0.90878  0.38914  0.32878  1.0000
  Hf  Hf62      1.0  0.90674  0.38373  0.84199  1.0000
  Hf  Hf63      1.0  0.90644  0.88668  0.33791  1.0000
  Hf  Hf64      1.0  0.90548  0.88389  0.84344  1.0000
  Hf  Hf65      1.0  0.19998  0.31803  0.08074  1.0000
  Hf  Hf66      1.0  0.19268  0.31185  0.58645  1.0000
  Hf  Hf67      1.0  0.19220  0.81918  0.08254  1.0000
  Hf  Hf68      1.0  0.19234  0.81919  0.58495  1.0000
  Hf  Hf69      1.0  0.44501  0.31472  0.08124  1.0000
  Hf  Hf70      1.0  0.44252  0.32121  0.58138  1.0000
  Hf  Hf71      1.0  0.44767  0.81785  0.07662  1.0000
  Hf  Hf72      1.0  0.44276  0.81833  0.57639  1.0000
  Hf  Hf73      1.0  0.69130  0.32047  0.09034  1.0000
  Hf  Hf74      1.0  0.69697  0.31294  0.58175  1.0000
  Hf  Hf75      1.0  0.69684  0.82159  0.08217  1.0000
  Hf  Hf76      1.0  0.69349  0.80959  0.59305  1.0000
  Hf  Hf77      1.0  0.94310  0.31378  0.08905  1.0000
  Hf  Hf78      1.0  0.94640  0.31473  0.57641  1.0000
  Hf  Hf79      1.0  0.94471  0.82075  0.08578  1.0000
  Hf  Hf80      1.0  0.94207  0.81764  0.58620  1.0000
  Hf  Hf81      1.0  0.09527  0.11244  0.16399  1.0000
  Hf  Hf82      1.0  0.08833  0.10368  0.67041  1.0000
  Hf  Hf83      1.0  0.09020  0.61560  0.16416  1.0000
  Hf  Hf84      1.0  0.08911  0.61282  0.67249  1.0000
  Hf  Hf85      1.0  0.34289  0.11111  0.16804  1.0000
  Hf  Hf86      1.0  0.34055  0.11558  0.66104  1.0000
  Hf  Hf87      1.0  0.34301  0.61360  0.16366  1.0000
  Hf  Hf88      1.0  0.33978  0.61928  0.66133  1.0000
  Hf  Hf89      1.0  0.59520  0.11345  0.16520  1.0000
  Hf  Hf90      1.0  0.58790  0.11108  0.67421  1.0000
  Hf  Hf91      1.0  0.59000  0.60847  0.16425  1.0000
  Hf  Hf92      1.0  0.59452  0.61102  0.66734  1.0000
  Hf  Hf93      1.0  0.83979  0.10961  0.16564  1.0000
  Hf  Hf94      1.0  0.84088  0.10866  0.66179  1.0000
  Hf  Hf95      1.0  0.84332  0.60922  0.16516  1.0000
  Hf  Hf96      1.0  0.84309  0.60306  0.67078  1.0000
  F   F1        1.0  0.08436  0.11903  0.30117  1.0000
  F   F2        1.0  0.07678  0.13779  0.79628  1.0000
  F   F3        1.0  0.07674  0.63150  0.30859  1.0000
  F   F4        1.0  0.08412  0.64227  0.80023  1.0000
  F   F5        1.0  0.33493  0.11731  0.30836  1.0000
  F   F6        1.0  0.33198  0.13512  0.79902  1.0000
  F   F7        1.0  0.32690  0.62236  0.30887  1.0000
  F   F8        1.0  0.32688  0.62680  0.80455  1.0000
  F   F9        1.0  0.57670  0.13080  0.30543  1.0000
  F   F10       1.0  0.58110  0.12709  0.80535  1.0000
  F   F11       1.0  0.57576  0.63328  0.30204  1.0000
  F   F12       1.0  0.57314  0.62549  0.80690  1.0000
  F   F13       1.0  0.82696  0.12837  0.30839  1.0000
  F   F14       1.0  0.82449  0.12639  0.80447  1.0000
  F   F15       1.0  0.83351  0.60948  0.30390  1.0000
  F   F16       1.0  0.82535  0.62227  0.81192  1.0000
  F   F17       1.0  0.18078  0.33694  0.45488  1.0000
  F   F18       1.0  0.18892  0.33553  0.93854  1.0000
  F   F19       1.0  0.18908  0.85609  0.43684  1.0000
  F   F20       1.0  0.18350  0.82911  0.94987  1.0000
  F   F21       1.0  0.43205  0.34357  0.44277  1.0000
  F   F22       1.0  0.43491  0.34109  0.94642  1.0000
  F   F23       1.0  0.43913  0.83960  0.43843  1.0000
  F   F24       1.0  0.43709  0.83686  0.94933  1.0000
  F   F25       1.0  0.69668  0.33835  0.43803  1.0000
  F   F26       1.0  0.67850  0.34061  0.95683  1.0000
  F   F27       1.0  0.66718  0.80745  0.47273  1.0000
  F   F28       1.0  0.68301  0.82992  0.95196  1.0000
  F   F29       1.0  0.94325  0.34409  0.43765  1.0000
  F   F30       1.0  0.93409  0.34176  0.95648  1.0000
  F   F31       1.0  0.93667  0.83845  0.44737  1.0000
  F   F32       1.0  0.93418  0.83697  0.95043  1.0000
  F   F33       1.0  0.17395  0.37040  0.19532  1.0000
  F   F34       1.0  0.17333  0.37933  0.69271  1.0000
  F   F35       1.0  0.16901  0.86179  0.20897  1.0000
  F   F36       1.0  0.17141  0.87754  0.68802  1.0000
  F   F37       1.0  0.42292  0.37386  0.19156  1.0000
  F   F38       1.0  0.41901  0.37744  0.68665  1.0000
  F   F39       1.0  0.42355  0.89138  0.18182  1.0000
  F   F40       1.0  0.42471  0.87669  0.68441  1.0000
  F   F41       1.0  0.67466  0.39127  0.18813  1.0000
  F   F42       1.0  0.67532  0.35670  0.69648  1.0000
  F   F43       1.0  0.67501  0.89152  0.18281  1.0000
  F   F44       1.0  0.66903  0.87014  0.70023  1.0000
  F   F45       1.0  0.92659  0.37336  0.18796  1.0000
  F   F46       1.0  0.91777  0.35538  0.71155  1.0000
  F   F47       1.0  0.92125  0.88751  0.19199  1.0000
  F   F48       1.0  0.91556  0.86545  0.70879  1.0000
  F   F49       1.0  0.06334  0.15502  0.06558  1.0000
  F   F50       1.0  0.07269  0.15340  0.54710  1.0000
  F   F51       1.0  0.06462  0.67347  0.04480  1.0000
  F   F52       1.0  0.05981  0.65141  0.56066  1.0000
  F   F53       1.0  0.31548  0.15915  0.05591  1.0000
  F   F54       1.0  0.31347  0.15416  0.54997  1.0000
  F   F55       1.0  0.30730  0.65744  0.05531  1.0000
  F   F56       1.0  0.31915  0.68683  0.53393  1.0000
  F   F57       1.0  0.57451  0.17225  0.04147  1.0000
  F   F58       1.0  0.57671  0.18253  0.53205  1.0000
  F   F59       1.0  0.56637  0.65326  0.04757  1.0000
  F   F60       1.0  0.56426  0.66430  0.55205  1.0000
  F   F61       1.0  0.81511  0.16547  0.04914  1.0000
  F   F62       1.0  0.82855  0.16905  0.53642  1.0000
  F   F63       1.0  0.81771  0.64957  0.05623  1.0000
  F   F64       1.0  0.81899  0.65448  0.55242  1.0000
  F   F65       1.0  0.21211  0.20997  0.19642  1.0000
  F   F66       1.0  0.20644  0.20413  0.70554  1.0000
  F   F67       1.0  0.19986  0.70342  0.21166  1.0000
  F   F68       1.0  0.20290  0.69318  0.70892  1.0000
  F   F69       1.0  0.45437  0.20013  0.21557  1.0000
  F   F70       1.0  0.44707  0.21348  0.71318  1.0000
  F   F71       1.0  0.45444  0.70704  0.20302  1.0000
  F   F72       1.0  0.44683  0.70005  0.71554  1.0000
  F   F73       1.0  0.70337  0.20827  0.21265  1.0000
  F   F74       1.0  0.70228  0.19064  0.71905  1.0000
  F   F75       1.0  0.69739  0.69737  0.20641  1.0000
  F   F76       1.0  0.70802  0.70221  0.71047  1.0000
  F   F77       1.0  0.96108  0.20253  0.20509  1.0000
  F   F78       1.0  0.95992  0.20771  0.70543  1.0000
  F   F79       1.0  0.95409  0.70156  0.19669  1.0000
  F   F80       1.0  0.95281  0.69920  0.71508  1.0000
  F   F81       1.0  0.14965  0.09183  0.03920  1.0000
  F   F82       1.0  0.14667  0.06976  0.53743  1.0000
  F   F83       1.0  0.14487  0.59543  0.03917  1.0000
  F   F84       1.0  0.14960  0.58355  0.53664  1.0000
  F   F85       1.0  0.40048  0.07827  0.04317  1.0000
  F   F86       1.0  0.40273  0.08652  0.53989  1.0000
  F   F87       1.0  0.40066  0.60044  0.02707  1.0000
  F   F88       1.0  0.39952  0.59843  0.53609  1.0000
  F   F89       1.0  0.65621  0.09137  0.02678  1.0000
  F   F90       1.0  0.65011  0.09059  0.53322  1.0000
  F   F91       1.0  0.65319  0.56720  0.03684  1.0000
  F   F92       1.0  0.64897  0.59721  0.53705  1.0000
  F   F93       1.0  0.89956  0.08911  0.03174  1.0000
  F   F94       1.0  0.90392  0.08212  0.53318  1.0000
  F   F95       1.0  0.90233  0.58787  0.04220  1.0000
  F   F96       1.0  0.90080  0.59123  0.53295  1.0000
  F   F97       1.0  0.15238  0.20643  0.13817  1.0000
  F   F98       1.0  0.14592  0.19759  0.62541  1.0000
  F   F99       1.0  0.14914  0.70006  0.11507  1.0000
  F   F100      1.0  0.15158  0.69428  0.61812  1.0000
  F   F101      1.0  0.40052  0.19359  0.12699  1.0000
  F   F102      1.0  0.40368  0.19902  0.61458  1.0000
  F   F103      1.0  0.40158  0.68254  0.13613  1.0000
  F   F104      1.0  0.40031  0.70302  0.62177  1.0000
  F   F105      1.0  0.65557  0.18665  0.12661  1.0000
  F   F106      1.0  0.65394  0.19497  0.61437  1.0000
  F   F107      1.0  0.64958  0.67806  0.11429  1.0000
  F   F108      1.0  0.65679  0.68365  0.63909  1.0000
  F   F109      1.0  0.89779  0.19929  0.11993  1.0000
  F   F110      1.0  0.90275  0.17757  0.63192  1.0000
  F   F111      1.0  0.89453  0.70753  0.12131  1.0000
  F   F112      1.0  0.90374  0.68123  0.63570  1.0000
  F   F113      1.0  0.10027  0.30567  0.38776  1.0000
  F   F114      1.0  0.10007  0.30447  0.86095  1.0000
  F   F115      1.0  0.09399  0.81385  0.39406  1.0000
  F   F116      1.0  0.09838  0.80475  0.86796  1.0000
  F   F117      1.0  0.34981  0.29941  0.37553  1.0000
  F   F118      1.0  0.34955  0.31567  0.86849  1.0000
  F   F119      1.0  0.34847  0.81112  0.35037  1.0000
  F   F120      1.0  0.35474  0.80637  0.86543  1.0000
  F   F121      1.0  0.60481  0.30200  0.35657  1.0000
  F   F122      1.0  0.60503  0.29481  0.86210  1.0000
  F   F123      1.0  0.60341  0.79992  0.36335  1.0000
  F   F124      1.0  0.59305  0.81704  0.87677  1.0000
  F   F125      1.0  0.85137  0.31161  0.35691  1.0000
  F   F126      1.0  0.84194  0.32433  0.88695  1.0000
  F   F127      1.0  0.84907  0.80634  0.37843  1.0000
  F   F128      1.0  0.83990  0.79086  0.89070  1.0000
  F   F129      1.0  0.06970  0.26062  0.13445  1.0000
  F   F130      1.0  0.05271  0.24670  0.65923  1.0000
  F   F131      1.0  0.06074  0.74963  0.15583  1.0000
  F   F132      1.0  0.06389  0.74504  0.63998  1.0000
  F   F133      1.0  0.30927  0.24479  0.15520  1.0000
  F   F134      1.0  0.31572  0.25161  0.63080  1.0000
  F   F135      1.0  0.32041  0.75772  0.12464  1.0000
  F   F136      1.0  0.31284  0.75253  0.64880  1.0000
  F   F137      1.0  0.56590  0.25481  0.13997  1.0000
  F   F138      1.0  0.56396  0.25353  0.64377  1.0000
  F   F139      1.0  0.56166  0.75091  0.14049  1.0000
  F   F140      1.0  0.57390  0.75686  0.63141  1.0000
  F   F141      1.0  0.81881  0.25073  0.14190  1.0000
  F   F142      1.0  0.80419  0.24625  0.64813  1.0000
  F   F143      1.0  0.81038  0.75167  0.14792  1.0000
  F   F144      1.0  0.82154  0.74754  0.64255  1.0000
  F   F145      1.0  0.12575  0.39046  0.09725  1.0000
  F   F146      1.0  0.12243  0.35397  0.63216  1.0000
  F   F147      1.0  0.12256  0.87779  0.10847  1.0000
  F   F148      1.0  0.12003  0.84093  0.63051  1.0000
  F   F149      1.0  0.37299  0.36968  0.11179  1.0000
  F   F150      1.0  0.37357  0.37655  0.59197  1.0000
  F   F151      1.0  0.37418  0.86052  0.11594  1.0000
  F   F152      1.0  0.37786  0.88647  0.59139  1.0000
  F   F153      1.0  0.62381  0.37654  0.10961  1.0000
  F   F154      1.0  0.62615  0.36413  0.61314  1.0000
  F   F155      1.0  0.62510  0.85038  0.12764  1.0000
  F   F156      1.0  0.62555  0.86866  0.61305  1.0000
  F   F157      1.0  0.87092  0.36323  0.12946  1.0000
  F   F158      1.0  0.87606  0.35227  0.60733  1.0000
  F   F159      1.0  0.87441  0.87196  0.11617  1.0000
  F   F160      1.0  0.87467  0.86886  0.61302  1.0000
  F   F161      1.0  0.19153  0.24970  0.34890  1.0000
  F   F162      1.0  0.18676  0.24002  0.86317  1.0000
  F   F163      1.0  0.18671  0.74203  0.36365  1.0000
  F   F164      1.0  0.18623  0.75446  0.84535  1.0000
  F   F165      1.0  0.44116  0.25774  0.34870  1.0000
  F   F166      1.0  0.43555  0.25306  0.85808  1.0000
  F   F167      1.0  0.43655  0.74769  0.34979  1.0000
  F   F168      1.0  0.43553  0.74780  0.86005  1.0000
  F   F169      1.0  0.68094  0.24859  0.36061  1.0000
  F   F170      1.0  0.69836  0.25108  0.84921  1.0000
  F   F171      1.0  0.69904  0.74847  0.33478  1.0000
  F   F172      1.0  0.67668  0.73999  0.86954  1.0000
  F   F173      1.0  0.94068  0.25019  0.35732  1.0000
  F   F174      1.0  0.93655  0.25248  0.86577  1.0000
  F   F175      1.0  0.93095  0.74871  0.35518  1.0000
  F   F176      1.0  0.93775  0.75332  0.85088  1.0000
  F   F177      1.0  0.13311  0.15149  0.37117  1.0000
  F   F178      1.0  0.12805  0.12979  0.89009  1.0000
  F   F179      1.0  0.12511  0.64300  0.38393  1.0000
  F   F180      1.0  0.12708  0.63085  0.89301  1.0000
  F   F181      1.0  0.38051  0.14034  0.39017  1.0000
  F   F182      1.0  0.37412  0.13786  0.89379  1.0000
  F   F183      1.0  0.37561  0.63112  0.38916  1.0000
  F   F184      1.0  0.37304  0.63131  0.89139  1.0000
  F   F185      1.0  0.62684  0.11287  0.38672  1.0000
  F   F186      1.0  0.62632  0.12699  0.89059  1.0000
  F   F187      1.0  0.62800  0.61515  0.39630  1.0000
  F   F188      1.0  0.62390  0.63102  0.87467  1.0000
  F   F189      1.0  0.87902  0.14856  0.36339  1.0000
  F   F190      1.0  0.87490  0.14767  0.87687  1.0000
  F   F191      1.0  0.87245  0.62616  0.39427  1.0000
  F   F192      1.0  0.87501  0.62459  0.88611  1.0000
  F   F193      1.0  0.01198  0.36707  0.06744  1.0000
  F   F194      1.0  0.00245  0.36731  0.56743  1.0000
  F   F195      1.0  0.00854  0.86270  0.07698  1.0000
  F   F196      1.0  0.00487  0.85683  0.58639  1.0000
  F   F197      1.0  0.26353  0.35784  0.06521  1.0000
  F   F198      1.0  0.25844  0.38029  0.55385  1.0000
  F   F199      1.0  0.25645  0.86582  0.07484  1.0000
  F   F200      1.0  0.26134  0.86428  0.58026  1.0000
  F   F201      1.0  0.50415  0.35906  0.07887  1.0000
  F   F202      1.0  0.50493  0.36798  0.57831  1.0000
  F   F203      1.0  0.50357  0.86682  0.07512  1.0000
  F   F204      1.0  0.51092  0.85963  0.57614  1.0000
  F   F205      1.0  0.75575  0.36162  0.08131  1.0000
  F   F206      1.0  0.76047  0.35269  0.56578  1.0000
  F   F207      1.0  0.75799  0.86883  0.07437  1.0000
  F   F208      1.0  0.75971  0.85970  0.58284  1.0000
  F   F209      1.0  0.06219  0.50005  0.17920  1.0000
  F   F210      1.0  0.06644  0.48720  0.67839  1.0000
  F   F211      1.0  0.07297  0.98591  0.18011  1.0000
  F   F212      1.0  0.06976  0.97626  0.67232  1.0000
  F   F213      1.0  0.31729  0.48852  0.17223  1.0000
  F   F214      1.0  0.31645  0.49433  0.68274  1.0000
  F   F215      1.0  0.32229  0.99043  0.16843  1.0000
  F   F216      1.0  0.32245  0.99194  0.67069  1.0000
  F   F217      1.0  0.57026  0.48447  0.16747  1.0000
  F   F218      1.0  0.56946  0.48551  0.68440  1.0000
  F   F219      1.0  0.57699  0.98497  0.16729  1.0000
  F   F220      1.0  0.56666  0.99231  0.67761  1.0000
  F   F221      1.0  0.81808  0.47910  0.18203  1.0000
  F   F222      1.0  0.82197  0.47998  0.67379  1.0000
  F   F223      1.0  0.81798  0.98509  0.18790  1.0000
  F   F224      1.0  0.80890  0.98012  0.69648  1.0000
  F   F225      1.0  0.24584  0.11930  0.43253  1.0000
  F   F226      1.0  0.24231  0.12765  0.93815  1.0000
  F   F227      1.0  0.24247  0.64241  0.43021  1.0000
  F   F228      1.0  0.24058  0.63582  0.92749  1.0000
  F   F229      1.0  0.49417  0.14016  0.41962  1.0000
  F   F230      1.0  0.49279  0.13952  0.92302  1.0000
  F   F231      1.0  0.48818  0.63651  0.43104  1.0000
  F   F232      1.0  0.49280  0.64407  0.94089  1.0000
  F   F233      1.0  0.73968  0.12250  0.43999  1.0000
  F   F234      1.0  0.74632  0.13316  0.93071  1.0000
  F   F235      1.0  0.74789  0.62481  0.42423  1.0000
  F   F236      1.0  0.74229  0.62825  0.92328  1.0000
  F   F237      1.0  0.99803  0.14133  0.41190  1.0000
  F   F238      1.0  0.99811  0.14298  0.91649  1.0000
  F   F239      1.0  0.98831  0.65190  0.42671  1.0000
  F   F240      1.0  0.99328  0.63051  0.93019  1.0000
  F   F241      1.0  0.18251  0.01909  0.32610  1.0000
  F   F242      1.0  0.18195  0.00992  0.81889  1.0000
  F   F243      1.0  0.17822  0.51135  0.32957  1.0000
  F   F244      1.0  0.18136  0.50744  0.83229  1.0000
  F   F245      1.0  0.43155  0.01265  0.33088  1.0000
  F   F246      1.0  0.43102  0.01748  0.82271  1.0000
  F   F247      1.0  0.42927  0.52042  0.32141  1.0000
  F   F248      1.0  0.43135  0.51567  0.82641  1.0000
  F   F249      1.0  0.68697  0.00210  0.32036  1.0000
  F   F250      1.0  0.68022  0.00653  0.83450  1.0000
  F   F251      1.0  0.67686  0.50955  0.32770  1.0000
  F   F252      1.0  0.68169  0.51006  0.82589  1.0000
  F   F253      1.0  0.93389  0.01409  0.32741  1.0000
  F   F254      1.0  0.92363  0.01390  0.84602  1.0000
  F   F255      1.0  0.92653  0.51421  0.32494  1.0000
  F   F256      1.0  0.93261  0.51258  0.83565  1.0000
  F   F257      1.0  0.99803  0.23304  0.01283  1.0000
  F   F258      1.0  0.99689  0.23107  0.50885  1.0000
  F   F259      1.0  0.00131  0.76661  0.99128  1.0000
  F   F260      1.0  0.00809  0.77954  0.47497  1.0000
  F   F261      1.0  0.25505  0.25408  0.99183  1.0000
  F   F262      1.0  0.24791  0.24439  0.50196  1.0000
  F   F263      1.0  0.25253  0.77146  0.99007  1.0000
  F   F264      1.0  0.24882  0.75693  0.49110  1.0000
  F   F265      1.0  0.50640  0.25242  0.98858  1.0000
  F   F266      1.0  0.50140  0.25502  0.50249  1.0000
  F   F267      1.0  0.50741  0.75189  0.00236  1.0000
  F   F268      1.0  0.49978  0.75059  0.50649  1.0000
  F   F269      1.0  0.74896  0.26759  0.99411  1.0000
  F   F270      1.0  0.74962  0.23447  0.51529  1.0000
  F   F271      1.0  0.74780  0.74057  0.01240  1.0000
  F   F272      1.0  0.75285  0.75317  0.49112  1.0000
  F   F273      1.0  0.13328  0.00708  0.23718  1.0000
  F   F274      1.0  0.12255  0.99965  0.75204  1.0000
  F   F275      1.0  0.12246  0.49424  0.25129  1.0000
  F   F276      1.0  0.12350  0.50244  0.75259  1.0000
  F   F277      1.0  0.37457  0.00584  0.25361  1.0000
  F   F278      1.0  0.37841  0.00076  0.74701  1.0000
  F   F279      1.0  0.37531  0.49651  0.23281  1.0000
  F   F280      1.0  0.37346  0.49814  0.75363  1.0000
  F   F281      1.0  0.62782  0.00278  0.24876  1.0000
  F   F282      1.0  0.62725  0.00783  0.74841  1.0000
  F   F283      1.0  0.60906  0.48624  0.27875  1.0000
  F   F284      1.0  0.63448  0.49886  0.73111  1.0000
  F   F285      1.0  0.87477  0.00524  0.25642  1.0000
  F   F286      1.0  0.87298  0.99467  0.75229  1.0000
  F   F287      1.0  0.87702  0.49258  0.24199  1.0000
  F   F288      1.0  0.87485  0.49777  0.75661  1.0000
  F   F289      1.0  0.04729  0.02715  0.01645  1.0000
  F   F290      1.0  0.04234  0.02523  0.53091  1.0000
  F   F291      1.0  0.05190  0.54175  0.00926  1.0000
  F   F292      1.0  0.04182  0.52698  0.52027  1.0000
  F   F293      1.0  0.29787  0.03372  0.02010  1.0000
  F   F294      1.0  0.30254  0.02282  0.50916  1.0000
  F   F295      1.0  0.29818  0.52558  0.01582  1.0000
  F   F296      1.0  0.29333  0.54657  0.52451  1.0000
  F   F297      1.0  0.53535  0.04207  0.04131  1.0000
  F   F298      1.0  0.54347  0.04496  0.53501  1.0000
  F   F299      1.0  0.54559  0.52841  0.02408  1.0000
  F   F300      1.0  0.53755  0.53417  0.53083  1.0000
  F   F301      1.0  0.79454  0.03559  0.03452  1.0000
  F   F302      1.0  0.79744  0.03526  0.52602  1.0000
  F   F303      1.0  0.78496  0.53100  0.02989  1.0000
  F   F304      1.0  0.79119  0.52274  0.53448  1.0000
  F   F305      1.0  0.23562  0.40105  0.24000  1.0000
  F   F306      1.0  0.23470  0.42391  0.72330  1.0000
  F   F307      1.0  0.23018  0.93984  0.21503  1.0000
  F   F308      1.0  0.23600  0.91316  0.72967  1.0000
  F   F309      1.0  0.48428  0.42122  0.22508  1.0000
  F   F310      1.0  0.48409  0.41427  0.72460  1.0000
  F   F311      1.0  0.48591  0.92804  0.22361  1.0000
  F   F312      1.0  0.48688  0.91168  0.71942  1.0000
  F   F313      1.0  0.73420  0.42350  0.23033  1.0000
  F   F314      1.0  0.73882  0.39935  0.74254  1.0000
  F   F315      1.0  0.73791  0.91138  0.22678  1.0000
  F   F316      1.0  0.73095  0.90357  0.73705  1.0000
  F   F317      1.0  0.98768  0.41427  0.22100  1.0000
  F   F318      1.0  0.98320  0.42176  0.72128  1.0000
  F   F319      1.0  0.98520  0.91613  0.23429  1.0000
  F   F320      1.0  0.98027  0.93012  0.72387  1.0000
  F   F321      1.0  0.20571  0.47400  0.46876  1.0000
  F   F322      1.0  0.20855  0.46962  0.98217  1.0000
  F   F323      1.0  0.21438  0.95621  0.48641  1.0000
  F   F324      1.0  0.20374  0.97078  0.97956  1.0000
  F   F325      1.0  0.45724  0.47126  0.47146  1.0000
  F   F326      1.0  0.45814  0.46731  0.97499  1.0000
  F   F327      1.0  0.46200  0.96967  0.47528  1.0000
  F   F328      1.0  0.45850  0.97204  0.97115  1.0000
  F   F329      1.0  0.70934  0.47282  0.47312  1.0000
  F   F330      1.0  0.71558  0.45995  0.96553  1.0000
  F   F331      1.0  0.71244  0.95210  0.48113  1.0000
  F   F332      1.0  0.71239  0.96979  0.96588  1.0000
  F   F333      1.0  0.94758  0.46984  0.48399  1.0000
  F   F334      1.0  0.95542  0.46104  0.98903  1.0000
  F   F335      1.0  0.95538  0.95914  0.48112  1.0000
  F   F336      1.0  0.95990  0.96612  0.97761  1.0000
  F   F337      1.0  0.01649  0.08144  0.27571  1.0000
  F   F338      1.0  0.01551  0.06950  0.77611  1.0000
  F   F339      1.0  0.01318  0.59372  0.27960  1.0000
  F   F340      1.0  0.01582  0.58349  0.78214  1.0000
  F   F341      1.0  0.26683  0.08267  0.27468  1.0000
  F   F342      1.0  0.26573  0.07734  0.77455  1.0000
  F   F343      1.0  0.26115  0.59407  0.26679  1.0000
  F   F344      1.0  0.26188  0.59428  0.76517  1.0000
  F   F345      1.0  0.51733  0.08323  0.26143  1.0000
  F   F346      1.0  0.51337  0.09766  0.76320  1.0000
  F   F347      1.0  0.51118  0.58667  0.26734  1.0000
  F   F348      1.0  0.51447  0.58768  0.76991  1.0000
  F   F349      1.0  0.76529  0.10531  0.26567  1.0000
  F   F350      1.0  0.76401  0.08215  0.77372  1.0000
  F   F351      1.0  0.76090  0.59818  0.27068  1.0000
  F   F352      1.0  0.76806  0.58277  0.76802  1.0000
  F   F353      1.0  0.10501  0.40868  0.46651  1.0000
  F   F354      1.0  0.10351  0.40502  0.95295  1.0000
  F   F355      1.0  0.10508  0.92397  0.46518  1.0000
  F   F356      1.0  0.10097  0.89785  0.96479  1.0000
  F   F357      1.0  0.34848  0.42228  0.45809  1.0000
  F   F358      1.0  0.35450  0.40865  0.96064  1.0000
  F   F359      1.0  0.35040  0.88375  0.45430  1.0000
  F   F360      1.0  0.35156  0.91425  0.95846  1.0000
  F   F361      1.0  0.60506  0.39836  0.46573  1.0000
  F   F362      1.0  0.60024  0.40875  0.94757  1.0000
  F   F363      1.0  0.60087  0.90449  0.45922  1.0000
  F   F364      1.0  0.59678  0.91644  0.96646  1.0000
  F   F365      1.0  0.85308  0.39461  0.46164  1.0000
  F   F366      1.0  0.85247  0.41667  0.96612  1.0000
  F   F367      1.0  0.85067  0.90996  0.47042  1.0000
  F   F368      1.0  0.84689  0.89882  0.97139  1.0000
  F   F369      1.0  0.04696  0.30280  0.30117  1.0000
  F   F370      1.0  0.03918  0.30408  0.79462  1.0000
  F   F371      1.0  0.05370  0.79870  0.28862  1.0000
  F   F372      1.0  0.02831  0.79438  0.79566  1.0000
  F   F373      1.0  0.29436  0.29537  0.30187  1.0000
  F   F374      1.0  0.29628  0.30555  0.77914  1.0000
  F   F375      1.0  0.29333  0.79562  0.27831  1.0000
  F   F376      1.0  0.29984  0.79634  0.79202  1.0000
  F   F377      1.0  0.54372  0.29114  0.29449  1.0000
  F   F378      1.0  0.54711  0.29629  0.78336  1.0000
  F   F379      1.0  0.54309  0.79950  0.29015  1.0000
  F   F380      1.0  0.55194  0.79675  0.78095  1.0000
  F   F381      1.0  0.79040  0.30390  0.29551  1.0000
  F   F382      1.0  0.80367  0.29900  0.78265  1.0000
  F   F383      1.0  0.80098  0.78937  0.28738  1.0000
  F   F384      1.0  0.79472  0.79502  0.79375  1.0000
