data_image0
_chemical_formula_structural       Hf96F384
_chemical_formula_sum              "Hf96 F384"
_cell_length_a       31.0272
_cell_length_b       15.5113
_cell_length_c       15.507
_cell_angle_alpha    63.342
_cell_angle_beta     63.342
_cell_angle_gamma    80.1625

_space_group_name_H-M_alt    "P 1"
_space_group_IT_number       1

loop_
  _space_group_symop_operation_xyz
  'x, y, z'

loop_
  _atom_site_type_symbol
  _atom_site_label
  _atom_site_symmetry_multiplicity
  _atom_site_fract_x
  _atom_site_fract_y
  _atom_site_fract_z
  _atom_site_occupancy
  Hf  Hf1       1.0  0.19705  0.11341  0.37169  1.0000
  Hf  Hf2       1.0  0.19738  0.11645  0.86739  1.0000
  Hf  Hf3       1.0  0.19595  0.60664  0.37515  1.0000
  Hf  Hf4       1.0  0.19657  0.61286  0.86590  1.0000
  Hf  Hf5       1.0  0.44766  0.11520  0.37345  1.0000
  Hf  Hf6       1.0  0.44754  0.10360  0.87383  1.0000
  Hf  Hf7       1.0  0.44309  0.61353  0.38332  1.0000
  Hf  Hf8       1.0  0.44456  0.60550  0.88023  1.0000
  Hf  Hf9       1.0  0.69890  0.09856  0.37865  1.0000
  Hf  Hf10      1.0  0.69619  0.10737  0.87335  1.0000
  Hf  Hf11      1.0  0.69891  0.59709  0.37669  1.0000
  Hf  Hf12      1.0  0.69399  0.60621  0.88248  1.0000
  Hf  Hf13      1.0  0.94436  0.10435  0.38802  1.0000
  Hf  Hf14      1.0  0.94525  0.10914  0.86786  1.0000
  Hf  Hf15      1.0  0.94742  0.61439  0.37130  1.0000
  Hf  Hf16      1.0  0.94615  0.61313  0.86731  1.0000
  Hf  Hf17      1.0  0.05608  0.39562  0.11393  1.0000
  Hf  Hf18      1.0  0.05448  0.39677  0.61624  1.0000
  Hf  Hf19      1.0  0.05289  0.89562  0.12582  1.0000
  Hf  Hf20      1.0  0.05483  0.89653  0.61889  1.0000
  Hf  Hf21      1.0  0.30421  0.39590  0.12459  1.0000
  Hf  Hf22      1.0  0.30313  0.39093  0.62377  1.0000
  Hf  Hf23      1.0  0.30154  0.89227  0.12415  1.0000
  Hf  Hf24      1.0  0.30610  0.88993  0.62642  1.0000
  Hf  Hf25      1.0  0.55597  0.38860  0.12715  1.0000
  Hf  Hf26      1.0  0.55441  0.38533  0.63120  1.0000
  Hf  Hf27      1.0  0.55587  0.88632  0.13068  1.0000
  Hf  Hf28      1.0  0.55704  0.88994  0.62350  1.0000
  Hf  Hf29      1.0  0.80104  0.38718  0.12704  1.0000
  Hf  Hf30      1.0  0.80351  0.40074  0.61464  1.0000
  Hf  Hf31      1.0  0.80141  0.89164  0.12686  1.0000
  Hf  Hf32      1.0  0.79687  0.88307  0.64944  1.0000
  Hf  Hf33      1.0  0.05593  0.18344  0.41242  1.0000
  Hf  Hf34      1.0  0.05135  0.18525  0.92077  1.0000
  Hf  Hf35      1.0  0.05810  0.68535  0.41353  1.0000
  Hf  Hf36      1.0  0.05597  0.68502  0.90965  1.0000
  Hf  Hf37      1.0  0.30720  0.18652  0.41212  1.0000
  Hf  Hf38      1.0  0.30648  0.18340  0.91513  1.0000
  Hf  Hf39      1.0  0.30550  0.68874  0.41682  1.0000
  Hf  Hf40      1.0  0.30551  0.68423  0.92450  1.0000
  Hf  Hf41      1.0  0.55610  0.18364  0.41265  1.0000
  Hf  Hf42      1.0  0.55676  0.17656  0.91756  1.0000
  Hf  Hf43      1.0  0.55424  0.66552  0.42737  1.0000
  Hf  Hf44      1.0  0.55490  0.68196  0.92665  1.0000
  Hf  Hf45      1.0  0.81063  0.18222  0.41437  1.0000
  Hf  Hf46      1.0  0.80559  0.18735  0.91545  1.0000
  Hf  Hf47      1.0  0.80811  0.69071  0.40928  1.0000
  Hf  Hf48      1.0  0.80334  0.67649  0.92271  1.0000
  Hf  Hf49      1.0  0.15736  0.39028  0.32807  1.0000
  Hf  Hf50      1.0  0.16070  0.39350  0.83099  1.0000
  Hf  Hf51      1.0  0.15921  0.89251  0.33396  1.0000
  Hf  Hf52      1.0  0.15587  0.89013  0.83535  1.0000
  Hf  Hf53      1.0  0.40876  0.38721  0.34418  1.0000
  Hf  Hf54      1.0  0.40556  0.38620  0.83823  1.0000
  Hf  Hf55      1.0  0.40955  0.89302  0.32654  1.0000
  Hf  Hf56      1.0  0.40911  0.89140  0.83141  1.0000
  Hf  Hf57      1.0  0.66087  0.38311  0.32898  1.0000
  Hf  Hf58      1.0  0.65976  0.38674  0.83191  1.0000
  Hf  Hf59      1.0  0.66044  0.87231  0.34031  1.0000
  Hf  Hf60      1.0  0.65544  0.89161  0.83992  1.0000
  Hf  Hf61      1.0  0.91392  0.39352  0.32642  1.0000
  Hf  Hf62      1.0  0.91002  0.38774  0.83203  1.0000
  Hf  Hf63      1.0  0.91218  0.90403  0.32101  1.0000
  Hf  Hf64      1.0  0.91095  0.88515  0.83144  1.0000
  Hf  Hf65      1.0  0.19607  0.31001  0.08454  1.0000
  Hf  Hf66      1.0  0.19118  0.32026  0.58655  1.0000
  Hf  Hf67      1.0  0.19031  0.81982  0.08724  1.0000
  Hf  Hf68      1.0  0.19423  0.82315  0.58038  1.0000
  Hf  Hf69      1.0  0.44567  0.31168  0.08705  1.0000
  Hf  Hf70      1.0  0.44193  0.31316  0.59286  1.0000
  Hf  Hf71      1.0  0.44327  0.81541  0.08579  1.0000
  Hf  Hf72      1.0  0.44702  0.82302  0.57777  1.0000
  Hf  Hf73      1.0  0.69487  0.31111  0.08408  1.0000
  Hf  Hf74      1.0  0.69037  0.30754  0.59058  1.0000
  Hf  Hf75      1.0  0.69139  0.81830  0.08698  1.0000
  Hf  Hf76      1.0  0.69403  0.81849  0.58241  1.0000
  Hf  Hf77      1.0  0.94453  0.31360  0.08184  1.0000
  Hf  Hf78      1.0  0.94211  0.32114  0.58164  1.0000
  Hf  Hf79      1.0  0.94186  0.81614  0.08616  1.0000
  Hf  Hf80      1.0  0.94418  0.82252  0.57586  1.0000
  Hf  Hf81      1.0  0.09200  0.11894  0.16140  1.0000
  Hf  Hf82      1.0  0.09341  0.11965  0.65895  1.0000
  Hf  Hf83      1.0  0.09414  0.61540  0.15972  1.0000
  Hf  Hf84      1.0  0.09540  0.61918  0.65925  1.0000
  Hf  Hf85      1.0  0.34211  0.12111  0.15600  1.0000
  Hf  Hf86      1.0  0.34337  0.11249  0.65783  1.0000
  Hf  Hf87      1.0  0.33980  0.61092  0.17565  1.0000
  Hf  Hf88      1.0  0.33744  0.61403  0.67414  1.0000
  Hf  Hf89      1.0  0.59135  0.10114  0.17511  1.0000
  Hf  Hf90      1.0  0.59124  0.10576  0.66300  1.0000
  Hf  Hf91      1.0  0.58908  0.60829  0.16972  1.0000
  Hf  Hf92      1.0  0.58750  0.60972  0.67796  1.0000
  Hf  Hf93      1.0  0.83939  0.11114  0.16718  1.0000
  Hf  Hf94      1.0  0.83945  0.10739  0.67153  1.0000
  Hf  Hf95      1.0  0.84099  0.61040  0.16197  1.0000
  Hf  Hf96      1.0  0.84283  0.61190  0.66160  1.0000
  F   F1        1.0  0.08796  0.14908  0.28601  1.0000
  F   F2        1.0  0.07463  0.12023  0.80823  1.0000
  F   F3        1.0  0.08221  0.63665  0.30148  1.0000
  F   F4        1.0  0.08061  0.62606  0.79798  1.0000
  F   F5        1.0  0.32316  0.13128  0.29632  1.0000
  F   F6        1.0  0.32811  0.12971  0.80470  1.0000
  F   F7        1.0  0.33405  0.63049  0.29834  1.0000
  F   F8        1.0  0.32566  0.62840  0.80670  1.0000
  F   F9        1.0  0.57785  0.11696  0.30688  1.0000
  F   F10       1.0  0.58170  0.12018  0.80362  1.0000
  F   F11       1.0  0.56997  0.60193  0.32101  1.0000
  F   F12       1.0  0.58070  0.63440  0.80837  1.0000
  F   F13       1.0  0.83054  0.12766  0.30310  1.0000
  F   F14       1.0  0.83058  0.12683  0.80107  1.0000
  F   F15       1.0  0.82843  0.62696  0.29718  1.0000
  F   F16       1.0  0.82876  0.62929  0.79930  1.0000
  F   F17       1.0  0.17757  0.33424  0.45339  1.0000
  F   F18       1.0  0.18098  0.33402  0.94887  1.0000
  F   F19       1.0  0.18684  0.83947  0.44082  1.0000
  F   F20       1.0  0.18501  0.85510  0.94163  1.0000
  F   F21       1.0  0.43713  0.34483  0.45344  1.0000
  F   F22       1.0  0.43648  0.33303  0.95365  1.0000
  F   F23       1.0  0.43065  0.82015  0.45392  1.0000
  F   F24       1.0  0.44524  0.83376  0.93895  1.0000
  F   F25       1.0  0.69103  0.34360  0.43487  1.0000
  F   F26       1.0  0.67884  0.32817  0.95632  1.0000
  F   F27       1.0  0.69076  0.83401  0.44663  1.0000
  F   F28       1.0  0.67682  0.82797  0.96437  1.0000
  F   F29       1.0  0.93102  0.32965  0.44801  1.0000
  F   F30       1.0  0.93432  0.33865  0.94753  1.0000
  F   F31       1.0  0.93979  0.85343  0.43184  1.0000
  F   F32       1.0  0.93191  0.83041  0.94913  1.0000
  F   F33       1.0  0.17035  0.37602  0.19621  1.0000
  F   F34       1.0  0.16995  0.37074  0.69616  1.0000
  F   F35       1.0  0.16686  0.86867  0.19697  1.0000
  F   F36       1.0  0.17301  0.87397  0.69377  1.0000
  F   F37       1.0  0.42332  0.36429  0.21128  1.0000
  F   F38       1.0  0.42561  0.38742  0.68057  1.0000
  F   F39       1.0  0.42494  0.89236  0.18440  1.0000
  F   F40       1.0  0.42482  0.86885  0.69497  1.0000
  F   F41       1.0  0.67696  0.34962  0.19728  1.0000
  F   F42       1.0  0.66536  0.37106  0.69969  1.0000
  F   F43       1.0  0.66071  0.85477  0.21465  1.0000
  F   F44       1.0  0.66812  0.86100  0.70412  1.0000
  F   F45       1.0  0.92400  0.36942  0.19948  1.0000
  F   F46       1.0  0.92037  0.38036  0.69237  1.0000
  F   F47       1.0  0.91988  0.87645  0.18881  1.0000
  F   F48       1.0  0.92252  0.87660  0.69373  1.0000
  F   F49       1.0  0.05290  0.16070  0.05899  1.0000
  F   F50       1.0  0.06186  0.16212  0.54949  1.0000
  F   F51       1.0  0.06057  0.66213  0.05071  1.0000
  F   F52       1.0  0.06065  0.67245  0.55033  1.0000
  F   F53       1.0  0.31396  0.16247  0.04477  1.0000
  F   F54       1.0  0.30324  0.14720  0.57214  1.0000
  F   F55       1.0  0.31641  0.65854  0.05835  1.0000
  F   F56       1.0  0.30817  0.65178  0.56443  1.0000
  F   F57       1.0  0.56440  0.15142  0.05858  1.0000
  F   F58       1.0  0.56823  0.14925  0.54754  1.0000
  F   F59       1.0  0.55860  0.65965  0.06641  1.0000
  F   F60       1.0  0.55859  0.64630  0.56830  1.0000
  F   F61       1.0  0.81142  0.15032  0.05794  1.0000
  F   F62       1.0  0.81776  0.16045  0.54889  1.0000
  F   F63       1.0  0.80756  0.65425  0.05771  1.0000
  F   F64       1.0  0.82264  0.67558  0.54420  1.0000
  F   F65       1.0  0.21061  0.20163  0.20544  1.0000
  F   F66       1.0  0.21110  0.20701  0.70468  1.0000
  F   F67       1.0  0.20731  0.69705  0.20901  1.0000
  F   F68       1.0  0.20227  0.69338  0.72083  1.0000
  F   F69       1.0  0.44952  0.19785  0.21284  1.0000
  F   F70       1.0  0.44843  0.20316  0.71806  1.0000
  F   F71       1.0  0.44401  0.70240  0.21249  1.0000
  F   F72       1.0  0.46034  0.68998  0.71585  1.0000
  F   F73       1.0  0.71346  0.19761  0.21010  1.0000
  F   F74       1.0  0.69508  0.18745  0.70842  1.0000
  F   F75       1.0  0.70220  0.70594  0.22418  1.0000
  F   F76       1.0  0.70500  0.70306  0.71762  1.0000
  F   F77       1.0  0.96081  0.20274  0.18888  1.0000
  F   F78       1.0  0.95052  0.20071  0.69711  1.0000
  F   F79       1.0  0.95887  0.69918  0.21213  1.0000
  F   F80       1.0  0.94500  0.70587  0.71144  1.0000
  F   F81       1.0  0.14249  0.09772  0.03734  1.0000
  F   F82       1.0  0.15610  0.11873  0.53477  1.0000
  F   F83       1.0  0.15014  0.59494  0.03252  1.0000
  F   F84       1.0  0.15582  0.57838  0.53392  1.0000
  F   F85       1.0  0.40443  0.10258  0.02893  1.0000
  F   F86       1.0  0.40101  0.09125  0.54433  1.0000
  F   F87       1.0  0.39349  0.56870  0.04904  1.0000
  F   F88       1.0  0.39484  0.60431  0.53995  1.0000
  F   F89       1.0  0.64715  0.08063  0.03698  1.0000
  F   F90       1.0  0.64907  0.07837  0.53734  1.0000
  F   F91       1.0  0.64806  0.59326  0.04595  1.0000
  F   F92       1.0  0.64721  0.59703  0.56540  1.0000
  F   F93       1.0  0.89653  0.08541  0.03265  1.0000
  F   F94       1.0  0.89886  0.08414  0.54420  1.0000
  F   F95       1.0  0.89934  0.62041  0.02864  1.0000
  F   F96       1.0  0.90261  0.60000  0.53461  1.0000
  F   F97       1.0  0.16178  0.19487  0.11806  1.0000
  F   F98       1.0  0.14587  0.20456  0.64643  1.0000
  F   F99       1.0  0.15037  0.70305  0.11550  1.0000
  F   F100      1.0  0.15278  0.70004  0.61192  1.0000
  F   F101      1.0  0.40116  0.19253  0.13004  1.0000
  F   F102      1.0  0.40469  0.19898  0.62083  1.0000
  F   F103      1.0  0.39956  0.69505  0.12261  1.0000
  F   F104      1.0  0.40002  0.69610  0.63855  1.0000
  F   F105      1.0  0.65537  0.17990  0.13599  1.0000
  F   F106      1.0  0.64662  0.20349  0.60755  1.0000
  F   F107      1.0  0.65224  0.69045  0.14666  1.0000
  F   F108      1.0  0.65326  0.70650  0.63427  1.0000
  F   F109      1.0  0.89663  0.20259  0.11303  1.0000
  F   F110      1.0  0.89818  0.19603  0.62272  1.0000
  F   F111      1.0  0.90296  0.68954  0.13260  1.0000
  F   F112      1.0  0.90480  0.70292  0.61563  1.0000
  F   F113      1.0  0.09576  0.29635  0.37561  1.0000
  F   F114      1.0  0.09940  0.30776  0.88324  1.0000
  F   F115      1.0  0.09547  0.80978  0.37067  1.0000
  F   F116      1.0  0.10275  0.79993  0.87761  1.0000
  F   F117      1.0  0.34640  0.29634  0.39532  1.0000
  F   F118      1.0  0.35604  0.30131  0.85775  1.0000
  F   F119      1.0  0.35136  0.80854  0.36665  1.0000
  F   F120      1.0  0.35017  0.80649  0.87296  1.0000
  F   F121      1.0  0.60017  0.31181  0.35601  1.0000
  F   F122      1.0  0.60074  0.28722  0.88778  1.0000
  F   F123      1.0  0.58815  0.78785  0.38694  1.0000
  F   F124      1.0  0.59804  0.80713  0.89263  1.0000
  F   F125      1.0  0.85458  0.29558  0.37727  1.0000
  F   F126      1.0  0.85175  0.29250  0.88022  1.0000
  F   F127      1.0  0.84727  0.80961  0.35591  1.0000
  F   F128      1.0  0.85210  0.78794  0.88152  1.0000
  F   F129      1.0  0.07758  0.25522  0.11425  1.0000
  F   F130      1.0  0.07680  0.26594  0.61981  1.0000
  F   F131      1.0  0.06859  0.75351  0.13625  1.0000
  F   F132      1.0  0.06593  0.75682  0.63999  1.0000
  F   F133      1.0  0.31266  0.25458  0.14789  1.0000
  F   F134      1.0  0.32361  0.25013  0.62896  1.0000
  F   F135      1.0  0.32273  0.75969  0.12805  1.0000
  F   F136      1.0  0.31193  0.75392  0.64265  1.0000
  F   F137      1.0  0.56394  0.24075  0.15645  1.0000
  F   F138      1.0  0.56447  0.23935  0.64231  1.0000
  F   F139      1.0  0.57512  0.74820  0.12798  1.0000
  F   F140      1.0  0.56394  0.74959  0.64450  1.0000
  F   F141      1.0  0.80223  0.24240  0.16004  1.0000
  F   F142      1.0  0.81247  0.25498  0.64230  1.0000
  F   F143      1.0  0.82083  0.74834  0.12245  1.0000
  F   F144      1.0  0.81552  0.75085  0.65178  1.0000
  F   F145      1.0  0.12650  0.35468  0.10863  1.0000
  F   F146      1.0  0.12282  0.38528  0.61523  1.0000
  F   F147      1.0  0.11921  0.87504  0.10774  1.0000
  F   F148      1.0  0.12820  0.86695  0.60792  1.0000
  F   F149      1.0  0.37678  0.36557  0.11650  1.0000
  F   F150      1.0  0.37636  0.37382  0.61179  1.0000
  F   F151      1.0  0.37667  0.87567  0.10786  1.0000
  F   F152      1.0  0.37727  0.86968  0.60588  1.0000
  F   F153      1.0  0.62533  0.36737  0.11540  1.0000
  F   F154      1.0  0.62645  0.36904  0.59957  1.0000
  F   F155      1.0  0.62310  0.87175  0.11385  1.0000
  F   F156      1.0  0.62765  0.89086  0.58813  1.0000
  F   F157      1.0  0.87152  0.36803  0.11078  1.0000
  F   F158      1.0  0.86940  0.37271  0.61481  1.0000
  F   F159      1.0  0.87184  0.86895  0.10077  1.0000
  F   F160      1.0  0.87533  0.88536  0.59230  1.0000
  F   F161      1.0  0.18544  0.25644  0.35150  1.0000
  F   F162      1.0  0.18748  0.24967  0.85164  1.0000
  F   F163      1.0  0.18817  0.75240  0.35073  1.0000
  F   F164      1.0  0.18329  0.74582  0.86171  1.0000
  F   F165      1.0  0.44087  0.25204  0.35673  1.0000
  F   F166      1.0  0.44045  0.25558  0.85292  1.0000
  F   F167      1.0  0.43935  0.75618  0.33752  1.0000
  F   F168      1.0  0.43017  0.74149  0.86306  1.0000
  F   F169      1.0  0.68079  0.24100  0.37118  1.0000
  F   F170      1.0  0.68841  0.24658  0.83753  1.0000
  F   F171      1.0  0.66905  0.72587  0.39406  1.0000
  F   F172      1.0  0.68942  0.74890  0.86516  1.0000
  F   F173      1.0  0.94636  0.25084  0.33755  1.0000
  F   F174      1.0  0.94470  0.25133  0.83707  1.0000
  F   F175      1.0  0.94073  0.76267  0.34479  1.0000
  F   F176      1.0  0.93506  0.75165  0.84849  1.0000
  F   F177      1.0  0.12379  0.11868  0.40493  1.0000
  F   F178      1.0  0.12474  0.13464  0.89133  1.0000
  F   F179      1.0  0.12963  0.64079  0.39186  1.0000
  F   F180      1.0  0.12580  0.62579  0.88898  1.0000
  F   F181      1.0  0.37736  0.14560  0.38578  1.0000
  F   F182      1.0  0.37526  0.11376  0.89858  1.0000
  F   F183      1.0  0.37284  0.64082  0.40217  1.0000
  F   F184      1.0  0.37506  0.62504  0.88793  1.0000
  F   F185      1.0  0.62768  0.11816  0.37974  1.0000
  F   F186      1.0  0.62689  0.12559  0.88967  1.0000
  F   F187      1.0  0.62436  0.61009  0.41328  1.0000
  F   F188      1.0  0.62294  0.62679  0.90338  1.0000
  F   F189      1.0  0.87904  0.12359  0.38794  1.0000
  F   F190      1.0  0.87483  0.11375  0.89110  1.0000
  F   F191      1.0  0.87826  0.63892  0.38070  1.0000
  F   F192      1.0  0.87790  0.62182  0.89463  1.0000
  F   F193      1.0  0.01143  0.36136  0.06689  1.0000
  F   F194      1.0  0.00116  0.35840  0.59512  1.0000
  F   F195      1.0  0.00986  0.85845  0.06167  1.0000
  F   F196      1.0  0.00579  0.85920  0.58207  1.0000
  F   F197      1.0  0.25407  0.36728  0.07708  1.0000
  F   F198      1.0  0.25507  0.36511  0.56970  1.0000
  F   F199      1.0  0.25228  0.86100  0.07717  1.0000
  F   F200      1.0  0.25755  0.86102  0.58301  1.0000
  F   F201      1.0  0.50869  0.34476  0.09505  1.0000
  F   F202      1.0  0.50942  0.34831  0.57807  1.0000
  F   F203      1.0  0.50663  0.84906  0.09325  1.0000
  F   F204      1.0  0.50802  0.85432  0.58132  1.0000
  F   F205      1.0  0.75843  0.36326  0.06206  1.0000
  F   F206      1.0  0.75319  0.36316  0.57624  1.0000
  F   F207      1.0  0.75321  0.86432  0.08061  1.0000
  F   F208      1.0  0.75277  0.85428  0.59695  1.0000
  F   F209      1.0  0.07257  0.49007  0.16102  1.0000
  F   F210      1.0  0.06767  0.49035  0.67513  1.0000
  F   F211      1.0  0.06370  0.98734  0.18879  1.0000
  F   F212      1.0  0.07729  0.00044  0.64545  1.0000
  F   F213      1.0  0.31457  0.48024  0.18558  1.0000
  F   F214      1.0  0.32064  0.48402  0.67249  1.0000
  F   F215      1.0  0.31718  0.99215  0.16973  1.0000
  F   F216      1.0  0.31622  0.98058  0.67883  1.0000
  F   F217      1.0  0.57400  0.48590  0.16656  1.0000
  F   F218      1.0  0.56749  0.47796  0.69075  1.0000
  F   F219      1.0  0.56955  0.98206  0.18980  1.0000
  F   F220      1.0  0.56753  0.98442  0.67634  1.0000
  F   F221      1.0  0.82210  0.47876  0.17300  1.0000
  F   F222      1.0  0.81889  0.47993  0.69215  1.0000
  F   F223      1.0  0.81315  0.97478  0.18982  1.0000
  F   F224      1.0  0.81664  0.97137  0.69372  1.0000
  F   F225      1.0  0.24147  0.14154  0.42440  1.0000
  F   F226      1.0  0.24066  0.14882  0.92641  1.0000
  F   F227      1.0  0.24355  0.64845  0.42353  1.0000
  F   F228      1.0  0.24739  0.64209  0.91946  1.0000
  F   F229      1.0  0.49146  0.12832  0.43516  1.0000
  F   F230      1.0  0.49934  0.13368  0.92034  1.0000
  F   F231      1.0  0.48829  0.64165  0.44035  1.0000
  F   F232      1.0  0.49240  0.63315  0.93558  1.0000
  F   F233      1.0  0.74524  0.11958  0.42856  1.0000
  F   F234      1.0  0.74170  0.14611  0.91881  1.0000
  F   F235      1.0  0.74099  0.63981  0.43548  1.0000
  F   F236      1.0  0.74350  0.63251  0.92092  1.0000
  F   F237      1.0  0.99034  0.13617  0.43903  1.0000
  F   F238      1.0  0.99189  0.13131  0.93399  1.0000
  F   F239      1.0  0.99134  0.63308  0.43516  1.0000
  F   F240      1.0  0.99362  0.65957  0.90655  1.0000
  F   F241      1.0  0.18049  0.01067  0.32809  1.0000
  F   F242      1.0  0.17813  0.01717  0.83071  1.0000
  F   F243      1.0  0.18034  0.51462  0.31423  1.0000
  F   F244      1.0  0.18787  0.51948  0.80734  1.0000
  F   F245      1.0  0.42564  0.01360  0.32532  1.0000
  F   F246      1.0  0.43393  0.00856  0.82231  1.0000
  F   F247      1.0  0.42947  0.51587  0.33748  1.0000
  F   F248      1.0  0.43533  0.50088  0.83121  1.0000
  F   F249      1.0  0.68152  0.99591  0.33952  1.0000
  F   F250      1.0  0.68118  0.02040  0.81960  1.0000
  F   F251      1.0  0.68305  0.51673  0.32036  1.0000
  F   F252      1.0  0.67485  0.51002  0.83796  1.0000
  F   F253      1.0  0.93609  0.02593  0.31280  1.0000
  F   F254      1.0  0.93871  0.00920  0.81481  1.0000
  F   F255      1.0  0.93668  0.51462  0.32376  1.0000
  F   F256      1.0  0.93126  0.50953  0.82245  1.0000
  F   F257      1.0  0.99807  0.26469  0.98738  1.0000
  F   F258      1.0  0.99805  0.25596  0.49623  1.0000
  F   F259      1.0  0.00252  0.76351  0.97862  1.0000
  F   F260      1.0  0.00659  0.77299  0.47337  1.0000
  F   F261      1.0  0.25648  0.27484  0.97945  1.0000
  F   F262      1.0  0.24862  0.25758  0.49060  1.0000
  F   F263      1.0  0.24967  0.74011  0.01255  1.0000
  F   F264      1.0  0.25067  0.75484  0.49863  1.0000
  F   F265      1.0  0.50349  0.26146  0.99120  1.0000
  F   F266      1.0  0.50089  0.24490  0.50538  1.0000
  F   F267      1.0  0.49900  0.74603  0.00883  1.0000
  F   F268      1.0  0.50009  0.73942  0.51089  1.0000
  F   F269      1.0  0.74271  0.22167  0.02612  1.0000
  F   F270      1.0  0.74764  0.24315  0.50185  1.0000
  F   F271      1.0  0.74425  0.74387  0.00706  1.0000
  F   F272      1.0  0.75359  0.74188  0.50926  1.0000
  F   F273      1.0  0.12858  0.00170  0.23915  1.0000
  F   F274      1.0  0.12431  0.99894  0.74867  1.0000
  F   F275      1.0  0.12673  0.50286  0.23973  1.0000
  F   F276      1.0  0.12798  0.49952  0.73677  1.0000
  F   F277      1.0  0.36939  0.00868  0.24670  1.0000
  F   F278      1.0  0.37959  0.00904  0.73980  1.0000
  F   F279      1.0  0.37363  0.49312  0.25745  1.0000
  F   F280      1.0  0.36571  0.49567  0.76724  1.0000
  F   F281      1.0  0.62762  0.98135  0.25847  1.0000
  F   F282      1.0  0.62582  0.99803  0.74633  1.0000
  F   F283      1.0  0.62593  0.48849  0.25824  1.0000
  F   F284      1.0  0.62584  0.49602  0.75464  1.0000
  F   F285      1.0  0.87427  0.99788  0.24696  1.0000
  F   F286      1.0  0.87415  0.00348  0.74762  1.0000
  F   F287      1.0  0.87924  0.50102  0.24733  1.0000
  F   F288      1.0  0.87845  0.50914  0.74237  1.0000
  F   F289      1.0  0.04251  0.03430  0.01979  1.0000
  F   F290      1.0  0.04813  0.02237  0.50693  1.0000
  F   F291      1.0  0.04019  0.53960  0.01330  1.0000
  F   F292      1.0  0.04543  0.53676  0.51750  1.0000
  F   F293      1.0  0.29374  0.03548  0.00928  1.0000
  F   F294      1.0  0.30166  0.02938  0.51753  1.0000
  F   F295      1.0  0.29146  0.53222  0.03023  1.0000
  F   F296      1.0  0.28957  0.53687  0.52623  1.0000
  F   F297      1.0  0.54532  0.03078  0.02913  1.0000
  F   F298      1.0  0.54385  0.02319  0.52352  1.0000
  F   F299      1.0  0.54181  0.52889  0.03041  1.0000
  F   F300      1.0  0.53529  0.51890  0.52883  1.0000
  F   F301      1.0  0.78841  0.02989  0.02504  1.0000
  F   F302      1.0  0.80402  0.01632  0.52586  1.0000
  F   F303      1.0  0.79123  0.52268  0.02365  1.0000
  F   F304      1.0  0.79624  0.54445  0.51855  1.0000
  F   F305      1.0  0.23290  0.42095  0.22052  1.0000
  F   F306      1.0  0.23610  0.41228  0.72645  1.0000
  F   F307      1.0  0.23376  0.93532  0.21450  1.0000
  F   F308      1.0  0.23491  0.91373  0.72487  1.0000
  F   F309      1.0  0.48585  0.42026  0.23212  1.0000
  F   F310      1.0  0.48901  0.40671  0.72581  1.0000
  F   F311      1.0  0.49039  0.92500  0.22810  1.0000
  F   F312      1.0  0.48542  0.88586  0.73925  1.0000
  F   F313      1.0  0.73142  0.42561  0.21839  1.0000
  F   F314      1.0  0.73868  0.41861  0.72394  1.0000
  F   F315      1.0  0.73032  0.90052  0.23612  1.0000
  F   F316      1.0  0.73160  0.92498  0.73615  1.0000
  F   F317      1.0  0.98608  0.42952  0.22446  1.0000
  F   F318      1.0  0.98627  0.42456  0.71959  1.0000
  F   F319      1.0  0.98496  0.92583  0.21056  1.0000
  F   F320      1.0  0.99345  0.91762  0.71530  1.0000
  F   F321      1.0  0.20521  0.46455  0.46414  1.0000
  F   F322      1.0  0.19912  0.46534  0.97686  1.0000
  F   F323      1.0  0.20543  0.97013  0.49361  1.0000
  F   F324      1.0  0.20547  0.97647  0.97720  1.0000
  F   F325      1.0  0.45497  0.47727  0.47709  1.0000
  F   F326      1.0  0.45574  0.46085  0.98988  1.0000
  F   F327      1.0  0.45343  0.96809  0.48113  1.0000
  F   F328      1.0  0.46157  0.96851  0.96982  1.0000
  F   F329      1.0  0.70790  0.46776  0.48764  1.0000
  F   F330      1.0  0.70694  0.46494  0.97493  1.0000
  F   F331      1.0  0.71134  0.95712  0.47810  1.0000
  F   F332      1.0  0.70589  0.96702  0.97599  1.0000
  F   F333      1.0  0.95171  0.47501  0.48197  1.0000
  F   F334      1.0  0.94679  0.47747  0.98988  1.0000
  F   F335      1.0  0.95350  0.96654  0.48829  1.0000
  F   F336      1.0  0.95848  0.97560  0.97396  1.0000
  F   F337      1.0  0.01690  0.10714  0.27041  1.0000
  F   F338      1.0  0.01310  0.10505  0.75030  1.0000
  F   F339      1.0  0.01890  0.58552  0.27809  1.0000
  F   F340      1.0  0.01241  0.58731  0.77435  1.0000
  F   F341      1.0  0.26389  0.09176  0.26622  1.0000
  F   F342      1.0  0.26533  0.08812  0.78030  1.0000
  F   F343      1.0  0.26503  0.60858  0.26485  1.0000
  F   F344      1.0  0.26653  0.57344  0.76689  1.0000
  F   F345      1.0  0.51321  0.10063  0.26824  1.0000
  F   F346      1.0  0.51313  0.08593  0.77169  1.0000
  F   F347      1.0  0.51263  0.59805  0.26728  1.0000
  F   F348      1.0  0.51399  0.57333  0.79516  1.0000
  F   F349      1.0  0.77038  0.07452  0.27910  1.0000
  F   F350      1.0  0.76292  0.09248  0.77338  1.0000
  F   F351      1.0  0.76608  0.57251  0.27360  1.0000
  F   F352      1.0  0.75698  0.58714  0.77402  1.0000
  F   F353      1.0  0.09662  0.42478  0.45501  1.0000
  F   F354      1.0  0.10273  0.42475  0.96058  1.0000
  F   F355      1.0  0.09948  0.90487  0.46338  1.0000
  F   F356      1.0  0.09469  0.90619  0.96732  1.0000
  F   F357      1.0  0.35329  0.40701  0.46517  1.0000
  F   F358      1.0  0.35381  0.41120  0.96395  1.0000
  F   F359      1.0  0.35225  0.91957  0.45535  1.0000
  F   F360      1.0  0.35290  0.91013  0.96500  1.0000
  F   F361      1.0  0.59952  0.39678  0.46738  1.0000
  F   F362      1.0  0.60149  0.39088  0.97281  1.0000
  F   F363      1.0  0.59910  0.88407  0.47107  1.0000
  F   F364      1.0  0.59834  0.91973  0.96003  1.0000
  F   F365      1.0  0.84493  0.40284  0.46733  1.0000
  F   F366      1.0  0.84659  0.40350  0.95839  1.0000
  F   F367      1.0  0.85306  0.90182  0.45288  1.0000
  F   F368      1.0  0.85199  0.91282  0.95835  1.0000
  F   F369      1.0  0.03776  0.29778  0.28318  1.0000
  F   F370      1.0  0.04196  0.29790  0.78657  1.0000
  F   F371      1.0  0.04234  0.79772  0.28683  1.0000
  F   F372      1.0  0.05235  0.81058  0.77427  1.0000
  F   F373      1.0  0.29823  0.29971  0.28113  1.0000
  F   F374      1.0  0.29779  0.29906  0.77621  1.0000
  F   F375      1.0  0.29100  0.81098  0.28392  1.0000
  F   F376      1.0  0.30450  0.79585  0.78548  1.0000
  F   F377      1.0  0.54138  0.29032  0.29121  1.0000
  F   F378      1.0  0.54618  0.28620  0.78918  1.0000
  F   F379      1.0  0.54198  0.78163  0.28626  1.0000
  F   F380      1.0  0.55755  0.79797  0.79713  1.0000
  F   F381      1.0  0.79909  0.29011  0.29738  1.0000
  F   F382      1.0  0.79964  0.29532  0.79464  1.0000
  F   F383      1.0  0.79198  0.79504  0.28120  1.0000
  F   F384      1.0  0.79228  0.78938  0.80693  1.0000
