data_image0
_chemical_formula_structural       Hf96F384
_chemical_formula_sum              "Hf96 F384"
_cell_length_a       31.0289
_cell_length_b       15.5164
_cell_length_c       15.5097
_cell_angle_alpha    63.342
_cell_angle_beta     63.342
_cell_angle_gamma    80.1625

_space_group_name_H-M_alt    "P 1"
_space_group_IT_number       1

loop_
  _space_group_symop_operation_xyz
  'x, y, z'

loop_
  _atom_site_type_symbol
  _atom_site_label
  _atom_site_symmetry_multiplicity
  _atom_site_fract_x
  _atom_site_fract_y
  _atom_site_fract_z
  _atom_site_occupancy
  Hf  Hf1       1.0  0.19569  0.10801  0.37635  1.0000
  Hf  Hf2       1.0  0.19270  0.10583  0.88246  1.0000
  Hf  Hf3       1.0  0.19870  0.59900  0.38471  1.0000
  Hf  Hf4       1.0  0.19155  0.61060  0.88197  1.0000
  Hf  Hf5       1.0  0.44486  0.10775  0.37966  1.0000
  Hf  Hf6       1.0  0.44533  0.11076  0.87379  1.0000
  Hf  Hf7       1.0  0.44606  0.61246  0.37723  1.0000
  Hf  Hf8       1.0  0.44960  0.60871  0.86813  1.0000
  Hf  Hf9       1.0  0.69888  0.10731  0.36474  1.0000
  Hf  Hf10      1.0  0.69994  0.10642  0.86690  1.0000
  Hf  Hf11      1.0  0.69680  0.60784  0.37342  1.0000
  Hf  Hf12      1.0  0.69724  0.59959  0.86956  1.0000
  Hf  Hf13      1.0  0.94346  0.10544  0.38530  1.0000
  Hf  Hf14      1.0  0.94847  0.11116  0.87088  1.0000
  Hf  Hf15      1.0  0.94636  0.61111  0.37558  1.0000
  Hf  Hf16      1.0  0.94825  0.60666  0.86969  1.0000
  Hf  Hf17      1.0  0.05690  0.39026  0.12902  1.0000
  Hf  Hf18      1.0  0.05275  0.38185  0.63163  1.0000
  Hf  Hf19      1.0  0.05243  0.89273  0.13000  1.0000
  Hf  Hf20      1.0  0.05602  0.89262  0.61971  1.0000
  Hf  Hf21      1.0  0.30286  0.39575  0.12250  1.0000
  Hf  Hf22      1.0  0.30226  0.39723  0.62260  1.0000
  Hf  Hf23      1.0  0.30180  0.89825  0.12512  1.0000
  Hf  Hf24      1.0  0.30666  0.90078  0.63092  1.0000
  Hf  Hf25      1.0  0.55474  0.38966  0.13014  1.0000
  Hf  Hf26      1.0  0.54762  0.38818  0.63052  1.0000
  Hf  Hf27      1.0  0.55319  0.89234  0.13009  1.0000
  Hf  Hf28      1.0  0.55608  0.88690  0.62069  1.0000
  Hf  Hf29      1.0  0.80500  0.40375  0.11041  1.0000
  Hf  Hf30      1.0  0.80617  0.39220  0.62172  1.0000
  Hf  Hf31      1.0  0.80239  0.89069  0.13142  1.0000
  Hf  Hf32      1.0  0.80447  0.89697  0.61781  1.0000
  Hf  Hf33      1.0  0.05436  0.18186  0.42097  1.0000
  Hf  Hf34      1.0  0.05508  0.18557  0.91691  1.0000
  Hf  Hf35      1.0  0.05971  0.67830  0.41560  1.0000
  Hf  Hf36      1.0  0.05551  0.67945  0.91492  1.0000
  Hf  Hf37      1.0  0.30726  0.18356  0.41994  1.0000
  Hf  Hf38      1.0  0.30190  0.18545  0.91726  1.0000
  Hf  Hf39      1.0  0.30860  0.68825  0.41654  1.0000
  Hf  Hf40      1.0  0.30499  0.68673  0.91880  1.0000
  Hf  Hf41      1.0  0.55258  0.17863  0.42669  1.0000
  Hf  Hf42      1.0  0.55780  0.19083  0.91135  1.0000
  Hf  Hf43      1.0  0.55751  0.67864  0.41566  1.0000
  Hf  Hf44      1.0  0.55346  0.68385  0.90965  1.0000
  Hf  Hf45      1.0  0.80781  0.18826  0.40815  1.0000
  Hf  Hf46      1.0  0.80346  0.18007  0.91315  1.0000
  Hf  Hf47      1.0  0.80717  0.68477  0.40678  1.0000
  Hf  Hf48      1.0  0.80587  0.68809  0.90432  1.0000
  Hf  Hf49      1.0  0.15891  0.38301  0.33314  1.0000
  Hf  Hf50      1.0  0.16346  0.39017  0.83644  1.0000
  Hf  Hf51      1.0  0.16203  0.88582  0.32855  1.0000
  Hf  Hf52      1.0  0.15453  0.88979  0.83951  1.0000
  Hf  Hf53      1.0  0.40690  0.39043  0.33630  1.0000
  Hf  Hf54      1.0  0.40587  0.38885  0.84077  1.0000
  Hf  Hf55      1.0  0.40616  0.89380  0.33477  1.0000
  Hf  Hf56      1.0  0.41165  0.89403  0.82129  1.0000
  Hf  Hf57      1.0  0.66038  0.38823  0.32894  1.0000
  Hf  Hf58      1.0  0.65797  0.37858  0.84140  1.0000
  Hf  Hf59      1.0  0.65577  0.88870  0.32890  1.0000
  Hf  Hf60      1.0  0.65348  0.87707  0.83710  1.0000
  Hf  Hf61      1.0  0.90803  0.38490  0.33156  1.0000
  Hf  Hf62      1.0  0.90968  0.38818  0.82687  1.0000
  Hf  Hf63      1.0  0.90663  0.89381  0.33450  1.0000
  Hf  Hf64      1.0  0.90992  0.88828  0.83160  1.0000
  Hf  Hf65      1.0  0.19603  0.32216  0.07768  1.0000
  Hf  Hf66      1.0  0.19359  0.31507  0.58919  1.0000
  Hf  Hf67      1.0  0.19047  0.81042  0.09407  1.0000
  Hf  Hf68      1.0  0.19409  0.82397  0.58509  1.0000
  Hf  Hf69      1.0  0.44495  0.31478  0.08730  1.0000
  Hf  Hf70      1.0  0.43929  0.31497  0.59145  1.0000
  Hf  Hf71      1.0  0.44265  0.81538  0.08118  1.0000
  Hf  Hf72      1.0  0.44503  0.81717  0.58557  1.0000
  Hf  Hf73      1.0  0.69286  0.31325  0.08786  1.0000
  Hf  Hf74      1.0  0.69358  0.31283  0.58714  1.0000
  Hf  Hf75      1.0  0.69262  0.81881  0.08292  1.0000
  Hf  Hf76      1.0  0.69658  0.81522  0.57834  1.0000
  Hf  Hf77      1.0  0.94401  0.32158  0.07928  1.0000
  Hf  Hf78      1.0  0.94427  0.32526  0.58201  1.0000
  Hf  Hf79      1.0  0.94423  0.81458  0.08871  1.0000
  Hf  Hf80      1.0  0.94775  0.81818  0.57651  1.0000
  Hf  Hf81      1.0  0.08947  0.11539  0.16976  1.0000
  Hf  Hf82      1.0  0.09130  0.11119  0.66416  1.0000
  Hf  Hf83      1.0  0.09014  0.60796  0.17005  1.0000
  Hf  Hf84      1.0  0.09113  0.60668  0.67017  1.0000
  Hf  Hf85      1.0  0.34210  0.11433  0.17006  1.0000
  Hf  Hf86      1.0  0.33930  0.10849  0.67801  1.0000
  Hf  Hf87      1.0  0.34485  0.61188  0.16142  1.0000
  Hf  Hf88      1.0  0.33924  0.61823  0.66893  1.0000
  Hf  Hf89      1.0  0.59169  0.11158  0.17172  1.0000
  Hf  Hf90      1.0  0.58874  0.10447  0.67342  1.0000
  Hf  Hf91      1.0  0.59522  0.61017  0.16583  1.0000
  Hf  Hf92      1.0  0.58977  0.60244  0.67121  1.0000
  Hf  Hf93      1.0  0.84346  0.11604  0.15957  1.0000
  Hf  Hf94      1.0  0.84230  0.10367  0.66644  1.0000
  Hf  Hf95      1.0  0.84109  0.61363  0.16335  1.0000
  Hf  Hf96      1.0  0.84562  0.61517  0.65669  1.0000
  F   F1        1.0  0.07524  0.11778  0.31229  1.0000
  F   F2        1.0  0.08483  0.14154  0.79472  1.0000
  F   F3        1.0  0.08478  0.62049  0.30370  1.0000
  F   F4        1.0  0.08289  0.62153  0.81036  1.0000
  F   F5        1.0  0.33189  0.13544  0.31156  1.0000
  F   F6        1.0  0.32930  0.12642  0.80952  1.0000
  F   F7        1.0  0.33546  0.63964  0.29434  1.0000
  F   F8        1.0  0.32932  0.63374  0.80256  1.0000
  F   F9        1.0  0.57957  0.12272  0.31719  1.0000
  F   F10       1.0  0.57940  0.12685  0.80588  1.0000
  F   F11       1.0  0.57837  0.60409  0.31757  1.0000
  F   F12       1.0  0.57506  0.61726  0.80525  1.0000
  F   F13       1.0  0.82860  0.13050  0.29753  1.0000
  F   F14       1.0  0.83693  0.13065  0.79725  1.0000
  F   F15       1.0  0.82773  0.62632  0.29971  1.0000
  F   F16       1.0  0.82952  0.62955  0.79484  1.0000
  F   F17       1.0  0.18033  0.33643  0.45247  1.0000
  F   F18       1.0  0.19880  0.35989  0.92449  1.0000
  F   F19       1.0  0.18498  0.83595  0.44731  1.0000
  F   F20       1.0  0.17886  0.83851  0.95950  1.0000
  F   F21       1.0  0.43782  0.35046  0.45053  1.0000
  F   F22       1.0  0.43149  0.33256  0.96722  1.0000
  F   F23       1.0  0.43199  0.84212  0.45532  1.0000
  F   F24       1.0  0.43249  0.83404  0.95285  1.0000
  F   F25       1.0  0.68389  0.33607  0.45070  1.0000
  F   F26       1.0  0.68420  0.33863  0.95050  1.0000
  F   F27       1.0  0.68603  0.84029  0.43766  1.0000
  F   F28       1.0  0.68405  0.84205  0.94885  1.0000
  F   F29       1.0  0.93316  0.33272  0.44669  1.0000
  F   F30       1.0  0.92889  0.33948  0.95218  1.0000
  F   F31       1.0  0.93174  0.83769  0.45640  1.0000
  F   F32       1.0  0.92740  0.83535  0.96033  1.0000
  F   F33       1.0  0.17447  0.36274  0.19649  1.0000
  F   F34       1.0  0.18212  0.37152  0.68613  1.0000
  F   F35       1.0  0.16768  0.87101  0.19585  1.0000
  F   F36       1.0  0.16539  0.87510  0.70702  1.0000
  F   F37       1.0  0.42821  0.37358  0.19698  1.0000
  F   F38       1.0  0.42439  0.37918  0.69183  1.0000
  F   F39       1.0  0.41875  0.88817  0.19196  1.0000
  F   F40       1.0  0.41854  0.86593  0.70063  1.0000
  F   F41       1.0  0.67044  0.35985  0.19734  1.0000
  F   F42       1.0  0.66580  0.34813  0.70962  1.0000
  F   F43       1.0  0.66715  0.87100  0.19158  1.0000
  F   F44       1.0  0.66597  0.86217  0.69824  1.0000
  F   F45       1.0  0.93032  0.39180  0.17893  1.0000
  F   F46       1.0  0.92190  0.37931  0.69520  1.0000
  F   F47       1.0  0.92204  0.88033  0.18955  1.0000
  F   F48       1.0  0.92522  0.86644  0.69171  1.0000
  F   F49       1.0  0.07239  0.17299  0.04544  1.0000
  F   F50       1.0  0.05522  0.14627  0.56592  1.0000
  F   F51       1.0  0.05800  0.65305  0.05669  1.0000
  F   F52       1.0  0.06335  0.66158  0.56064  1.0000
  F   F53       1.0  0.31208  0.16446  0.05192  1.0000
  F   F54       1.0  0.31954  0.16714  0.54718  1.0000
  F   F55       1.0  0.30551  0.64991  0.06037  1.0000
  F   F56       1.0  0.31243  0.65988  0.56209  1.0000
  F   F57       1.0  0.56407  0.16200  0.05653  1.0000
  F   F58       1.0  0.55886  0.15716  0.56381  1.0000
  F   F59       1.0  0.57187  0.66334  0.04119  1.0000
  F   F60       1.0  0.56520  0.64897  0.55141  1.0000
  F   F61       1.0  0.81366  0.16858  0.05256  1.0000
  F   F62       1.0  0.82185  0.16201  0.54405  1.0000
  F   F63       1.0  0.82019  0.66656  0.04168  1.0000
  F   F64       1.0  0.81972  0.66438  0.54139  1.0000
  F   F65       1.0  0.19998  0.20339  0.21396  1.0000
  F   F66       1.0  0.19309  0.20446  0.72815  1.0000
  F   F67       1.0  0.20333  0.70235  0.20712  1.0000
  F   F68       1.0  0.19789  0.71016  0.71570  1.0000
  F   F69       1.0  0.44953  0.20029  0.22187  1.0000
  F   F70       1.0  0.45083  0.20510  0.71997  1.0000
  F   F71       1.0  0.45824  0.71358  0.21719  1.0000
  F   F72       1.0  0.45318  0.69243  0.72098  1.0000
  F   F73       1.0  0.70400  0.19157  0.21064  1.0000
  F   F74       1.0  0.71147  0.19477  0.70403  1.0000
  F   F75       1.0  0.70539  0.70626  0.20708  1.0000
  F   F76       1.0  0.71030  0.69522  0.70921  1.0000
  F   F77       1.0  0.94171  0.21356  0.21838  1.0000
  F   F78       1.0  0.95445  0.21140  0.71104  1.0000
  F   F79       1.0  0.95853  0.70167  0.21076  1.0000
  F   F80       1.0  0.96579  0.70227  0.69995  1.0000
  F   F81       1.0  0.14899  0.08790  0.04575  1.0000
  F   F82       1.0  0.14381  0.07968  0.54021  1.0000
  F   F83       1.0  0.14687  0.59426  0.03988  1.0000
  F   F84       1.0  0.15449  0.58412  0.53567  1.0000
  F   F85       1.0  0.40462  0.10663  0.03705  1.0000
  F   F86       1.0  0.40167  0.08464  0.53828  1.0000
  F   F87       1.0  0.40094  0.59974  0.02860  1.0000
  F   F88       1.0  0.39737  0.61319  0.53918  1.0000
  F   F89       1.0  0.64443  0.09503  0.04710  1.0000
  F   F90       1.0  0.64432  0.10492  0.54295  1.0000
  F   F91       1.0  0.64693  0.57530  0.03333  1.0000
  F   F92       1.0  0.65018  0.60978  0.52722  1.0000
  F   F93       1.0  0.90168  0.09104  0.03540  1.0000
  F   F94       1.0  0.89525  0.07941  0.54049  1.0000
  F   F95       1.0  0.90341  0.58279  0.03421  1.0000
  F   F96       1.0  0.90074  0.60031  0.52588  1.0000
  F   F97       1.0  0.14913  0.20593  0.11229  1.0000
  F   F98       1.0  0.15007  0.19140  0.62360  1.0000
  F   F99       1.0  0.15226  0.68607  0.12672  1.0000
  F   F100      1.0  0.14984  0.69940  0.61794  1.0000
  F   F101      1.0  0.39895  0.18831  0.14720  1.0000
  F   F102      1.0  0.40200  0.19075  0.62646  1.0000
  F   F103      1.0  0.41121  0.67778  0.12435  1.0000
  F   F104      1.0  0.40368  0.69434  0.63786  1.0000
  F   F105      1.0  0.65522  0.18711  0.13332  1.0000
  F   F106      1.0  0.65142  0.19344  0.63573  1.0000
  F   F107      1.0  0.64888  0.70536  0.11551  1.0000
  F   F108      1.0  0.65834  0.69194  0.63096  1.0000
  F   F109      1.0  0.90519  0.19215  0.11453  1.0000
  F   F110      1.0  0.90013  0.19380  0.61678  1.0000
  F   F111      1.0  0.90016  0.68077  0.13383  1.0000
  F   F112      1.0  0.90144  0.70028  0.63815  1.0000
  F   F113      1.0  0.10183  0.29487  0.39109  1.0000
  F   F114      1.0  0.10300  0.30458  0.85742  1.0000
  F   F115      1.0  0.10212  0.81369  0.36077  1.0000
  F   F116      1.0  0.09564  0.80699  0.88350  1.0000
  F   F117      1.0  0.35334  0.30217  0.36016  1.0000
  F   F118      1.0  0.35019  0.30315  0.86723  1.0000
  F   F119      1.0  0.34359  0.81509  0.38813  1.0000
  F   F120      1.0  0.35175  0.79882  0.88652  1.0000
  F   F121      1.0  0.60417  0.29474  0.37543  1.0000
  F   F122      1.0  0.59440  0.31259  0.88710  1.0000
  F   F123      1.0  0.59803  0.79514  0.37436  1.0000
  F   F124      1.0  0.59282  0.81258  0.86534  1.0000
  F   F125      1.0  0.85397  0.29964  0.35871  1.0000
  F   F126      1.0  0.85149  0.30192  0.85417  1.0000
  F   F127      1.0  0.84850  0.81009  0.36494  1.0000
  F   F128      1.0  0.84449  0.80660  0.88065  1.0000
  F   F129      1.0  0.06329  0.24961  0.15757  1.0000
  F   F130      1.0  0.06410  0.25356  0.62650  1.0000
  F   F131      1.0  0.07159  0.75007  0.12976  1.0000
  F   F132      1.0  0.06065  0.73765  0.66215  1.0000
  F   F133      1.0  0.31218  0.25125  0.15091  1.0000
  F   F134      1.0  0.31335  0.24664  0.65132  1.0000
  F   F135      1.0  0.31832  0.75598  0.11978  1.0000
  F   F136      1.0  0.31886  0.76196  0.63241  1.0000
  F   F137      1.0  0.56172  0.24526  0.15949  1.0000
  F   F138      1.0  0.56247  0.24865  0.65028  1.0000
  F   F139      1.0  0.56738  0.75318  0.13401  1.0000
  F   F140      1.0  0.56841  0.75319  0.63530  1.0000
  F   F141      1.0  0.81425  0.25658  0.13605  1.0000
  F   F142      1.0  0.80920  0.24928  0.64998  1.0000
  F   F143      1.0  0.80853  0.74628  0.15548  1.0000
  F   F144      1.0  0.82488  0.75886  0.61874  1.0000
  F   F145      1.0  0.12977  0.38463  0.10490  1.0000
  F   F146      1.0  0.12537  0.36155  0.61782  1.0000
  F   F147      1.0  0.12032  0.87832  0.09991  1.0000
  F   F148      1.0  0.12726  0.87349  0.60016  1.0000
  F   F149      1.0  0.37336  0.37650  0.11077  1.0000
  F   F150      1.0  0.36676  0.35334  0.63308  1.0000
  F   F151      1.0  0.37724  0.84831  0.10916  1.0000
  F   F152      1.0  0.37721  0.86080  0.61709  1.0000
  F   F153      1.0  0.62645  0.37065  0.10649  1.0000
  F   F154      1.0  0.62181  0.38005  0.60083  1.0000
  F   F155      1.0  0.62747  0.87939  0.09027  1.0000
  F   F156      1.0  0.62680  0.88002  0.58904  1.0000
  F   F157      1.0  0.87255  0.36347  0.11756  1.0000
  F   F158      1.0  0.87606  0.36389  0.61519  1.0000
  F   F159      1.0  0.87653  0.85025  0.12500  1.0000
  F   F160      1.0  0.88024  0.88470  0.59346  1.0000
  F   F161      1.0  0.18715  0.24904  0.35746  1.0000
  F   F162      1.0  0.17925  0.24995  0.87577  1.0000
  F   F163      1.0  0.19073  0.73901  0.35370  1.0000
  F   F164      1.0  0.17896  0.75057  0.86679  1.0000
  F   F165      1.0  0.42840  0.24631  0.38078  1.0000
  F   F166      1.0  0.43608  0.25974  0.85519  1.0000
  F   F167      1.0  0.42896  0.76077  0.35991  1.0000
  F   F168      1.0  0.44472  0.75857  0.84161  1.0000
  F   F169      1.0  0.69736  0.24742  0.34024  1.0000
  F   F170      1.0  0.68455  0.25130  0.85992  1.0000
  F   F171      1.0  0.68102  0.76042  0.34740  1.0000
  F   F172      1.0  0.68012  0.74698  0.86514  1.0000
  F   F173      1.0  0.93217  0.24870  0.35988  1.0000
  F   F174      1.0  0.93521  0.25027  0.85984  1.0000
  F   F175      1.0  0.93721  0.75423  0.35272  1.0000
  F   F176      1.0  0.93300  0.74013  0.87293  1.0000
  F   F177      1.0  0.12302  0.13304  0.38809  1.0000
  F   F178      1.0  0.12796  0.13719  0.89443  1.0000
  F   F179      1.0  0.12798  0.63029  0.40237  1.0000
  F   F180      1.0  0.12652  0.63117  0.88757  1.0000
  F   F181      1.0  0.37459  0.12646  0.39366  1.0000
  F   F182      1.0  0.37233  0.12150  0.90977  1.0000
  F   F183      1.0  0.37257  0.61696  0.40712  1.0000
  F   F184      1.0  0.37614  0.63390  0.89674  1.0000
  F   F185      1.0  0.62095  0.11594  0.40564  1.0000
  F   F186      1.0  0.62595  0.14419  0.88783  1.0000
  F   F187      1.0  0.62693  0.62882  0.38367  1.0000
  F   F188      1.0  0.62676  0.64433  0.87612  1.0000
  F   F189      1.0  0.87342  0.11660  0.40021  1.0000
  F   F190      1.0  0.87923  0.12376  0.89600  1.0000
  F   F191      1.0  0.87934  0.64313  0.37808  1.0000
  F   F192      1.0  0.87836  0.64250  0.87142  1.0000
  F   F193      1.0  0.01237  0.36152  0.06483  1.0000
  F   F194      1.0  0.00745  0.37630  0.56482  1.0000
  F   F195      1.0  0.01003  0.87456  0.06851  1.0000
  F   F196      1.0  0.01089  0.86345  0.57076  1.0000
  F   F197      1.0  0.26003  0.36823  0.04849  1.0000
  F   F198      1.0  0.26381  0.36017  0.57095  1.0000
  F   F199      1.0  0.25349  0.85977  0.08378  1.0000
  F   F200      1.0  0.25412  0.85989  0.58511  1.0000
  F   F201      1.0  0.51683  0.36670  0.05781  1.0000
  F   F202      1.0  0.50354  0.36226  0.57177  1.0000
  F   F203      1.0  0.50712  0.87771  0.05868  1.0000
  F   F204      1.0  0.50533  0.84984  0.58909  1.0000
  F   F205      1.0  0.75857  0.36804  0.06547  1.0000
  F   F206      1.0  0.75396  0.36894  0.55572  1.0000
  F   F207      1.0  0.76022  0.87278  0.04796  1.0000
  F   F208      1.0  0.75267  0.85353  0.59849  1.0000
  F   F209      1.0  0.06512  0.48397  0.18186  1.0000
  F   F210      1.0  0.07587  0.47904  0.66137  1.0000
  F   F211      1.0  0.06460  0.98733  0.19853  1.0000
  F   F212      1.0  0.06590  0.98159  0.67896  1.0000
  F   F213      1.0  0.32592  0.49242  0.16082  1.0000
  F   F214      1.0  0.31963  0.48960  0.68257  1.0000
  F   F215      1.0  0.32286  0.99186  0.15823  1.0000
  F   F216      1.0  0.31903  0.98761  0.68158  1.0000
  F   F217      1.0  0.56454  0.49271  0.17748  1.0000
  F   F218      1.0  0.56481  0.47615  0.69465  1.0000
  F   F219      1.0  0.56938  0.96583  0.19382  1.0000
  F   F220      1.0  0.56692  0.98050  0.66903  1.0000
  F   F221      1.0  0.82208  0.49093  0.16340  1.0000
  F   F222      1.0  0.82158  0.49559  0.65323  1.0000
  F   F223      1.0  0.82263  0.99179  0.15637  1.0000
  F   F224      1.0  0.81468  0.97936  0.66931  1.0000
  F   F225      1.0  0.24187  0.12780  0.42846  1.0000
  F   F226      1.0  0.24036  0.13653  0.93503  1.0000
  F   F227      1.0  0.24762  0.62965  0.43973  1.0000
  F   F228      1.0  0.24293  0.65686  0.92437  1.0000
  F   F229      1.0  0.49421  0.14620  0.41170  1.0000
  F   F230      1.0  0.49905  0.14453  0.90264  1.0000
  F   F231      1.0  0.48748  0.63435  0.43568  1.0000
  F   F232      1.0  0.49151  0.63249  0.93588  1.0000
  F   F233      1.0  0.74414  0.14099  0.42202  1.0000
  F   F234      1.0  0.74505  0.14083  0.90901  1.0000
  F   F235      1.0  0.74099  0.65020  0.41539  1.0000
  F   F236      1.0  0.74136  0.62948  0.92052  1.0000
  F   F237      1.0  0.98618  0.14973  0.43073  1.0000
  F   F238      1.0  0.99400  0.13228  0.91893  1.0000
  F   F239      1.0  0.99386  0.62586  0.43234  1.0000
  F   F240      1.0  0.99580  0.62366  0.92696  1.0000
  F   F241      1.0  0.18321  0.01465  0.33030  1.0000
  F   F242      1.0  0.18271  0.01461  0.82306  1.0000
  F   F243      1.0  0.18252  0.50980  0.32543  1.0000
  F   F244      1.0  0.18194  0.52296  0.82431  1.0000
  F   F245      1.0  0.43383  0.01261  0.32107  1.0000
  F   F246      1.0  0.42218  0.02206  0.82639  1.0000
  F   F247      1.0  0.42638  0.51798  0.31542  1.0000
  F   F248      1.0  0.42815  0.51293  0.82295  1.0000
  F   F249      1.0  0.68025  0.02029  0.32196  1.0000
  F   F250      1.0  0.68137  0.02248  0.81995  1.0000
  F   F251      1.0  0.68437  0.51457  0.30845  1.0000
  F   F252      1.0  0.68327  0.51375  0.82241  1.0000
  F   F253      1.0  0.93383  0.01301  0.32288  1.0000
  F   F254      1.0  0.93596  0.02261  0.79401  1.0000
  F   F255      1.0  0.92455  0.50267  0.33853  1.0000
  F   F256      1.0  0.93176  0.51487  0.82233  1.0000
  F   F257      1.0  0.99954  0.24977  0.99929  1.0000
  F   F258      1.0  0.00417  0.26773  0.48809  1.0000
  F   F259      1.0  0.99619  0.75934  0.99375  1.0000
  F   F260      1.0  0.00259  0.75114  0.49074  1.0000
  F   F261      1.0  0.24628  0.24606  0.00828  1.0000
  F   F262      1.0  0.24543  0.24029  0.51316  1.0000
  F   F263      1.0  0.25020  0.77135  0.99038  1.0000
  F   F264      1.0  0.25197  0.74447  0.49878  1.0000
  F   F265      1.0  0.49803  0.23776  0.00641  1.0000
  F   F266      1.0  0.49526  0.24295  0.50814  1.0000
  F   F267      1.0  0.49777  0.75061  0.99189  1.0000
  F   F268      1.0  0.50172  0.75423  0.48466  1.0000
  F   F269      1.0  0.74721  0.23242  0.01108  1.0000
  F   F270      1.0  0.74877  0.24419  0.50071  1.0000
  F   F271      1.0  0.75281  0.74036  0.99793  1.0000
  F   F272      1.0  0.75567  0.75226  0.50465  1.0000
  F   F273      1.0  0.13522  0.00619  0.24048  1.0000
  F   F274      1.0  0.12144  0.00829  0.75608  1.0000
  F   F275      1.0  0.12574  0.49024  0.24594  1.0000
  F   F276      1.0  0.11889  0.49841  0.76812  1.0000
  F   F277      1.0  0.36255  0.00402  0.26195  1.0000
  F   F278      1.0  0.37019  0.99003  0.75396  1.0000
  F   F279      1.0  0.36217  0.48343  0.27688  1.0000
  F   F280      1.0  0.37229  0.49809  0.76589  1.0000
  F   F281      1.0  0.62818  0.99833  0.23915  1.0000
  F   F282      1.0  0.62163  0.98933  0.75172  1.0000
  F   F283      1.0  0.62668  0.49191  0.24674  1.0000
  F   F284      1.0  0.63564  0.50379  0.72328  1.0000
  F   F285      1.0  0.87563  0.00386  0.24741  1.0000
  F   F286      1.0  0.87232  0.99573  0.74504  1.0000
  F   F287      1.0  0.86880  0.48458  0.25366  1.0000
  F   F288      1.0  0.87703  0.50269  0.74792  1.0000
  F   F289      1.0  0.04236  0.04077  0.03660  1.0000
  F   F290      1.0  0.04717  0.02301  0.51500  1.0000
  F   F291      1.0  0.05182  0.52054  0.01861  1.0000
  F   F292      1.0  0.05145  0.53563  0.50720  1.0000
  F   F293      1.0  0.28402  0.02967  0.03296  1.0000
  F   F294      1.0  0.28843  0.03366  0.53772  1.0000
  F   F295      1.0  0.29413  0.52707  0.01216  1.0000
  F   F296      1.0  0.29830  0.52684  0.51552  1.0000
  F   F297      1.0  0.54938  0.03821  0.02740  1.0000
  F   F298      1.0  0.53679  0.02587  0.52768  1.0000
  F   F299      1.0  0.54410  0.53081  0.02824  1.0000
  F   F300      1.0  0.53773  0.53460  0.53502  1.0000
  F   F301      1.0  0.78988  0.02891  0.02753  1.0000
  F   F302      1.0  0.78792  0.03525  0.52885  1.0000
  F   F303      1.0  0.79101  0.54461  0.01088  1.0000
  F   F304      1.0  0.79997  0.53597  0.49745  1.0000
  F   F305      1.0  0.23642  0.40012  0.23168  1.0000
  F   F306      1.0  0.24038  0.41748  0.72308  1.0000
  F   F307      1.0  0.23482  0.91123  0.22859  1.0000
  F   F308      1.0  0.23175  0.91136  0.73699  1.0000
  F   F309      1.0  0.48907  0.40381  0.23051  1.0000
  F   F310      1.0  0.48174  0.41622  0.73372  1.0000
  F   F311      1.0  0.48641  0.90802  0.22330  1.0000
  F   F312      1.0  0.48219  0.91885  0.72703  1.0000
  F   F313      1.0  0.73826  0.41236  0.21906  1.0000
  F   F314      1.0  0.73346  0.40870  0.71464  1.0000
  F   F315      1.0  0.73197  0.91768  0.21939  1.0000
  F   F316      1.0  0.72824  0.91603  0.72949  1.0000
  F   F317      1.0  0.98939  0.41648  0.22291  1.0000
  F   F318      1.0  0.98570  0.42198  0.72578  1.0000
  F   F319      1.0  0.98401  0.91950  0.22146  1.0000
  F   F320      1.0  0.98633  0.90010  0.73750  1.0000
  F   F321      1.0  0.21127  0.46975  0.48079  1.0000
  F   F322      1.0  0.20770  0.47267  0.97796  1.0000
  F   F323      1.0  0.21103  0.96224  0.48103  1.0000
  F   F324      1.0  0.20231  0.96771  0.98406  1.0000
  F   F325      1.0  0.44361  0.48140  0.48465  1.0000
  F   F326      1.0  0.45653  0.47037  0.97201  1.0000
  F   F327      1.0  0.46441  0.96556  0.47762  1.0000
  F   F328      1.0  0.45638  0.97548  0.96137  1.0000
  F   F329      1.0  0.69987  0.46940  0.47673  1.0000
  F   F330      1.0  0.70697  0.46025  0.97329  1.0000
  F   F331      1.0  0.70744  0.97164  0.47977  1.0000
  F   F332      1.0  0.70538  0.97646  0.98093  1.0000
  F   F333      1.0  0.94869  0.47138  0.49144  1.0000
  F   F334      1.0  0.96457  0.46596  0.96290  1.0000
  F   F335      1.0  0.96132  0.96616  0.47588  1.0000
  F   F336      1.0  0.95815  0.96355  0.96865  1.0000
  F   F337      1.0  0.00719  0.10251  0.26698  1.0000
  F   F338      1.0  0.02096  0.08158  0.77480  1.0000
  F   F339      1.0  0.01826  0.58318  0.28118  1.0000
  F   F340      1.0  0.01864  0.57205  0.77642  1.0000
  F   F341      1.0  0.26649  0.08867  0.27181  1.0000
  F   F342      1.0  0.26245  0.10253  0.76258  1.0000
  F   F343      1.0  0.26568  0.58807  0.27116  1.0000
  F   F344      1.0  0.26087  0.60829  0.77832  1.0000
  F   F345      1.0  0.51500  0.08383  0.26853  1.0000
  F   F346      1.0  0.50902  0.07776  0.76812  1.0000
  F   F347      1.0  0.51860  0.58797  0.27476  1.0000
  F   F348      1.0  0.51355  0.58284  0.76221  1.0000
  F   F349      1.0  0.76901  0.07307  0.27199  1.0000
  F   F350      1.0  0.76714  0.07535  0.78263  1.0000
  F   F351      1.0  0.76326  0.58126  0.27275  1.0000
  F   F352      1.0  0.77080  0.57335  0.76533  1.0000
  F   F353      1.0  0.09769  0.40025  0.47470  1.0000
  F   F354      1.0  0.11027  0.39251  0.96852  1.0000
  F   F355      1.0  0.09821  0.90779  0.46466  1.0000
  F   F356      1.0  0.09462  0.91100  0.96185  1.0000
  F   F357      1.0  0.35136  0.40760  0.46820  1.0000
  F   F358      1.0  0.35208  0.40551  0.97755  1.0000
  F   F359      1.0  0.35079  0.92292  0.47101  1.0000
  F   F360      1.0  0.34999  0.92121  0.96849  1.0000
  F   F361      1.0  0.60353  0.41491  0.45159  1.0000
  F   F362      1.0  0.60717  0.41274  0.95697  1.0000
  F   F363      1.0  0.59758  0.91420  0.45489  1.0000
  F   F364      1.0  0.59659  0.90413  0.96287  1.0000
  F   F365      1.0  0.85174  0.38795  0.47513  1.0000
  F   F366      1.0  0.84623  0.42231  0.94799  1.0000
  F   F367      1.0  0.84856  0.90665  0.45695  1.0000
  F   F368      1.0  0.85452  0.91805  0.95549  1.0000
  F   F369      1.0  0.05661  0.30006  0.28638  1.0000
  F   F370      1.0  0.03256  0.29136  0.80078  1.0000
  F   F371      1.0  0.04687  0.78071  0.29513  1.0000
  F   F372      1.0  0.05018  0.79757  0.79202  1.0000
  F   F373      1.0  0.29231  0.30460  0.29648  1.0000
  F   F374      1.0  0.28674  0.29659  0.79950  1.0000
  F   F375      1.0  0.29441  0.79239  0.28672  1.0000
  F   F376      1.0  0.30285  0.80322  0.78784  1.0000
  F   F377      1.0  0.55339  0.29681  0.28935  1.0000
  F   F378      1.0  0.54711  0.31267  0.79062  1.0000
  F   F379      1.0  0.54240  0.78896  0.29877  1.0000
  F   F380      1.0  0.54488  0.79772  0.77659  1.0000
  F   F381      1.0  0.80099  0.29608  0.28282  1.0000
  F   F382      1.0  0.79317  0.30745  0.79340  1.0000
  F   F383      1.0  0.79478  0.80996  0.28532  1.0000
  F   F384      1.0  0.79416  0.80537  0.78267  1.0000
