data_image0
_chemical_formula_structural       Hf96F384
_chemical_formula_sum              "Hf96 F384"
_cell_length_a       31.0612
_cell_length_b       15.5227
_cell_length_c       15.5165
_cell_angle_alpha    63.342
_cell_angle_beta     63.342
_cell_angle_gamma    80.1625

_space_group_name_H-M_alt    "P 1"
_space_group_IT_number       1

loop_
  _space_group_symop_operation_xyz
  'x, y, z'

loop_
  _atom_site_type_symbol
  _atom_site_label
  _atom_site_symmetry_multiplicity
  _atom_site_fract_x
  _atom_site_fract_y
  _atom_site_fract_z
  _atom_site_occupancy
  Hf  Hf1       1.0  0.19784  0.11085  0.36761  1.0000
  Hf  Hf2       1.0  0.19373  0.10432  0.88263  1.0000
  Hf  Hf3       1.0  0.19556  0.60059  0.38034  1.0000
  Hf  Hf4       1.0  0.19816  0.60950  0.87806  1.0000
  Hf  Hf5       1.0  0.44602  0.10384  0.37756  1.0000
  Hf  Hf6       1.0  0.45024  0.11297  0.86481  1.0000
  Hf  Hf7       1.0  0.44730  0.60875  0.36712  1.0000
  Hf  Hf8       1.0  0.44386  0.60866  0.87137  1.0000
  Hf  Hf9       1.0  0.69458  0.11031  0.38115  1.0000
  Hf  Hf10      1.0  0.70167  0.10498  0.86573  1.0000
  Hf  Hf11      1.0  0.70078  0.60579  0.36688  1.0000
  Hf  Hf12      1.0  0.69277  0.60438  0.87704  1.0000
  Hf  Hf13      1.0  0.94440  0.10003  0.38175  1.0000
  Hf  Hf14      1.0  0.94453  0.11544  0.87752  1.0000
  Hf  Hf15      1.0  0.94579  0.60908  0.37116  1.0000
  Hf  Hf16      1.0  0.94779  0.61802  0.87098  1.0000
  Hf  Hf17      1.0  0.05217  0.39064  0.13363  1.0000
  Hf  Hf18      1.0  0.05295  0.39728  0.62286  1.0000
  Hf  Hf19      1.0  0.05339  0.90163  0.12531  1.0000
  Hf  Hf20      1.0  0.04790  0.89089  0.64620  1.0000
  Hf  Hf21      1.0  0.30588  0.39345  0.11583  1.0000
  Hf  Hf22      1.0  0.30870  0.38528  0.61889  1.0000
  Hf  Hf23      1.0  0.30490  0.89305  0.12830  1.0000
  Hf  Hf24      1.0  0.30323  0.88516  0.62233  1.0000
  Hf  Hf25      1.0  0.55380  0.38712  0.12277  1.0000
  Hf  Hf26      1.0  0.55458  0.39756  0.61862  1.0000
  Hf  Hf27      1.0  0.55183  0.89126  0.11739  1.0000
  Hf  Hf28      1.0  0.54948  0.87696  0.63667  1.0000
  Hf  Hf29      1.0  0.80403  0.39246  0.12780  1.0000
  Hf  Hf30      1.0  0.80112  0.39277  0.63180  1.0000
  Hf  Hf31      1.0  0.80306  0.89489  0.12192  1.0000
  Hf  Hf32      1.0  0.80689  0.90107  0.62161  1.0000
  Hf  Hf33      1.0  0.05306  0.17715  0.42105  1.0000
  Hf  Hf34      1.0  0.06096  0.19291  0.90792  1.0000
  Hf  Hf35      1.0  0.05672  0.68210  0.41973  1.0000
  Hf  Hf36      1.0  0.05551  0.67704  0.92477  1.0000
  Hf  Hf37      1.0  0.30559  0.18461  0.41226  1.0000
  Hf  Hf38      1.0  0.30801  0.18483  0.91787  1.0000
  Hf  Hf39      1.0  0.30642  0.67509  0.41740  1.0000
  Hf  Hf40      1.0  0.30647  0.69085  0.90937  1.0000
  Hf  Hf41      1.0  0.55468  0.18419  0.41479  1.0000
  Hf  Hf42      1.0  0.55916  0.18257  0.90776  1.0000
  Hf  Hf43      1.0  0.55986  0.69392  0.40517  1.0000
  Hf  Hf44      1.0  0.54919  0.66758  0.92936  1.0000
  Hf  Hf45      1.0  0.80996  0.18831  0.40554  1.0000
  Hf  Hf46      1.0  0.80447  0.19078  0.92131  1.0000
  Hf  Hf47      1.0  0.80295  0.67635  0.42427  1.0000
  Hf  Hf48      1.0  0.80518  0.68615  0.91614  1.0000
  Hf  Hf49      1.0  0.16016  0.38318  0.33277  1.0000
  Hf  Hf50      1.0  0.16277  0.39305  0.83255  1.0000
  Hf  Hf51      1.0  0.16008  0.88512  0.32965  1.0000
  Hf  Hf52      1.0  0.15399  0.89100  0.83747  1.0000
  Hf  Hf53      1.0  0.41084  0.37883  0.32795  1.0000
  Hf  Hf54      1.0  0.41071  0.38541  0.83370  1.0000
  Hf  Hf55      1.0  0.40797  0.89036  0.33514  1.0000
  Hf  Hf56      1.0  0.41164  0.88988  0.82690  1.0000
  Hf  Hf57      1.0  0.66061  0.39166  0.32931  1.0000
  Hf  Hf58      1.0  0.65685  0.38302  0.83809  1.0000
  Hf  Hf59      1.0  0.65922  0.88791  0.33889  1.0000
  Hf  Hf60      1.0  0.65814  0.88367  0.83253  1.0000
  Hf  Hf61      1.0  0.90957  0.38657  0.33957  1.0000
  Hf  Hf62      1.0  0.90398  0.39317  0.83860  1.0000
  Hf  Hf63      1.0  0.90662  0.89031  0.33324  1.0000
  Hf  Hf64      1.0  0.90400  0.88847  0.83824  1.0000
  Hf  Hf65      1.0  0.19230  0.32098  0.08465  1.0000
  Hf  Hf66      1.0  0.19507  0.31935  0.57976  1.0000
  Hf  Hf67      1.0  0.19322  0.82083  0.08675  1.0000
  Hf  Hf68      1.0  0.19375  0.81545  0.58487  1.0000
  Hf  Hf69      1.0  0.44561  0.31256  0.07558  1.0000
  Hf  Hf70      1.0  0.44738  0.31552  0.58036  1.0000
  Hf  Hf71      1.0  0.44454  0.82374  0.07954  1.0000
  Hf  Hf72      1.0  0.44335  0.81203  0.58637  1.0000
  Hf  Hf73      1.0  0.69008  0.30820  0.09310  1.0000
  Hf  Hf74      1.0  0.69547  0.32064  0.57781  1.0000
  Hf  Hf75      1.0  0.69391  0.81861  0.08453  1.0000
  Hf  Hf76      1.0  0.69019  0.81224  0.58952  1.0000
  Hf  Hf77      1.0  0.94144  0.31184  0.09129  1.0000
  Hf  Hf78      1.0  0.94322  0.32406  0.58465  1.0000
  Hf  Hf79      1.0  0.94423  0.82574  0.08006  1.0000
  Hf  Hf80      1.0  0.94685  0.81834  0.58694  1.0000
  Hf  Hf81      1.0  0.09397  0.11664  0.16722  1.0000
  Hf  Hf82      1.0  0.08602  0.10838  0.67770  1.0000
  Hf  Hf83      1.0  0.09202  0.62107  0.16866  1.0000
  Hf  Hf84      1.0  0.09119  0.61292  0.66877  1.0000
  Hf  Hf85      1.0  0.34843  0.10935  0.15250  1.0000
  Hf  Hf86      1.0  0.33967  0.10760  0.66924  1.0000
  Hf  Hf87      1.0  0.33705  0.61290  0.16974  1.0000
  Hf  Hf88      1.0  0.34158  0.60256  0.66431  1.0000
  Hf  Hf89      1.0  0.59139  0.09880  0.16850  1.0000
  Hf  Hf90      1.0  0.59055  0.11253  0.65888  1.0000
  Hf  Hf91      1.0  0.59163  0.60587  0.16297  1.0000
  Hf  Hf92      1.0  0.59246  0.60680  0.67283  1.0000
  Hf  Hf93      1.0  0.83892  0.11496  0.16329  1.0000
  Hf  Hf94      1.0  0.84600  0.11800  0.66489  1.0000
  Hf  Hf95      1.0  0.84207  0.61472  0.16345  1.0000
  Hf  Hf96      1.0  0.83519  0.61188  0.66756  1.0000
  F   F1        1.0  0.07558  0.12171  0.31574  1.0000
  F   F2        1.0  0.07055  0.12743  0.80983  1.0000
  F   F3        1.0  0.07592  0.63358  0.31165  1.0000
  F   F4        1.0  0.08248  0.63965  0.80175  1.0000
  F   F5        1.0  0.33633  0.15538  0.28288  1.0000
  F   F6        1.0  0.32854  0.12857  0.80469  1.0000
  F   F7        1.0  0.32617  0.61702  0.30107  1.0000
  F   F8        1.0  0.32756  0.62584  0.80664  1.0000
  F   F9        1.0  0.57942  0.14093  0.29839  1.0000
  F   F10       1.0  0.58758  0.14751  0.78602  1.0000
  F   F11       1.0  0.58401  0.63402  0.29868  1.0000
  F   F12       1.0  0.58253  0.62536  0.80394  1.0000
  F   F13       1.0  0.82973  0.12676  0.30186  1.0000
  F   F14       1.0  0.83163  0.12796  0.80939  1.0000
  F   F15       1.0  0.82672  0.64291  0.29321  1.0000
  F   F16       1.0  0.82792  0.62591  0.80951  1.0000
  F   F17       1.0  0.18302  0.32539  0.45432  1.0000
  F   F18       1.0  0.19018  0.33695  0.94864  1.0000
  F   F19       1.0  0.18821  0.83564  0.45226  1.0000
  F   F20       1.0  0.17883  0.84213  0.96163  1.0000
  F   F21       1.0  0.44066  0.34043  0.44445  1.0000
  F   F22       1.0  0.44679  0.35834  0.93133  1.0000
  F   F23       1.0  0.43239  0.83736  0.45033  1.0000
  F   F24       1.0  0.43377  0.84281  0.94559  1.0000
  F   F25       1.0  0.69189  0.35370  0.43794  1.0000
  F   F26       1.0  0.67653  0.33042  0.95685  1.0000
  F   F27       1.0  0.68225  0.83556  0.44651  1.0000
  F   F28       1.0  0.68272  0.85777  0.94653  1.0000
  F   F29       1.0  0.93994  0.35238  0.43733  1.0000
  F   F30       1.0  0.92012  0.33506  0.96831  1.0000
  F   F31       1.0  0.93079  0.82640  0.44790  1.0000
  F   F32       1.0  0.92554  0.83333  0.96519  1.0000
  F   F33       1.0  0.16187  0.37365  0.19671  1.0000
  F   F34       1.0  0.17200  0.37597  0.69611  1.0000
  F   F35       1.0  0.17100  0.86955  0.19906  1.0000
  F   F36       1.0  0.15981  0.86915  0.70546  1.0000
  F   F37       1.0  0.41810  0.36370  0.20001  1.0000
  F   F38       1.0  0.41638  0.35267  0.71054  1.0000
  F   F39       1.0  0.42216  0.88685  0.17652  1.0000
  F   F40       1.0  0.42620  0.87086  0.69757  1.0000
  F   F41       1.0  0.66811  0.36000  0.20941  1.0000
  F   F42       1.0  0.66834  0.37154  0.68760  1.0000
  F   F43       1.0  0.67808  0.88605  0.18284  1.0000
  F   F44       1.0  0.66976  0.86744  0.69558  1.0000
  F   F45       1.0  0.92578  0.38055  0.19496  1.0000
  F   F46       1.0  0.91341  0.36959  0.70407  1.0000
  F   F47       1.0  0.92232  0.88272  0.18668  1.0000
  F   F48       1.0  0.91925  0.85214  0.71367  1.0000
  F   F49       1.0  0.07438  0.17344  0.04522  1.0000
  F   F50       1.0  0.06063  0.14704  0.56197  1.0000
  F   F51       1.0  0.06409  0.65700  0.04834  1.0000
  F   F52       1.0  0.06700  0.66311  0.55088  1.0000
  F   F53       1.0  0.30863  0.12984  0.07329  1.0000
  F   F54       1.0  0.31222  0.16206  0.55602  1.0000
  F   F55       1.0  0.30247  0.64254  0.06373  1.0000
  F   F56       1.0  0.31929  0.65539  0.54157  1.0000
  F   F57       1.0  0.55996  0.14015  0.06532  1.0000
  F   F58       1.0  0.56659  0.16563  0.54781  1.0000
  F   F59       1.0  0.56112  0.65382  0.05538  1.0000
  F   F60       1.0  0.57695  0.68239  0.53222  1.0000
  F   F61       1.0  0.80436  0.16522  0.06237  1.0000
  F   F62       1.0  0.82528  0.17586  0.53670  1.0000
  F   F63       1.0  0.81585  0.65296  0.05464  1.0000
  F   F64       1.0  0.79887  0.64655  0.56712  1.0000
  F   F65       1.0  0.20066  0.20563  0.21356  1.0000
  F   F66       1.0  0.20523  0.20000  0.72166  1.0000
  F   F67       1.0  0.19767  0.69566  0.22294  1.0000
  F   F68       1.0  0.20417  0.71004  0.71732  1.0000
  F   F69       1.0  0.45286  0.19592  0.21220  1.0000
  F   F70       1.0  0.46084  0.20162  0.70207  1.0000
  F   F71       1.0  0.45714  0.71468  0.21088  1.0000
  F   F72       1.0  0.45612  0.70730  0.71513  1.0000
  F   F73       1.0  0.69704  0.20012  0.22343  1.0000
  F   F74       1.0  0.71062  0.19692  0.70431  1.0000
  F   F75       1.0  0.70062  0.70868  0.21484  1.0000
  F   F76       1.0  0.69491  0.69298  0.71910  1.0000
  F   F77       1.0  0.95352  0.20354  0.22136  1.0000
  F   F78       1.0  0.94731  0.19603  0.71784  1.0000
  F   F79       1.0  0.95587  0.71365  0.20021  1.0000
  F   F80       1.0  0.96344  0.69647  0.70391  1.0000
  F   F81       1.0  0.15280  0.08090  0.03512  1.0000
  F   F82       1.0  0.14107  0.08887  0.55000  1.0000
  F   F83       1.0  0.15214  0.60636  0.04036  1.0000
  F   F84       1.0  0.15494  0.57657  0.54274  1.0000
  F   F85       1.0  0.40390  0.08840  0.02819  1.0000
  F   F86       1.0  0.39881  0.09293  0.54069  1.0000
  F   F87       1.0  0.39372  0.61469  0.03432  1.0000
  F   F88       1.0  0.40048  0.60714  0.53386  1.0000
  F   F89       1.0  0.64914  0.10746  0.03180  1.0000
  F   F90       1.0  0.65210  0.09472  0.54547  1.0000
  F   F91       1.0  0.65286  0.59753  0.03169  1.0000
  F   F92       1.0  0.65213  0.58337  0.53622  1.0000
  F   F93       1.0  0.89454  0.08944  0.04412  1.0000
  F   F94       1.0  0.90164  0.08799  0.54458  1.0000
  F   F95       1.0  0.89922  0.58686  0.03003  1.0000
  F   F96       1.0  0.89452  0.60717  0.53528  1.0000
  F   F97       1.0  0.15051  0.19692  0.13111  1.0000
  F   F98       1.0  0.14983  0.20998  0.63953  1.0000
  F   F99       1.0  0.14644  0.70579  0.14093  1.0000
  F   F100      1.0  0.14818  0.69009  0.62915  1.0000
  F   F101      1.0  0.40525  0.19653  0.11593  1.0000
  F   F102      1.0  0.40732  0.19988  0.61798  1.0000
  F   F103      1.0  0.39758  0.70465  0.14498  1.0000
  F   F104      1.0  0.40754  0.68779  0.63277  1.0000
  F   F105      1.0  0.64888  0.18881  0.13551  1.0000
  F   F106      1.0  0.64932  0.21187  0.60912  1.0000
  F   F107      1.0  0.65364  0.69796  0.12097  1.0000
  F   F108      1.0  0.64695  0.69881  0.61912  1.0000
  F   F109      1.0  0.90995  0.17500  0.12361  1.0000
  F   F110      1.0  0.90552  0.20632  0.60441  1.0000
  F   F111      1.0  0.89959  0.68603  0.12463  1.0000
  F   F112      1.0  0.90347  0.70087  0.63083  1.0000
  F   F113      1.0  0.10205  0.31094  0.38601  1.0000
  F   F114      1.0  0.10778  0.30263  0.85440  1.0000
  F   F115      1.0  0.10130  0.78963  0.36807  1.0000
  F   F116      1.0  0.09605  0.80266  0.88845  1.0000
  F   F117      1.0  0.34907  0.29799  0.36069  1.0000
  F   F118      1.0  0.35393  0.28823  0.89699  1.0000
  F   F119      1.0  0.35411  0.79730  0.36961  1.0000
  F   F120      1.0  0.35294  0.79413  0.86892  1.0000
  F   F121      1.0  0.59308  0.30105  0.36811  1.0000
  F   F122      1.0  0.59912  0.29959  0.89853  1.0000
  F   F123      1.0  0.60274  0.81589  0.34953  1.0000
  F   F124      1.0  0.59813  0.79170  0.87897  1.0000
  F   F125      1.0  0.85135  0.30479  0.35132  1.0000
  F   F126      1.0  0.84531  0.31273  0.88781  1.0000
  F   F127      1.0  0.84542  0.79304  0.40459  1.0000
  F   F128      1.0  0.84199  0.80816  0.88871  1.0000
  F   F129      1.0  0.06066  0.24096  0.16900  1.0000
  F   F130      1.0  0.06264  0.25000  0.64658  1.0000
  F   F131      1.0  0.07249  0.76527  0.12922  1.0000
  F   F132      1.0  0.06554  0.75986  0.64452  1.0000
  F   F133      1.0  0.31354  0.24345  0.13109  1.0000
  F   F134      1.0  0.32283  0.24419  0.64276  1.0000
  F   F135      1.0  0.31958  0.75248  0.13196  1.0000
  F   F136      1.0  0.31594  0.73697  0.64845  1.0000
  F   F137      1.0  0.56929  0.25741  0.11595  1.0000
  F   F138      1.0  0.55733  0.25066  0.65376  1.0000
  F   F139      1.0  0.56313  0.75258  0.13652  1.0000
  F   F140      1.0  0.55148  0.73077  0.67104  1.0000
  F   F141      1.0  0.83281  0.25550  0.11974  1.0000
  F   F142      1.0  0.81479  0.25056  0.66175  1.0000
  F   F143      1.0  0.80538  0.74810  0.15373  1.0000
  F   F144      1.0  0.81684  0.75906  0.63397  1.0000
  F   F145      1.0  0.12507  0.36625  0.10080  1.0000
  F   F146      1.0  0.12734  0.38104  0.60336  1.0000
  F   F147      1.0  0.12654  0.89225  0.09705  1.0000
  F   F148      1.0  0.12356  0.88370  0.59507  1.0000
  F   F149      1.0  0.37597  0.35210  0.11360  1.0000
  F   F150      1.0  0.37731  0.36076  0.59890  1.0000
  F   F151      1.0  0.37481  0.89371  0.07374  1.0000
  F   F152      1.0  0.36955  0.85571  0.61490  1.0000
  F   F153      1.0  0.61999  0.36456  0.12423  1.0000
  F   F154      1.0  0.63015  0.39374  0.57050  1.0000
  F   F155      1.0  0.62388  0.86605  0.12225  1.0000
  F   F156      1.0  0.62856  0.87587  0.59769  1.0000
  F   F157      1.0  0.87548  0.36003  0.13014  1.0000
  F   F158      1.0  0.87544  0.38425  0.60007  1.0000
  F   F159      1.0  0.86863  0.85337  0.13012  1.0000
  F   F160      1.0  0.87791  0.87218  0.61161  1.0000
  F   F161      1.0  0.17966  0.24919  0.35480  1.0000
  F   F162      1.0  0.18684  0.24495  0.86850  1.0000
  F   F163      1.0  0.18351  0.74319  0.36236  1.0000
  F   F164      1.0  0.18242  0.76418  0.85260  1.0000
  F   F165      1.0  0.43564  0.24588  0.35775  1.0000
  F   F166      1.0  0.43835  0.24517  0.85669  1.0000
  F   F167      1.0  0.43300  0.75351  0.34761  1.0000
  F   F168      1.0  0.43642  0.74729  0.85774  1.0000
  F   F169      1.0  0.67595  0.24424  0.38346  1.0000
  F   F170      1.0  0.69248  0.24826  0.84451  1.0000
  F   F171      1.0  0.69302  0.74675  0.35448  1.0000
  F   F172      1.0  0.69168  0.74785  0.85886  1.0000
  F   F173      1.0  0.93292  0.24710  0.37068  1.0000
  F   F174      1.0  0.93137  0.25665  0.86139  1.0000
  F   F175      1.0  0.93540  0.75764  0.33101  1.0000
  F   F176      1.0  0.93952  0.75303  0.86668  1.0000
  F   F177      1.0  0.12222  0.13602  0.38784  1.0000
  F   F178      1.0  0.13031  0.14391  0.87627  1.0000
  F   F179      1.0  0.12085  0.63053  0.39459  1.0000
  F   F180      1.0  0.12786  0.62317  0.91055  1.0000
  F   F181      1.0  0.37604  0.12734  0.39598  1.0000
  F   F182      1.0  0.37790  0.13643  0.87879  1.0000
  F   F183      1.0  0.37751  0.62087  0.38461  1.0000
  F   F184      1.0  0.37187  0.62269  0.90124  1.0000
  F   F185      1.0  0.62747  0.13611  0.38719  1.0000
  F   F186      1.0  0.62890  0.15170  0.87581  1.0000
  F   F187      1.0  0.62400  0.63141  0.39354  1.0000
  F   F188      1.0  0.62340  0.61526  0.90945  1.0000
  F   F189      1.0  0.87443  0.11014  0.39886  1.0000
  F   F190      1.0  0.87692  0.15182  0.88721  1.0000
  F   F191      1.0  0.87606  0.64275  0.38316  1.0000
  F   F192      1.0  0.88178  0.65147  0.87198  1.0000
  F   F193      1.0  0.00184  0.36120  0.09763  1.0000
  F   F194      1.0  0.00233  0.35778  0.58386  1.0000
  F   F195      1.0  0.01172  0.86175  0.07188  1.0000
  F   F196      1.0  0.00276  0.86627  0.59453  1.0000
  F   F197      1.0  0.25280  0.36126  0.08259  1.0000
  F   F198      1.0  0.25871  0.35299  0.58895  1.0000
  F   F199      1.0  0.25306  0.85868  0.09140  1.0000
  F   F200      1.0  0.25996  0.85131  0.56262  1.0000
  F   F201      1.0  0.50835  0.35920  0.05967  1.0000
  F   F202      1.0  0.50727  0.37862  0.56129  1.0000
  F   F203      1.0  0.50860  0.86192  0.06090  1.0000
  F   F204      1.0  0.50882  0.86734  0.56581  1.0000
  F   F205      1.0  0.75705  0.35785  0.07227  1.0000
  F   F206      1.0  0.75776  0.36730  0.56044  1.0000
  F   F207      1.0  0.75680  0.85689  0.07915  1.0000
  F   F208      1.0  0.75415  0.86122  0.57553  1.0000
  F   F209      1.0  0.07245  0.49817  0.16753  1.0000
  F   F210      1.0  0.07007  0.48973  0.65922  1.0000
  F   F211      1.0  0.06609  0.98635  0.19583  1.0000
  F   F212      1.0  0.06507  0.97188  0.70242  1.0000
  F   F213      1.0  0.31385  0.46921  0.18419  1.0000
  F   F214      1.0  0.32011  0.49097  0.65739  1.0000
  F   F215      1.0  0.32648  0.96980  0.18035  1.0000
  F   F216      1.0  0.32209  0.98787  0.65184  1.0000
  F   F217      1.0  0.57306  0.47940  0.17835  1.0000
  F   F218      1.0  0.57737  0.48354  0.67306  1.0000
  F   F219      1.0  0.57160  0.98000  0.17546  1.0000
  F   F220      1.0  0.57161  0.98252  0.67096  1.0000
  F   F221      1.0  0.82098  0.47824  0.16894  1.0000
  F   F222      1.0  0.80726  0.47657  0.69811  1.0000
  F   F223      1.0  0.81707  0.99121  0.16622  1.0000
  F   F224      1.0  0.81760  0.99298  0.67827  1.0000
  F   F225      1.0  0.23706  0.14220  0.43370  1.0000
  F   F226      1.0  0.24492  0.13043  0.93969  1.0000
  F   F227      1.0  0.24069  0.62547  0.43189  1.0000
  F   F228      1.0  0.24089  0.64763  0.91651  1.0000
  F   F229      1.0  0.48930  0.13366  0.43728  1.0000
  F   F230      1.0  0.50243  0.15697  0.88658  1.0000
  F   F231      1.0  0.49361  0.63621  0.42258  1.0000
  F   F232      1.0  0.48870  0.64145  0.91921  1.0000
  F   F233      1.0  0.74307  0.14032  0.42281  1.0000
  F   F234      1.0  0.74782  0.13918  0.91615  1.0000
  F   F235      1.0  0.74252  0.63016  0.43335  1.0000
  F   F236      1.0  0.74689  0.63332  0.92203  1.0000
  F   F237      1.0  0.98788  0.13223  0.44207  1.0000
  F   F238      1.0  0.99132  0.14216  0.92163  1.0000
  F   F239      1.0  0.98956  0.64258  0.42991  1.0000
  F   F240      1.0  0.99493  0.64074  0.91918  1.0000
  F   F241      1.0  0.18138  0.01126  0.34153  1.0000
  F   F242      1.0  0.18732  0.00587  0.83082  1.0000
  F   F243      1.0  0.17473  0.50410  0.33716  1.0000
  F   F244      1.0  0.18625  0.52601  0.81821  1.0000
  F   F245      1.0  0.43012  0.01850  0.32030  1.0000
  F   F246      1.0  0.42818  0.01626  0.81627  1.0000
  F   F247      1.0  0.44037  0.50695  0.31972  1.0000
  F   F248      1.0  0.43164  0.51261  0.81362  1.0000
  F   F249      1.0  0.67273  0.01517  0.33797  1.0000
  F   F250      1.0  0.67908  0.01669  0.83452  1.0000
  F   F251      1.0  0.67891  0.51381  0.32880  1.0000
  F   F252      1.0  0.68365  0.50467  0.83049  1.0000
  F   F253      1.0  0.93393  0.00791  0.32672  1.0000
  F   F254      1.0  0.92316  0.01184  0.84905  1.0000
  F   F255      1.0  0.93413  0.52297  0.30791  1.0000
  F   F256      1.0  0.93227  0.51349  0.84076  1.0000
  F   F257      1.0  0.00736  0.26541  0.99825  1.0000
  F   F258      1.0  0.00051  0.27117  0.48899  1.0000
  F   F259      1.0  0.00190  0.76182  0.99599  1.0000
  F   F260      1.0  0.00508  0.77377  0.49112  1.0000
  F   F261      1.0  0.25898  0.25303  0.99270  1.0000
  F   F262      1.0  0.25460  0.27027  0.48475  1.0000
  F   F263      1.0  0.24725  0.74926  0.99847  1.0000
  F   F264      1.0  0.24584  0.72967  0.50879  1.0000
  F   F265      1.0  0.49869  0.22889  0.00687  1.0000
  F   F266      1.0  0.50137  0.25293  0.49673  1.0000
  F   F267      1.0  0.49540  0.73778  0.01522  1.0000
  F   F268      1.0  0.50546  0.73891  0.50245  1.0000
  F   F269      1.0  0.74303  0.23115  0.01845  1.0000
  F   F270      1.0  0.75845  0.24780  0.50057  1.0000
  F   F271      1.0  0.75194  0.74532  0.00318  1.0000
  F   F272      1.0  0.74373  0.73977  0.50853  1.0000
  F   F273      1.0  0.13085  0.99924  0.24219  1.0000
  F   F274      1.0  0.12829  0.01854  0.74530  1.0000
  F   F275      1.0  0.12606  0.49740  0.25889  1.0000
  F   F276      1.0  0.12388  0.50314  0.75762  1.0000
  F   F277      1.0  0.37551  0.00393  0.24594  1.0000
  F   F278      1.0  0.36218  0.98067  0.76180  1.0000
  F   F279      1.0  0.37394  0.50534  0.23271  1.0000
  F   F280      1.0  0.37058  0.48523  0.75507  1.0000
  F   F281      1.0  0.62069  0.99201  0.25917  1.0000
  F   F282      1.0  0.62542  0.99966  0.75560  1.0000
  F   F283      1.0  0.62752  0.49202  0.24244  1.0000
  F   F284      1.0  0.63034  0.51088  0.74722  1.0000
  F   F285      1.0  0.86161  0.99282  0.26730  1.0000
  F   F286      1.0  0.88586  0.01069  0.74297  1.0000
  F   F287      1.0  0.86502  0.49877  0.27100  1.0000
  F   F288      1.0  0.87557  0.51034  0.73529  1.0000
  F   F289      1.0  0.04216  0.04658  0.02363  1.0000
  F   F290      1.0  0.04460  0.01753  0.52713  1.0000
  F   F291      1.0  0.04512  0.52239  0.02640  1.0000
  F   F292      1.0  0.04065  0.53478  0.52110  1.0000
  F   F293      1.0  0.30171  0.01448  0.01500  1.0000
  F   F294      1.0  0.29139  0.02365  0.51501  1.0000
  F   F295      1.0  0.30002  0.52533  0.00267  1.0000
  F   F296      1.0  0.29648  0.52067  0.50904  1.0000
  F   F297      1.0  0.54228  0.02960  0.01596  1.0000
  F   F298      1.0  0.55591  0.02220  0.51302  1.0000
  F   F299      1.0  0.53751  0.53164  0.02153  1.0000
  F   F300      1.0  0.54509  0.52979  0.52581  1.0000
  F   F301      1.0  0.79469  0.03414  0.02426  1.0000
  F   F302      1.0  0.78861  0.04185  0.52834  1.0000
  F   F303      1.0  0.78731  0.53222  0.03808  1.0000
  F   F304      1.0  0.80332  0.52276  0.50522  1.0000
  F   F305      1.0  0.23559  0.42358  0.21373  1.0000
  F   F306      1.0  0.23345  0.41396  0.74420  1.0000
  F   F307      1.0  0.23759  0.92018  0.23622  1.0000
  F   F308      1.0  0.23584  0.91577  0.71185  1.0000
  F   F309      1.0  0.48062  0.42361  0.19880  1.0000
  F   F310      1.0  0.48432  0.42130  0.71624  1.0000
  F   F311      1.0  0.48557  0.92174  0.22187  1.0000
  F   F312      1.0  0.48738  0.92349  0.71731  1.0000
  F   F313      1.0  0.73186  0.39324  0.23180  1.0000
  F   F314      1.0  0.72878  0.41908  0.72056  1.0000
  F   F315      1.0  0.73636  0.91897  0.23166  1.0000
  F   F316      1.0  0.73212  0.91500  0.73115  1.0000
  F   F317      1.0  0.98910  0.40594  0.24111  1.0000
  F   F318      1.0  0.97952  0.41646  0.72998  1.0000
  F   F319      1.0  0.98484  0.91377  0.22427  1.0000
  F   F320      1.0  0.97951  0.91926  0.74142  1.0000
  F   F321      1.0  0.21080  0.46766  0.46853  1.0000
  F   F322      1.0  0.20451  0.47140  0.98184  1.0000
  F   F323      1.0  0.21120  0.97007  0.47571  1.0000
  F   F324      1.0  0.21766  0.95869  0.97948  1.0000
  F   F325      1.0  0.44782  0.47269  0.48939  1.0000
  F   F326      1.0  0.45374  0.48039  0.96968  1.0000
  F   F327      1.0  0.45913  0.97204  0.47120  1.0000
  F   F328      1.0  0.46017  0.97245  0.96450  1.0000
  F   F329      1.0  0.71515  0.48155  0.45731  1.0000
  F   F330      1.0  0.70617  0.46670  0.97371  1.0000
  F   F331      1.0  0.70361  0.97051  0.48034  1.0000
  F   F332      1.0  0.71075  0.97696  0.98474  1.0000
  F   F333      1.0  0.95494  0.47845  0.47054  1.0000
  F   F334      1.0  0.96054  0.46527  0.97450  1.0000
  F   F335      1.0  0.96028  0.96856  0.47903  1.0000
  F   F336      1.0  0.95541  0.96156  0.98300  1.0000
  F   F337      1.0  0.01485  0.08004  0.28384  1.0000
  F   F338      1.0  0.00961  0.09378  0.76894  1.0000
  F   F339      1.0  0.01515  0.61221  0.26219  1.0000
  F   F340      1.0  0.02246  0.58135  0.76642  1.0000
  F   F341      1.0  0.26452  0.09795  0.26705  1.0000
  F   F342      1.0  0.26280  0.07083  0.78693  1.0000
  F   F343      1.0  0.26200  0.58516  0.27378  1.0000
  F   F344      1.0  0.26900  0.57233  0.76857  1.0000
  F   F345      1.0  0.51601  0.09271  0.27819  1.0000
  F   F346      1.0  0.51704  0.08427  0.76421  1.0000
  F   F347      1.0  0.51958  0.58612  0.26516  1.0000
  F   F348      1.0  0.51714  0.57085  0.77462  1.0000
  F   F349      1.0  0.76261  0.09863  0.27440  1.0000
  F   F350      1.0  0.76823  0.08958  0.76510  1.0000
  F   F351      1.0  0.76630  0.58503  0.26259  1.0000
  F   F352      1.0  0.76394  0.60079  0.76197  1.0000
  F   F353      1.0  0.09587  0.40823  0.47597  1.0000
  F   F354      1.0  0.09903  0.39781  0.97045  1.0000
  F   F355      1.0  0.10383  0.89190  0.45316  1.0000
  F   F356      1.0  0.09925  0.91844  0.95643  1.0000
  F   F357      1.0  0.35370  0.38878  0.45407  1.0000
  F   F358      1.0  0.35698  0.40232  0.96423  1.0000
  F   F359      1.0  0.35068  0.91624  0.45474  1.0000
  F   F360      1.0  0.35064  0.89027  0.94884  1.0000
  F   F361      1.0  0.59949  0.39629  0.45782  1.0000
  F   F362      1.0  0.59638  0.42720  0.95520  1.0000
  F   F363      1.0  0.59596  0.87826  0.47162  1.0000
  F   F364      1.0  0.60085  0.91405  0.96208  1.0000
  F   F365      1.0  0.85950  0.39659  0.46344  1.0000
  F   F366      1.0  0.84592  0.43046  0.95948  1.0000
  F   F367      1.0  0.84719  0.91896  0.47382  1.0000
  F   F368      1.0  0.84796  0.90506  0.97022  1.0000
  F   F369      1.0  0.05176  0.30097  0.29949  1.0000
  F   F370      1.0  0.04476  0.30454  0.78866  1.0000
  F   F371      1.0  0.05180  0.81185  0.27034  1.0000
  F   F372      1.0  0.05006  0.79420  0.79605  1.0000
  F   F373      1.0  0.29452  0.29890  0.28280  1.0000
  F   F374      1.0  0.30510  0.30734  0.78101  1.0000
  F   F375      1.0  0.30330  0.79021  0.28528  1.0000
  F   F376      1.0  0.29383  0.80662  0.78870  1.0000
  F   F377      1.0  0.54086  0.29380  0.28262  1.0000
  F   F378      1.0  0.55968  0.31377  0.78042  1.0000
  F   F379      1.0  0.54130  0.79743  0.28212  1.0000
  F   F380      1.0  0.54343  0.79355  0.79822  1.0000
  F   F381      1.0  0.78950  0.29875  0.28624  1.0000
  F   F382      1.0  0.79817  0.30731  0.79938  1.0000
  F   F383      1.0  0.80337  0.80102  0.30025  1.0000
  F   F384      1.0  0.79864  0.80269  0.78875  1.0000
