data_image0
_chemical_formula_structural       Hf96F384
_chemical_formula_sum              "Hf96 F384"
_cell_length_a       31.0138
_cell_length_b       15.5084
_cell_length_c       15.5025
_cell_angle_alpha    63.342
_cell_angle_beta     63.342
_cell_angle_gamma    80.1625

_space_group_name_H-M_alt    "P 1"
_space_group_IT_number       1

loop_
  _space_group_symop_operation_xyz
  'x, y, z'

loop_
  _atom_site_type_symbol
  _atom_site_label
  _atom_site_symmetry_multiplicity
  _atom_site_fract_x
  _atom_site_fract_y
  _atom_site_fract_z
  _atom_site_occupancy
  Hf  Hf1       1.0  0.19657  0.10664  0.37231  1.0000
  Hf  Hf2       1.0  0.19904  0.11276  0.87182  1.0000
  Hf  Hf3       1.0  0.19884  0.61237  0.36486  1.0000
  Hf  Hf4       1.0  0.19213  0.60603  0.88255  1.0000
  Hf  Hf5       1.0  0.44669  0.10204  0.37248  1.0000
  Hf  Hf6       1.0  0.44979  0.10983  0.86584  1.0000
  Hf  Hf7       1.0  0.44680  0.60848  0.37179  1.0000
  Hf  Hf8       1.0  0.44735  0.61437  0.87109  1.0000
  Hf  Hf9       1.0  0.70046  0.10234  0.36643  1.0000
  Hf  Hf10      1.0  0.69449  0.10064  0.87825  1.0000
  Hf  Hf11      1.0  0.69463  0.60110  0.38116  1.0000
  Hf  Hf12      1.0  0.69724  0.60215  0.87300  1.0000
  Hf  Hf13      1.0  0.94721  0.10898  0.37124  1.0000
  Hf  Hf14      1.0  0.94814  0.11788  0.86824  1.0000
  Hf  Hf15      1.0  0.94387  0.60613  0.38019  1.0000
  Hf  Hf16      1.0  0.94835  0.61512  0.87050  1.0000
  Hf  Hf17      1.0  0.05473  0.39873  0.12252  1.0000
  Hf  Hf18      1.0  0.05490  0.38764  0.62740  1.0000
  Hf  Hf19      1.0  0.05097  0.89670  0.13280  1.0000
  Hf  Hf20      1.0  0.04936  0.89262  0.62679  1.0000
  Hf  Hf21      1.0  0.30564  0.38836  0.13454  1.0000
  Hf  Hf22      1.0  0.30418  0.39341  0.62827  1.0000
  Hf  Hf23      1.0  0.30494  0.89431  0.11775  1.0000
  Hf  Hf24      1.0  0.30546  0.89057  0.62623  1.0000
  Hf  Hf25      1.0  0.55246  0.39203  0.12812  1.0000
  Hf  Hf26      1.0  0.55534  0.38559  0.62463  1.0000
  Hf  Hf27      1.0  0.55433  0.89396  0.12247  1.0000
  Hf  Hf28      1.0  0.55382  0.88673  0.62821  1.0000
  Hf  Hf29      1.0  0.80269  0.39317  0.12747  1.0000
  Hf  Hf30      1.0  0.80309  0.39160  0.63190  1.0000
  Hf  Hf31      1.0  0.80115  0.89323  0.12864  1.0000
  Hf  Hf32      1.0  0.80180  0.89232  0.62030  1.0000
  Hf  Hf33      1.0  0.05701  0.18201  0.41110  1.0000
  Hf  Hf34      1.0  0.05960  0.18101  0.91275  1.0000
  Hf  Hf35      1.0  0.05352  0.68156  0.41414  1.0000
  Hf  Hf36      1.0  0.05797  0.69426  0.91259  1.0000
  Hf  Hf37      1.0  0.30585  0.18102  0.41823  1.0000
  Hf  Hf38      1.0  0.30481  0.18147  0.92036  1.0000
  Hf  Hf39      1.0  0.30586  0.68112  0.41527  1.0000
  Hf  Hf40      1.0  0.30668  0.67596  0.91690  1.0000
  Hf  Hf41      1.0  0.55308  0.17739  0.42245  1.0000
  Hf  Hf42      1.0  0.55420  0.17635  0.91489  1.0000
  Hf  Hf43      1.0  0.55551  0.68622  0.41384  1.0000
  Hf  Hf44      1.0  0.55604  0.67565  0.92330  1.0000
  Hf  Hf45      1.0  0.80376  0.17865  0.42060  1.0000
  Hf  Hf46      1.0  0.80684  0.18799  0.91756  1.0000
  Hf  Hf47      1.0  0.80390  0.68212  0.41902  1.0000
  Hf  Hf48      1.0  0.80286  0.68366  0.91762  1.0000
  Hf  Hf49      1.0  0.15628  0.39061  0.33399  1.0000
  Hf  Hf50      1.0  0.15766  0.39370  0.82768  1.0000
  Hf  Hf51      1.0  0.15727  0.88949  0.33752  1.0000
  Hf  Hf52      1.0  0.15863  0.89465  0.82804  1.0000
  Hf  Hf53      1.0  0.40546  0.38748  0.33208  1.0000
  Hf  Hf54      1.0  0.40784  0.38941  0.83304  1.0000
  Hf  Hf55      1.0  0.40713  0.88329  0.33372  1.0000
  Hf  Hf56      1.0  0.40768  0.89382  0.82621  1.0000
  Hf  Hf57      1.0  0.65724  0.37879  0.34186  1.0000
  Hf  Hf58      1.0  0.65973  0.38743  0.83328  1.0000
  Hf  Hf59      1.0  0.66020  0.88462  0.33517  1.0000
  Hf  Hf60      1.0  0.65964  0.88337  0.83977  1.0000
  Hf  Hf61      1.0  0.90735  0.38678  0.33647  1.0000
  Hf  Hf62      1.0  0.90755  0.39311  0.83286  1.0000
  Hf  Hf63      1.0  0.90670  0.88060  0.33818  1.0000
  Hf  Hf64      1.0  0.90650  0.88898  0.84180  1.0000
  Hf  Hf65      1.0  0.19450  0.32390  0.08142  1.0000
  Hf  Hf66      1.0  0.19601  0.31834  0.58054  1.0000
  Hf  Hf67      1.0  0.19633  0.82138  0.07616  1.0000
  Hf  Hf68      1.0  0.19082  0.81889  0.58698  1.0000
  Hf  Hf69      1.0  0.44580  0.31705  0.08389  1.0000
  Hf  Hf70      1.0  0.44354  0.32582  0.57701  1.0000
  Hf  Hf71      1.0  0.44484  0.82076  0.07702  1.0000
  Hf  Hf72      1.0  0.44442  0.82255  0.57667  1.0000
  Hf  Hf73      1.0  0.69062  0.31773  0.08619  1.0000
  Hf  Hf74      1.0  0.69254  0.31884  0.58699  1.0000
  Hf  Hf75      1.0  0.69215  0.81140  0.09121  1.0000
  Hf  Hf76      1.0  0.69189  0.80880  0.59079  1.0000
  Hf  Hf77      1.0  0.95101  0.32425  0.06423  1.0000
  Hf  Hf78      1.0  0.93944  0.31593  0.58898  1.0000
  Hf  Hf79      1.0  0.94122  0.81633  0.09621  1.0000
  Hf  Hf80      1.0  0.94230  0.81639  0.58633  1.0000
  Hf  Hf81      1.0  0.09759  0.11427  0.16056  1.0000
  Hf  Hf82      1.0  0.09313  0.11626  0.65845  1.0000
  Hf  Hf83      1.0  0.09029  0.62003  0.16350  1.0000
  Hf  Hf84      1.0  0.09540  0.61679  0.65757  1.0000
  Hf  Hf85      1.0  0.34140  0.10356  0.17216  1.0000
  Hf  Hf86      1.0  0.34281  0.11418  0.66339  1.0000
  Hf  Hf87      1.0  0.34561  0.61991  0.15623  1.0000
  Hf  Hf88      1.0  0.33995  0.60990  0.67140  1.0000
  Hf  Hf89      1.0  0.59146  0.10936  0.16773  1.0000
  Hf  Hf90      1.0  0.59189  0.10814  0.66071  1.0000
  Hf  Hf91      1.0  0.59623  0.60824  0.15881  1.0000
  Hf  Hf92      1.0  0.58898  0.60495  0.67356  1.0000
  Hf  Hf93      1.0  0.84470  0.11423  0.16071  1.0000
  Hf  Hf94      1.0  0.83838  0.10724  0.67683  1.0000
  Hf  Hf95      1.0  0.84200  0.61085  0.17032  1.0000
  Hf  Hf96      1.0  0.84197  0.61067  0.66297  1.0000
  F   F1        1.0  0.08181  0.14178  0.28937  1.0000
  F   F2        1.0  0.07855  0.12381  0.80643  1.0000
  F   F3        1.0  0.08266  0.64630  0.29482  1.0000
  F   F4        1.0  0.08194  0.64877  0.78934  1.0000
  F   F5        1.0  0.33655  0.11301  0.30928  1.0000
  F   F6        1.0  0.32597  0.12757  0.80045  1.0000
  F   F7        1.0  0.33273  0.63234  0.29814  1.0000
  F   F8        1.0  0.32668  0.61242  0.81968  1.0000
  F   F9        1.0  0.57926  0.13275  0.29854  1.0000
  F   F10       1.0  0.58649  0.14008  0.78888  1.0000
  F   F11       1.0  0.58322  0.64512  0.29544  1.0000
  F   F12       1.0  0.57804  0.60638  0.81385  1.0000
  F   F13       1.0  0.83515  0.14520  0.29408  1.0000
  F   F14       1.0  0.82981  0.13805  0.80178  1.0000
  F   F15       1.0  0.82179  0.61785  0.31325  1.0000
  F   F16       1.0  0.83242  0.62999  0.79890  1.0000
  F   F17       1.0  0.17702  0.33653  0.45756  1.0000
  F   F18       1.0  0.18333  0.34808  0.94559  1.0000
  F   F19       1.0  0.17920  0.83123  0.45632  1.0000
  F   F20       1.0  0.18334  0.84982  0.94954  1.0000
  F   F21       1.0  0.43931  0.34042  0.43879  1.0000
  F   F22       1.0  0.43978  0.35369  0.93764  1.0000
  F   F23       1.0  0.43721  0.84846  0.44663  1.0000
  F   F24       1.0  0.43682  0.85469  0.93539  1.0000
  F   F25       1.0  0.68764  0.33493  0.44290  1.0000
  F   F26       1.0  0.68156  0.33993  0.95612  1.0000
  F   F27       1.0  0.68640  0.84500  0.44989  1.0000
  F   F28       1.0  0.68092  0.83441  0.95811  1.0000
  F   F29       1.0  0.94019  0.35529  0.44198  1.0000
  F   F30       1.0  0.93746  0.34345  0.93695  1.0000
  F   F31       1.0  0.92971  0.84703  0.45213  1.0000
  F   F32       1.0  0.93840  0.82526  0.96073  1.0000
  F   F33       1.0  0.17007  0.36647  0.20469  1.0000
  F   F34       1.0  0.17683  0.39380  0.68444  1.0000
  F   F35       1.0  0.17690  0.87566  0.19288  1.0000
  F   F36       1.0  0.17098  0.86401  0.70087  1.0000
  F   F37       1.0  0.41830  0.36576  0.20024  1.0000
  F   F38       1.0  0.41315  0.37220  0.70446  1.0000
  F   F39       1.0  0.42326  0.85950  0.20402  1.0000
  F   F40       1.0  0.42131  0.86820  0.69418  1.0000
  F   F41       1.0  0.66242  0.36513  0.21080  1.0000
  F   F42       1.0  0.67727  0.38563  0.68645  1.0000
  F   F43       1.0  0.67032  0.87708  0.19185  1.0000
  F   F44       1.0  0.66832  0.86428  0.70266  1.0000
  F   F45       1.0  0.92127  0.35452  0.20183  1.0000
  F   F46       1.0  0.91464  0.35974  0.70942  1.0000
  F   F47       1.0  0.92540  0.87166  0.19629  1.0000
  F   F48       1.0  0.92047  0.86274  0.70046  1.0000
  F   F49       1.0  0.07016  0.15844  0.05094  1.0000
  F   F50       1.0  0.06459  0.16380  0.54436  1.0000
  F   F51       1.0  0.06296  0.66570  0.05487  1.0000
  F   F52       1.0  0.06643  0.66635  0.54880  1.0000
  F   F53       1.0  0.30540  0.16518  0.05279  1.0000
  F   F54       1.0  0.31020  0.14889  0.55929  1.0000
  F   F55       1.0  0.31278  0.65339  0.05781  1.0000
  F   F56       1.0  0.30792  0.65721  0.56119  1.0000
  F   F57       1.0  0.56651  0.15797  0.04904  1.0000
  F   F58       1.0  0.55751  0.14330  0.56896  1.0000
  F   F59       1.0  0.56013  0.64872  0.06002  1.0000
  F   F60       1.0  0.56463  0.66410  0.55257  1.0000
  F   F61       1.0  0.81085  0.15458  0.06337  1.0000
  F   F62       1.0  0.80817  0.14303  0.56263  1.0000
  F   F63       1.0  0.81375  0.66549  0.05980  1.0000
  F   F64       1.0  0.81689  0.66221  0.55468  1.0000
  F   F65       1.0  0.21129  0.19548  0.21033  1.0000
  F   F66       1.0  0.20573  0.20937  0.71092  1.0000
  F   F67       1.0  0.19989  0.70505  0.20482  1.0000
  F   F68       1.0  0.19979  0.70410  0.71504  1.0000
  F   F69       1.0  0.45408  0.20182  0.22085  1.0000
  F   F70       1.0  0.45903  0.21081  0.71240  1.0000
  F   F71       1.0  0.45090  0.68813  0.22338  1.0000
  F   F72       1.0  0.46246  0.70199  0.69278  1.0000
  F   F73       1.0  0.70877  0.20259  0.20948  1.0000
  F   F74       1.0  0.69739  0.19945  0.72089  1.0000
  F   F75       1.0  0.70216  0.70198  0.21939  1.0000
  F   F76       1.0  0.70080  0.69487  0.72059  1.0000
  F   F77       1.0  0.96338  0.19848  0.21387  1.0000
  F   F78       1.0  0.95682  0.20397  0.70889  1.0000
  F   F79       1.0  0.96278  0.69840  0.20195  1.0000
  F   F80       1.0  0.95426  0.70123  0.70520  1.0000
  F   F81       1.0  0.15401  0.09449  0.03382  1.0000
  F   F82       1.0  0.15102  0.08559  0.53535  1.0000
  F   F83       1.0  0.14790  0.58793  0.03521  1.0000
  F   F84       1.0  0.15381  0.59638  0.53620  1.0000
  F   F85       1.0  0.39849  0.10788  0.04192  1.0000
  F   F86       1.0  0.40503  0.08202  0.54420  1.0000
  F   F87       1.0  0.39857  0.57337  0.03340  1.0000
  F   F88       1.0  0.39660  0.59113  0.55088  1.0000
  F   F89       1.0  0.65398  0.08526  0.04071  1.0000
  F   F90       1.0  0.64390  0.08601  0.53542  1.0000
  F   F91       1.0  0.64662  0.58904  0.03054  1.0000
  F   F92       1.0  0.64862  0.59340  0.54758  1.0000
  F   F93       1.0  0.89581  0.10790  0.03223  1.0000
  F   F94       1.0  0.89597  0.10787  0.54849  1.0000
  F   F95       1.0  0.90152  0.58675  0.03465  1.0000
  F   F96       1.0  0.89556  0.58633  0.52836  1.0000
  F   F97       1.0  0.15710  0.19448  0.12473  1.0000
  F   F98       1.0  0.15626  0.17707  0.62726  1.0000
  F   F99       1.0  0.14908  0.69424  0.11949  1.0000
  F   F100      1.0  0.15417  0.69002  0.62284  1.0000
  F   F101      1.0  0.40120  0.20287  0.13506  1.0000
  F   F102      1.0  0.39822  0.20939  0.63010  1.0000
  F   F103      1.0  0.40746  0.69085  0.10872  1.0000
  F   F104      1.0  0.39626  0.70501  0.62767  1.0000
  F   F105      1.0  0.65008  0.20365  0.13267  1.0000
  F   F106      1.0  0.65350  0.19205  0.61269  1.0000
  F   F107      1.0  0.65543  0.67941  0.12425  1.0000
  F   F108      1.0  0.64724  0.69327  0.64536  1.0000
  F   F109      1.0  0.90695  0.20131  0.11386  1.0000
  F   F110      1.0  0.90123  0.19904  0.63146  1.0000
  F   F111      1.0  0.89926  0.69414  0.14108  1.0000
  F   F112      1.0  0.90344  0.70287  0.61696  1.0000
  F   F113      1.0  0.09389  0.31095  0.37716  1.0000
  F   F114      1.0  0.09709  0.30601  0.86388  1.0000
  F   F115      1.0  0.09779  0.81379  0.36752  1.0000
  F   F116      1.0  0.09993  0.80784  0.87526  1.0000
  F   F117      1.0  0.34099  0.29980  0.38306  1.0000
  F   F118      1.0  0.34719  0.29995  0.88235  1.0000
  F   F119      1.0  0.34786  0.79162  0.38234  1.0000
  F   F120      1.0  0.35041  0.80664  0.88667  1.0000
  F   F121      1.0  0.59546  0.28061  0.40797  1.0000
  F   F122      1.0  0.60157  0.29574  0.85081  1.0000
  F   F123      1.0  0.59913  0.81240  0.36782  1.0000
  F   F124      1.0  0.60016  0.80731  0.88736  1.0000
  F   F125      1.0  0.84710  0.29805  0.37614  1.0000
  F   F126      1.0  0.84885  0.30399  0.88157  1.0000
  F   F127      1.0  0.84881  0.80614  0.38286  1.0000
  F   F128      1.0  0.85040  0.80180  0.88431  1.0000
  F   F129      1.0  0.07298  0.26454  0.12568  1.0000
  F   F130      1.0  0.07641  0.25266  0.63002  1.0000
  F   F131      1.0  0.05849  0.75690  0.15196  1.0000
  F   F132      1.0  0.06794  0.75533  0.63835  1.0000
  F   F133      1.0  0.31424  0.24202  0.14639  1.0000
  F   F134      1.0  0.31840  0.24974  0.62917  1.0000
  F   F135      1.0  0.32669  0.75957  0.11773  1.0000
  F   F136      1.0  0.30862  0.74620  0.65573  1.0000
  F   F137      1.0  0.56789  0.25145  0.14408  1.0000
  F   F138      1.0  0.56735  0.25061  0.63125  1.0000
  F   F139      1.0  0.56751  0.75367  0.13913  1.0000
  F   F140      1.0  0.56226  0.74085  0.65302  1.0000
  F   F141      1.0  0.81224  0.25705  0.14055  1.0000
  F   F142      1.0  0.81293  0.25046  0.64087  1.0000
  F   F143      1.0  0.81234  0.75451  0.15174  1.0000
  F   F144      1.0  0.81220  0.74387  0.65382  1.0000
  F   F145      1.0  0.12443  0.36650  0.10971  1.0000
  F   F146      1.0  0.12381  0.34621  0.62995  1.0000
  F   F147      1.0  0.12528  0.86021  0.12097  1.0000
  F   F148      1.0  0.12032  0.86714  0.62565  1.0000
  F   F149      1.0  0.37749  0.37856  0.10190  1.0000
  F   F150      1.0  0.37844  0.39310  0.58880  1.0000
  F   F151      1.0  0.37765  0.87580  0.10828  1.0000
  F   F152      1.0  0.37784  0.88333  0.59083  1.0000
  F   F153      1.0  0.62506  0.38470  0.10186  1.0000
  F   F154      1.0  0.62486  0.36008  0.61929  1.0000
  F   F155      1.0  0.62416  0.84374  0.12515  1.0000
  F   F156      1.0  0.62594  0.86588  0.60284  1.0000
  F   F157      1.0  0.87877  0.36424  0.10247  1.0000
  F   F158      1.0  0.87509  0.37803  0.59141  1.0000
  F   F159      1.0  0.86950  0.85107  0.13813  1.0000
  F   F160      1.0  0.87422  0.87491  0.60657  1.0000
  F   F161      1.0  0.17764  0.24936  0.36524  1.0000
  F   F162      1.0  0.18137  0.24981  0.86668  1.0000
  F   F163      1.0  0.18061  0.74227  0.36709  1.0000
  F   F164      1.0  0.18363  0.74743  0.86484  1.0000
  F   F165      1.0  0.43004  0.24861  0.36475  1.0000
  F   F166      1.0  0.43319  0.25209  0.86561  1.0000
  F   F167      1.0  0.43190  0.74719  0.36654  1.0000
  F   F168      1.0  0.43738  0.74925  0.85813  1.0000
  F   F169      1.0  0.68050  0.24417  0.36198  1.0000
  F   F170      1.0  0.68802  0.25147  0.84789  1.0000
  F   F171      1.0  0.68326  0.74371  0.36557  1.0000
  F   F172      1.0  0.68335  0.73912  0.85891  1.0000
  F   F173      1.0  0.93513  0.24511  0.36412  1.0000
  F   F174      1.0  0.93617  0.25544  0.85392  1.0000
  F   F175      1.0  0.93917  0.74448  0.35661  1.0000
  F   F176      1.0  0.94143  0.75351  0.84804  1.0000
  F   F177      1.0  0.12840  0.13745  0.37977  1.0000
  F   F178      1.0  0.12869  0.12695  0.88863  1.0000
  F   F179      1.0  0.13340  0.62300  0.37852  1.0000
  F   F180      1.0  0.12293  0.63686  0.90024  1.0000
  F   F181      1.0  0.37498  0.11735  0.40985  1.0000
  F   F182      1.0  0.37457  0.13037  0.88883  1.0000
  F   F183      1.0  0.37594  0.62835  0.40707  1.0000
  F   F184      1.0  0.38060  0.63856  0.87014  1.0000
  F   F185      1.0  0.62693  0.12470  0.38342  1.0000
  F   F186      1.0  0.62494  0.10746  0.91007  1.0000
  F   F187      1.0  0.62886  0.63964  0.39480  1.0000
  F   F188      1.0  0.62410  0.62355  0.88770  1.0000
  F   F189      1.0  0.87179  0.10923  0.41391  1.0000
  F   F190      1.0  0.87642  0.13537  0.88952  1.0000
  F   F191      1.0  0.87410  0.65008  0.37463  1.0000
  F   F192      1.0  0.87656  0.64254  0.89262  1.0000
  F   F193      1.0  0.01099  0.36635  0.06852  1.0000
  F   F194      1.0  0.01153  0.36220  0.57757  1.0000
  F   F195      1.0  0.00789  0.87521  0.07682  1.0000
  F   F196      1.0  0.00634  0.85693  0.58204  1.0000
  F   F197      1.0  0.25973  0.36043  0.08376  1.0000
  F   F198      1.0  0.25702  0.34744  0.57810  1.0000
  F   F199      1.0  0.26014  0.86433  0.06180  1.0000
  F   F200      1.0  0.25484  0.86254  0.57536  1.0000
  F   F201      1.0  0.50925  0.34192  0.09112  1.0000
  F   F202      1.0  0.50287  0.36404  0.57558  1.0000
  F   F203      1.0  0.50621  0.85022  0.07243  1.0000
  F   F204      1.0  0.50814  0.86386  0.56915  1.0000
  F   F205      1.0  0.75019  0.36631  0.09727  1.0000
  F   F206      1.0  0.75752  0.35844  0.57672  1.0000
  F   F207      1.0  0.75986  0.85360  0.07338  1.0000
  F   F208      1.0  0.75615  0.85223  0.58182  1.0000
  F   F209      1.0  0.06507  0.48418  0.18449  1.0000
  F   F210      1.0  0.07162  0.48579  0.66523  1.0000
  F   F211      1.0  0.07621  0.99341  0.16445  1.0000
  F   F212      1.0  0.06896  0.99692  0.65203  1.0000
  F   F213      1.0  0.31911  0.48529  0.19734  1.0000
  F   F214      1.0  0.31327  0.47916  0.69563  1.0000
  F   F215      1.0  0.31910  0.98117  0.17285  1.0000
  F   F216      1.0  0.31559  0.98107  0.68570  1.0000
  F   F217      1.0  0.56811  0.48357  0.18173  1.0000
  F   F218      1.0  0.56349  0.47936  0.68120  1.0000
  F   F219      1.0  0.57487  0.99810  0.15322  1.0000
  F   F220      1.0  0.56823  0.97428  0.68040  1.0000
  F   F221      1.0  0.82122  0.48447  0.16828  1.0000
  F   F222      1.0  0.82098  0.48722  0.67817  1.0000
  F   F223      1.0  0.82072  0.98951  0.15978  1.0000
  F   F224      1.0  0.81702  0.98109  0.68920  1.0000
  F   F225      1.0  0.24182  0.14175  0.40813  1.0000
  F   F226      1.0  0.24152  0.14590  0.93144  1.0000
  F   F227      1.0  0.24698  0.65000  0.40603  1.0000
  F   F228      1.0  0.24381  0.63827  0.92801  1.0000
  F   F229      1.0  0.49143  0.13424  0.42463  1.0000
  F   F230      1.0  0.49551  0.13952  0.91671  1.0000
  F   F231      1.0  0.48898  0.63624  0.42623  1.0000
  F   F232      1.0  0.49793  0.63929  0.91980  1.0000
  F   F233      1.0  0.74537  0.14116  0.41025  1.0000
  F   F234      1.0  0.74652  0.14892  0.92229  1.0000
  F   F235      1.0  0.74326  0.63038  0.43172  1.0000
  F   F236      1.0  0.74212  0.63174  0.92447  1.0000
  F   F237      1.0  0.99222  0.13886  0.41572  1.0000
  F   F238      1.0  0.99600  0.13008  0.92918  1.0000
  F   F239      1.0  0.99122  0.63606  0.43895  1.0000
  F   F240      1.0  0.99267  0.65339  0.92551  1.0000
  F   F241      1.0  0.17914  0.00785  0.34292  1.0000
  F   F242      1.0  0.18241  0.02367  0.81451  1.0000
  F   F243      1.0  0.18574  0.51707  0.30643  1.0000
  F   F244      1.0  0.18283  0.51733  0.81149  1.0000
  F   F245      1.0  0.42788  0.01645  0.31689  1.0000
  F   F246      1.0  0.43635  0.02570  0.80977  1.0000
  F   F247      1.0  0.43658  0.51223  0.32717  1.0000
  F   F248      1.0  0.42854  0.51695  0.83555  1.0000
  F   F249      1.0  0.68220  0.01129  0.32585  1.0000
  F   F250      1.0  0.68513  0.00710  0.82110  1.0000
  F   F251      1.0  0.67588  0.51449  0.33488  1.0000
  F   F252      1.0  0.67786  0.51658  0.81854  1.0000
  F   F253      1.0  0.92800  0.01264  0.33112  1.0000
  F   F254      1.0  0.93510  0.01909  0.82300  1.0000
  F   F255      1.0  0.92126  0.52754  0.32644  1.0000
  F   F256      1.0  0.92867  0.53110  0.82091  1.0000
  F   F257      1.0  0.00449  0.25320  0.99922  1.0000
  F   F258      1.0  0.99425  0.24595  0.50723  1.0000
  F   F259      1.0  0.00582  0.76420  0.99458  1.0000
  F   F260      1.0  0.00572  0.76996  0.47993  1.0000
  F   F261      1.0  0.25215  0.27630  0.98224  1.0000
  F   F262      1.0  0.24420  0.24152  0.49947  1.0000
  F   F263      1.0  0.25019  0.74508  0.98950  1.0000
  F   F264      1.0  0.24932  0.76267  0.49287  1.0000
  F   F265      1.0  0.50190  0.25104  0.99708  1.0000
  F   F266      1.0  0.49840  0.24262  0.50624  1.0000
  F   F267      1.0  0.49890  0.74708  0.00028  1.0000
  F   F268      1.0  0.49758  0.75371  0.49317  1.0000
  F   F269      1.0  0.75439  0.26442  0.99183  1.0000
  F   F270      1.0  0.74870  0.25045  0.49688  1.0000
  F   F271      1.0  0.74883  0.74208  0.00846  1.0000
  F   F272      1.0  0.74896  0.74571  0.50719  1.0000
  F   F273      1.0  0.11955  0.99721  0.26296  1.0000
  F   F274      1.0  0.12295  0.99569  0.74554  1.0000
  F   F275      1.0  0.11613  0.50237  0.26372  1.0000
  F   F276      1.0  0.11644  0.49458  0.76556  1.0000
  F   F277      1.0  0.38454  0.99395  0.23239  1.0000
  F   F278      1.0  0.37965  0.00730  0.74451  1.0000
  F   F279      1.0  0.38464  0.50923  0.23590  1.0000
  F   F280      1.0  0.38131  0.50983  0.74850  1.0000
  F   F281      1.0  0.62386  0.00558  0.25760  1.0000
  F   F282      1.0  0.62601  0.99186  0.75100  1.0000
  F   F283      1.0  0.62890  0.50032  0.24920  1.0000
  F   F284      1.0  0.62212  0.48561  0.75424  1.0000
  F   F285      1.0  0.86998  0.99663  0.25639  1.0000
  F   F286      1.0  0.86869  0.98716  0.76577  1.0000
  F   F287      1.0  0.86643  0.48553  0.26587  1.0000
  F   F288      1.0  0.87953  0.50552  0.73871  1.0000
  F   F289      1.0  0.04443  0.04140  0.02750  1.0000
  F   F290      1.0  0.03601  0.03657  0.52192  1.0000
  F   F291      1.0  0.04107  0.53942  0.03127  1.0000
  F   F292      1.0  0.04203  0.54002  0.52366  1.0000
  F   F293      1.0  0.29504  0.02336  0.01681  1.0000
  F   F294      1.0  0.28874  0.02754  0.53610  1.0000
  F   F295      1.0  0.29763  0.52117  0.03433  1.0000
  F   F296      1.0  0.29126  0.52771  0.52971  1.0000
  F   F297      1.0  0.53916  0.03208  0.02410  1.0000
  F   F298      1.0  0.54633  0.03012  0.51157  1.0000
  F   F299      1.0  0.55103  0.51617  0.01331  1.0000
  F   F300      1.0  0.54010  0.54274  0.52342  1.0000
  F   F301      1.0  0.78792  0.03267  0.02244  1.0000
  F   F302      1.0  0.78702  0.02655  0.53374  1.0000
  F   F303      1.0  0.79181  0.53817  0.02351  1.0000
  F   F304      1.0  0.80310  0.53667  0.51644  1.0000
  F   F305      1.0  0.23347  0.40731  0.23877  1.0000
  F   F306      1.0  0.23714  0.39320  0.73707  1.0000
  F   F307      1.0  0.23338  0.92311  0.22508  1.0000
  F   F308      1.0  0.23360  0.90782  0.72887  1.0000
  F   F309      1.0  0.48178  0.41012  0.22063  1.0000
  F   F310      1.0  0.48027  0.41752  0.72363  1.0000
  F   F311      1.0  0.48407  0.90585  0.22704  1.0000
  F   F312      1.0  0.48560  0.90877  0.72215  1.0000
  F   F313      1.0  0.72987  0.42123  0.22681  1.0000
  F   F314      1.0  0.73522  0.43145  0.71924  1.0000
  F   F315      1.0  0.73192  0.92229  0.22307  1.0000
  F   F316      1.0  0.73287  0.89870  0.72925  1.0000
  F   F317      1.0  0.97840  0.41891  0.22911  1.0000
  F   F318      1.0  0.98085  0.41938  0.72902  1.0000
  F   F319      1.0  0.98721  0.93548  0.22468  1.0000
  F   F320      1.0  0.97939  0.92926  0.72372  1.0000
  F   F321      1.0  0.20230  0.46460  0.48162  1.0000
  F   F322      1.0  0.21014  0.47375  0.96785  1.0000
  F   F323      1.0  0.20712  0.96294  0.48221  1.0000
  F   F324      1.0  0.20596  0.96899  0.97983  1.0000
  F   F325      1.0  0.45938  0.47734  0.47370  1.0000
  F   F326      1.0  0.45805  0.46321  0.98838  1.0000
  F   F327      1.0  0.46563  0.97446  0.46142  1.0000
  F   F328      1.0  0.45427  0.97800  0.97984  1.0000
  F   F329      1.0  0.70652  0.46483  0.47980  1.0000
  F   F330      1.0  0.71525  0.46253  0.97447  1.0000
  F   F331      1.0  0.70458  0.96952  0.48342  1.0000
  F   F332      1.0  0.70706  0.96445  0.97933  1.0000
  F   F333      1.0  0.95719  0.47039  0.48539  1.0000
  F   F334      1.0  0.95783  0.46443  0.97685  1.0000
  F   F335      1.0  0.95549  0.96930  0.48032  1.0000
  F   F336      1.0  0.94843  0.97423  0.98997  1.0000
  F   F337      1.0  0.01917  0.07798  0.28183  1.0000
  F   F338      1.0  0.01283  0.08901  0.77801  1.0000
  F   F339      1.0  0.01589  0.57425  0.29236  1.0000
  F   F340      1.0  0.01630  0.58952  0.76973  1.0000
  F   F341      1.0  0.26887  0.06993  0.27419  1.0000
  F   F342      1.0  0.26656  0.09668  0.77201  1.0000
  F   F343      1.0  0.26557  0.59689  0.26298  1.0000
  F   F344      1.0  0.26041  0.59500  0.77558  1.0000
  F   F345      1.0  0.51741  0.07284  0.26890  1.0000
  F   F346      1.0  0.52053  0.07158  0.77812  1.0000
  F   F347      1.0  0.52196  0.58716  0.26621  1.0000
  F   F348      1.0  0.51115  0.58092  0.76931  1.0000
  F   F349      1.0  0.76774  0.06693  0.28516  1.0000
  F   F350      1.0  0.76265  0.08724  0.76706  1.0000
  F   F351      1.0  0.76547  0.58791  0.26767  1.0000
  F   F352      1.0  0.76665  0.56437  0.77926  1.0000
  F   F353      1.0  0.10128  0.42146  0.46615  1.0000
  F   F354      1.0  0.09804  0.40863  0.96377  1.0000
  F   F355      1.0  0.10040  0.91923  0.46188  1.0000
  F   F356      1.0  0.10238  0.91536  0.97017  1.0000
  F   F357      1.0  0.35230  0.41663  0.45141  1.0000
  F   F358      1.0  0.35038  0.40714  0.96764  1.0000
  F   F359      1.0  0.35027  0.90354  0.45340  1.0000
  F   F360      1.0  0.35459  0.91405  0.95201  1.0000
  F   F361      1.0  0.60110  0.41411  0.46807  1.0000
  F   F362      1.0  0.59975  0.39470  0.96198  1.0000
  F   F363      1.0  0.60256  0.89955  0.46241  1.0000
  F   F364      1.0  0.60062  0.92598  0.96887  1.0000
  F   F365      1.0  0.84964  0.40768  0.45488  1.0000
  F   F366      1.0  0.85064  0.41384  0.95989  1.0000
  F   F367      1.0  0.84438  0.90683  0.46372  1.0000
  F   F368      1.0  0.85510  0.92056  0.96324  1.0000
  F   F369      1.0  0.04997  0.30007  0.28585  1.0000
  F   F370      1.0  0.04059  0.28887  0.78208  1.0000
  F   F371      1.0  0.03924  0.80001  0.29434  1.0000
  F   F372      1.0  0.04204  0.81487  0.78207  1.0000
  F   F373      1.0  0.29810  0.28995  0.29256  1.0000
  F   F374      1.0  0.30658  0.29770  0.77459  1.0000
  F   F375      1.0  0.30008  0.79812  0.27970  1.0000
  F   F376      1.0  0.30231  0.79777  0.78777  1.0000
  F   F377      1.0  0.54726  0.29758  0.29879  1.0000
  F   F378      1.0  0.53801  0.29611  0.78312  1.0000
  F   F379      1.0  0.54180  0.80473  0.28508  1.0000
  F   F380      1.0  0.55345  0.79089  0.79191  1.0000
  F   F381      1.0  0.79925  0.30653  0.28443  1.0000
  F   F382      1.0  0.79945  0.30837  0.78292  1.0000
  F   F383      1.0  0.78847  0.80182  0.30148  1.0000
  F   F384      1.0  0.79882  0.79793  0.78797  1.0000
