data_image0
_chemical_formula_structural       Hf96F384
_chemical_formula_sum              "Hf96 F384"
_cell_length_a       31.0203
_cell_length_b       15.5149
_cell_length_c       15.504
_cell_angle_alpha    63.342
_cell_angle_beta     63.342
_cell_angle_gamma    80.1625

_space_group_name_H-M_alt    "P 1"
_space_group_IT_number       1

loop_
  _space_group_symop_operation_xyz
  'x, y, z'

loop_
  _atom_site_type_symbol
  _atom_site_label
  _atom_site_symmetry_multiplicity
  _atom_site_fract_x
  _atom_site_fract_y
  _atom_site_fract_z
  _atom_site_occupancy
  Hf  Hf1       1.0  0.19494  0.10709  0.36926  1.0000
  Hf  Hf2       1.0  0.19418  0.10875  0.88547  1.0000
  Hf  Hf3       1.0  0.19811  0.59491  0.38124  1.0000
  Hf  Hf4       1.0  0.19663  0.61000  0.87449  1.0000
  Hf  Hf5       1.0  0.44887  0.10559  0.36568  1.0000
  Hf  Hf6       1.0  0.44285  0.11177  0.87967  1.0000
  Hf  Hf7       1.0  0.45186  0.60402  0.36779  1.0000
  Hf  Hf8       1.0  0.44662  0.61199  0.86983  1.0000
  Hf  Hf9       1.0  0.69762  0.11923  0.36732  1.0000
  Hf  Hf10      1.0  0.69866  0.11682  0.86697  1.0000
  Hf  Hf11      1.0  0.69395  0.60745  0.37381  1.0000
  Hf  Hf12      1.0  0.69453  0.61000  0.87356  1.0000
  Hf  Hf13      1.0  0.94357  0.10970  0.37999  1.0000
  Hf  Hf14      1.0  0.94210  0.10348  0.88108  1.0000
  Hf  Hf15      1.0  0.94496  0.60905  0.37964  1.0000
  Hf  Hf16      1.0  0.95112  0.60313  0.87114  1.0000
  Hf  Hf17      1.0  0.05419  0.38827  0.13251  1.0000
  Hf  Hf18      1.0  0.05366  0.38844  0.63209  1.0000
  Hf  Hf19      1.0  0.05301  0.89024  0.12871  1.0000
  Hf  Hf20      1.0  0.05613  0.89202  0.62542  1.0000
  Hf  Hf21      1.0  0.30229  0.39497  0.12674  1.0000
  Hf  Hf22      1.0  0.29964  0.38370  0.63676  1.0000
  Hf  Hf23      1.0  0.30505  0.88839  0.12314  1.0000
  Hf  Hf24      1.0  0.30311  0.89434  0.62646  1.0000
  Hf  Hf25      1.0  0.55059  0.38859  0.13359  1.0000
  Hf  Hf26      1.0  0.55386  0.39933  0.62042  1.0000
  Hf  Hf27      1.0  0.55204  0.89515  0.11840  1.0000
  Hf  Hf28      1.0  0.55675  0.89727  0.62285  1.0000
  Hf  Hf29      1.0  0.80448  0.38783  0.12708  1.0000
  Hf  Hf30      1.0  0.80223  0.39326  0.62261  1.0000
  Hf  Hf31      1.0  0.80514  0.89537  0.11879  1.0000
  Hf  Hf32      1.0  0.80527  0.88899  0.62617  1.0000
  Hf  Hf33      1.0  0.05387  0.17247  0.43045  1.0000
  Hf  Hf34      1.0  0.05139  0.17982  0.92884  1.0000
  Hf  Hf35      1.0  0.05858  0.67993  0.41091  1.0000
  Hf  Hf36      1.0  0.05359  0.67603  0.92706  1.0000
  Hf  Hf37      1.0  0.30310  0.17778  0.41715  1.0000
  Hf  Hf38      1.0  0.30068  0.17527  0.92721  1.0000
  Hf  Hf39      1.0  0.30924  0.67194  0.41875  1.0000
  Hf  Hf40      1.0  0.30836  0.68354  0.91570  1.0000
  Hf  Hf41      1.0  0.55669  0.18323  0.41418  1.0000
  Hf  Hf42      1.0  0.55688  0.19093  0.90390  1.0000
  Hf  Hf43      1.0  0.55539  0.69086  0.41530  1.0000
  Hf  Hf44      1.0  0.55641  0.68000  0.91102  1.0000
  Hf  Hf45      1.0  0.80546  0.17787  0.42007  1.0000
  Hf  Hf46      1.0  0.80377  0.18195  0.92161  1.0000
  Hf  Hf47      1.0  0.80931  0.68757  0.40857  1.0000
  Hf  Hf48      1.0  0.80808  0.68543  0.91537  1.0000
  Hf  Hf49      1.0  0.15709  0.37711  0.34111  1.0000
  Hf  Hf50      1.0  0.15548  0.38396  0.84511  1.0000
  Hf  Hf51      1.0  0.15648  0.88127  0.33250  1.0000
  Hf  Hf52      1.0  0.15989  0.88772  0.83998  1.0000
  Hf  Hf53      1.0  0.40402  0.38871  0.34186  1.0000
  Hf  Hf54      1.0  0.40691  0.39239  0.83732  1.0000
  Hf  Hf55      1.0  0.41116  0.88419  0.33244  1.0000
  Hf  Hf56      1.0  0.41187  0.89010  0.82741  1.0000
  Hf  Hf57      1.0  0.66200  0.39673  0.32573  1.0000
  Hf  Hf58      1.0  0.65711  0.39371  0.82490  1.0000
  Hf  Hf59      1.0  0.66209  0.89728  0.32419  1.0000
  Hf  Hf60      1.0  0.65852  0.89018  0.82762  1.0000
  Hf  Hf61      1.0  0.90792  0.39416  0.33130  1.0000
  Hf  Hf62      1.0  0.91018  0.39577  0.83013  1.0000
  Hf  Hf63      1.0  0.90863  0.88628  0.33997  1.0000
  Hf  Hf64      1.0  0.91167  0.88725  0.83158  1.0000
  Hf  Hf65      1.0  0.19183  0.32280  0.08266  1.0000
  Hf  Hf66      1.0  0.19180  0.31177  0.59665  1.0000
  Hf  Hf67      1.0  0.19405  0.80301  0.09472  1.0000
  Hf  Hf68      1.0  0.19982  0.82535  0.57087  1.0000
  Hf  Hf69      1.0  0.44724  0.33047  0.07735  1.0000
  Hf  Hf70      1.0  0.44152  0.31903  0.58452  1.0000
  Hf  Hf71      1.0  0.44584  0.82419  0.07290  1.0000
  Hf  Hf72      1.0  0.44335  0.81943  0.58382  1.0000
  Hf  Hf73      1.0  0.69319  0.32683  0.07481  1.0000
  Hf  Hf74      1.0  0.69328  0.31676  0.58284  1.0000
  Hf  Hf75      1.0  0.69269  0.82679  0.07962  1.0000
  Hf  Hf76      1.0  0.69612  0.81918  0.58110  1.0000
  Hf  Hf77      1.0  0.94350  0.31898  0.08631  1.0000
  Hf  Hf78      1.0  0.94048  0.32217  0.58808  1.0000
  Hf  Hf79      1.0  0.94443  0.81566  0.08823  1.0000
  Hf  Hf80      1.0  0.94986  0.82351  0.57678  1.0000
  Hf  Hf81      1.0  0.08501  0.11085  0.17592  1.0000
  Hf  Hf82      1.0  0.09140  0.10700  0.67792  1.0000
  Hf  Hf83      1.0  0.09182  0.59975  0.17403  1.0000
  Hf  Hf84      1.0  0.09471  0.60880  0.66664  1.0000
  Hf  Hf85      1.0  0.34320  0.11109  0.16286  1.0000
  Hf  Hf86      1.0  0.34150  0.11216  0.66299  1.0000
  Hf  Hf87      1.0  0.34507  0.61217  0.16161  1.0000
  Hf  Hf88      1.0  0.33803  0.61020  0.67028  1.0000
  Hf  Hf89      1.0  0.58921  0.10601  0.16644  1.0000
  Hf  Hf90      1.0  0.59456  0.11562  0.66209  1.0000
  Hf  Hf91      1.0  0.59323  0.61365  0.15746  1.0000
  Hf  Hf92      1.0  0.59242  0.62135  0.65402  1.0000
  Hf  Hf93      1.0  0.83633  0.10510  0.17158  1.0000
  Hf  Hf94      1.0  0.83954  0.11134  0.67286  1.0000
  Hf  Hf95      1.0  0.84133  0.61712  0.16499  1.0000
  Hf  Hf96      1.0  0.84304  0.61370  0.66173  1.0000
  F   F1        1.0  0.07457  0.11558  0.31103  1.0000
  F   F2        1.0  0.07331  0.11767  0.82382  1.0000
  F   F3        1.0  0.07995  0.61667  0.31263  1.0000
  F   F4        1.0  0.07905  0.63788  0.79930  1.0000
  F   F5        1.0  0.32337  0.12681  0.30234  1.0000
  F   F6        1.0  0.32738  0.13445  0.80623  1.0000
  F   F7        1.0  0.34289  0.63125  0.29011  1.0000
  F   F8        1.0  0.32971  0.62811  0.79922  1.0000
  F   F9        1.0  0.57224  0.13552  0.30540  1.0000
  F   F10       1.0  0.58565  0.13221  0.80042  1.0000
  F   F11       1.0  0.58786  0.63839  0.28653  1.0000
  F   F12       1.0  0.58026  0.62925  0.79633  1.0000
  F   F13       1.0  0.82577  0.11726  0.31348  1.0000
  F   F14       1.0  0.82711  0.12505  0.80528  1.0000
  F   F15       1.0  0.82829  0.62672  0.30009  1.0000
  F   F16       1.0  0.83256  0.62919  0.79398  1.0000
  F   F17       1.0  0.18147  0.31707  0.46764  1.0000
  F   F18       1.0  0.17988  0.33733  0.95655  1.0000
  F   F19       1.0  0.18543  0.84309  0.44050  1.0000
  F   F20       1.0  0.18827  0.83914  0.95327  1.0000
  F   F21       1.0  0.43086  0.33537  0.45930  1.0000
  F   F22       1.0  0.43410  0.33861  0.95486  1.0000
  F   F23       1.0  0.43371  0.84869  0.44391  1.0000
  F   F24       1.0  0.43522  0.85532  0.93962  1.0000
  F   F25       1.0  0.68155  0.32888  0.44977  1.0000
  F   F26       1.0  0.68402  0.34533  0.93541  1.0000
  F   F27       1.0  0.68405  0.83667  0.44720  1.0000
  F   F28       1.0  0.69040  0.84950  0.92381  1.0000
  F   F29       1.0  0.92682  0.34181  0.45975  1.0000
  F   F30       1.0  0.93460  0.35072  0.94723  1.0000
  F   F31       1.0  0.94114  0.84675  0.44816  1.0000
  F   F32       1.0  0.94264  0.84433  0.93157  1.0000
  F   F33       1.0  0.17256  0.36831  0.20721  1.0000
  F   F34       1.0  0.16202  0.33966  0.72182  1.0000
  F   F35       1.0  0.17231  0.86738  0.19736  1.0000
  F   F36       1.0  0.17074  0.86551  0.69353  1.0000
  F   F37       1.0  0.42816  0.38141  0.18917  1.0000
  F   F38       1.0  0.42116  0.38545  0.69390  1.0000
  F   F39       1.0  0.41945  0.85492  0.20215  1.0000
  F   F40       1.0  0.42368  0.86767  0.70314  1.0000
  F   F41       1.0  0.67635  0.39245  0.17901  1.0000
  F   F42       1.0  0.66403  0.36035  0.69841  1.0000
  F   F43       1.0  0.66721  0.87618  0.19688  1.0000
  F   F44       1.0  0.67234  0.86973  0.69207  1.0000
  F   F45       1.0  0.92094  0.38180  0.19757  1.0000
  F   F46       1.0  0.91593  0.37994  0.70113  1.0000
  F   F47       1.0  0.92199  0.87507  0.19531  1.0000
  F   F48       1.0  0.92404  0.89813  0.69122  1.0000
  F   F49       1.0  0.04992  0.15150  0.07593  1.0000
  F   F50       1.0  0.06023  0.14544  0.57121  1.0000
  F   F51       1.0  0.06201  0.63682  0.06260  1.0000
  F   F52       1.0  0.07800  0.66827  0.54073  1.0000
  F   F53       1.0  0.30571  0.14512  0.06568  1.0000
  F   F54       1.0  0.31600  0.16407  0.54619  1.0000
  F   F55       1.0  0.32053  0.66469  0.05366  1.0000
  F   F56       1.0  0.31263  0.64362  0.55862  1.0000
  F   F57       1.0  0.56738  0.16444  0.04260  1.0000
  F   F58       1.0  0.57303  0.15810  0.54504  1.0000
  F   F59       1.0  0.57246  0.66194  0.03260  1.0000
  F   F60       1.0  0.55811  0.66892  0.55290  1.0000
  F   F61       1.0  0.80627  0.14688  0.06363  1.0000
  F   F62       1.0  0.81245  0.16419  0.55418  1.0000
  F   F63       1.0  0.81393  0.67058  0.05098  1.0000
  F   F64       1.0  0.82311  0.66801  0.53034  1.0000
  F   F65       1.0  0.20434  0.20231  0.21402  1.0000
  F   F66       1.0  0.20834  0.19121  0.71478  1.0000
  F   F67       1.0  0.20661  0.69517  0.21220  1.0000
  F   F68       1.0  0.21185  0.71195  0.69619  1.0000
  F   F69       1.0  0.46383  0.20519  0.21061  1.0000
  F   F70       1.0  0.45466  0.21557  0.71627  1.0000
  F   F71       1.0  0.45325  0.70039  0.18424  1.0000
  F   F72       1.0  0.46425  0.70381  0.70743  1.0000
  F   F73       1.0  0.69461  0.21017  0.19710  1.0000
  F   F74       1.0  0.70736  0.20417  0.70345  1.0000
  F   F75       1.0  0.69358  0.70744  0.20833  1.0000
  F   F76       1.0  0.69718  0.70007  0.70164  1.0000
  F   F77       1.0  0.94988  0.20184  0.21019  1.0000
  F   F78       1.0  0.95515  0.20642  0.70931  1.0000
  F   F79       1.0  0.95252  0.70250  0.21421  1.0000
  F   F80       1.0  0.95183  0.71131  0.70102  1.0000
  F   F81       1.0  0.13796  0.10436  0.04152  1.0000
  F   F82       1.0  0.14461  0.09718  0.54865  1.0000
  F   F83       1.0  0.14740  0.58067  0.03833  1.0000
  F   F84       1.0  0.15188  0.57980  0.53393  1.0000
  F   F85       1.0  0.40234  0.09968  0.04193  1.0000
  F   F86       1.0  0.39499  0.07779  0.54566  1.0000
  F   F87       1.0  0.40161  0.58688  0.02656  1.0000
  F   F88       1.0  0.39372  0.59992  0.54902  1.0000
  F   F89       1.0  0.65150  0.09956  0.02596  1.0000
  F   F90       1.0  0.65397  0.08916  0.52624  1.0000
  F   F91       1.0  0.65653  0.60227  0.02865  1.0000
  F   F92       1.0  0.65461  0.59760  0.52870  1.0000
  F   F93       1.0  0.88905  0.08289  0.04154  1.0000
  F   F94       1.0  0.90047  0.10711  0.53987  1.0000
  F   F95       1.0  0.90349  0.59589  0.04215  1.0000
  F   F96       1.0  0.89722  0.57055  0.53995  1.0000
  F   F97       1.0  0.14298  0.20782  0.13728  1.0000
  F   F98       1.0  0.14010  0.19520  0.66073  1.0000
  F   F99       1.0  0.15361  0.68418  0.13309  1.0000
  F   F100      1.0  0.15797  0.67782  0.61987  1.0000
  F   F101      1.0  0.40415  0.20275  0.13861  1.0000
  F   F102      1.0  0.40063  0.18963  0.63754  1.0000
  F   F103      1.0  0.40607  0.69745  0.08928  1.0000
  F   F104      1.0  0.39900  0.70332  0.63917  1.0000
  F   F105      1.0  0.64838  0.19381  0.10370  1.0000
  F   F106      1.0  0.65463  0.18862  0.62503  1.0000
  F   F107      1.0  0.65529  0.70244  0.09657  1.0000
  F   F108      1.0  0.65099  0.70441  0.61197  1.0000
  F   F109      1.0  0.89567  0.19151  0.11270  1.0000
  F   F110      1.0  0.90083  0.20074  0.63402  1.0000
  F   F111      1.0  0.90288  0.70610  0.12292  1.0000
  F   F112      1.0  0.90395  0.68601  0.59663  1.0000
  F   F113      1.0  0.10096  0.29048  0.38129  1.0000
  F   F114      1.0  0.09507  0.30092  0.90068  1.0000
  F   F115      1.0  0.09830  0.80007  0.37298  1.0000
  F   F116      1.0  0.10511  0.78933  0.89970  1.0000
  F   F117      1.0  0.34202  0.30971  0.36479  1.0000
  F   F118      1.0  0.34010  0.30630  0.87866  1.0000
  F   F119      1.0  0.36024  0.77841  0.39774  1.0000
  F   F120      1.0  0.35243  0.79552  0.86597  1.0000
  F   F121      1.0  0.59677  0.30217  0.36722  1.0000
  F   F122      1.0  0.59508  0.31476  0.88002  1.0000
  F   F123      1.0  0.59776  0.79759  0.36855  1.0000
  F   F124      1.0  0.60106  0.80758  0.85318  1.0000
  F   F125      1.0  0.85252  0.29550  0.37166  1.0000
  F   F126      1.0  0.83976  0.29975  0.88569  1.0000
  F   F127      1.0  0.85208  0.79908  0.37372  1.0000
  F   F128      1.0  0.85731  0.79955  0.85814  1.0000
  F   F129      1.0  0.06655  0.25462  0.13685  1.0000
  F   F130      1.0  0.06134  0.25084  0.63437  1.0000
  F   F131      1.0  0.06892  0.74257  0.13066  1.0000
  F   F132      1.0  0.04908  0.74830  0.66903  1.0000
  F   F133      1.0  0.32370  0.24931  0.12137  1.0000
  F   F134      1.0  0.32175  0.25195  0.63089  1.0000
  F   F135      1.0  0.31091  0.74537  0.15794  1.0000
  F   F136      1.0  0.30741  0.75732  0.64345  1.0000
  F   F137      1.0  0.56074  0.24968  0.13534  1.0000
  F   F138      1.0  0.56616  0.25407  0.64340  1.0000
  F   F139      1.0  0.56492  0.75033  0.13759  1.0000
  F   F140      1.0  0.57267  0.75534  0.62582  1.0000
  F   F141      1.0  0.80779  0.25479  0.13871  1.0000
  F   F142      1.0  0.81300  0.25873  0.63339  1.0000
  F   F143      1.0  0.81598  0.75317  0.13238  1.0000
  F   F144      1.0  0.81627  0.75054  0.63990  1.0000
  F   F145      1.0  0.12284  0.38768  0.10350  1.0000
  F   F146      1.0  0.12629  0.38132  0.60310  1.0000
  F   F147      1.0  0.12076  0.84876  0.13896  1.0000
  F   F148      1.0  0.12628  0.85219  0.60134  1.0000
  F   F149      1.0  0.37807  0.38292  0.11207  1.0000
  F   F150      1.0  0.37215  0.36299  0.62347  1.0000
  F   F151      1.0  0.37630  0.85493  0.10858  1.0000
  F   F152      1.0  0.37493  0.86595  0.61059  1.0000
  F   F153      1.0  0.62275  0.34100  0.12884  1.0000
  F   F154      1.0  0.62369  0.38026  0.60150  1.0000
  F   F155      1.0  0.62490  0.87643  0.09785  1.0000
  F   F156      1.0  0.62859  0.87968  0.59177  1.0000
  F   F157      1.0  0.87445  0.36195  0.11468  1.0000
  F   F158      1.0  0.86670  0.37307  0.61757  1.0000
  F   F159      1.0  0.87757  0.88528  0.08622  1.0000
  F   F160      1.0  0.87829  0.84440  0.62297  1.0000
  F   F161      1.0  0.18040  0.23987  0.37131  1.0000
  F   F162      1.0  0.18299  0.23937  0.88553  1.0000
  F   F163      1.0  0.18585  0.74582  0.35516  1.0000
  F   F164      1.0  0.18983  0.74551  0.84994  1.0000
  F   F165      1.0  0.42481  0.24897  0.36606  1.0000
  F   F166      1.0  0.42616  0.24529  0.87708  1.0000
  F   F167      1.0  0.45216  0.74177  0.33938  1.0000
  F   F168      1.0  0.43275  0.74578  0.86236  1.0000
  F   F169      1.0  0.69238  0.25855  0.33012  1.0000
  F   F170      1.0  0.69199  0.25758  0.84409  1.0000
  F   F171      1.0  0.68425  0.75174  0.35226  1.0000
  F   F172      1.0  0.68727  0.75619  0.83354  1.0000
  F   F173      1.0  0.93724  0.24895  0.35602  1.0000
  F   F174      1.0  0.92679  0.24453  0.87795  1.0000
  F   F175      1.0  0.93024  0.73976  0.38319  1.0000
  F   F176      1.0  0.93470  0.75073  0.84949  1.0000
  F   F177      1.0  0.12177  0.11640  0.40560  1.0000
  F   F178      1.0  0.12263  0.14191  0.88718  1.0000
  F   F179      1.0  0.13135  0.63549  0.37796  1.0000
  F   F180      1.0  0.12794  0.63615  0.89750  1.0000
  F   F181      1.0  0.37779  0.12351  0.39230  1.0000
  F   F182      1.0  0.36923  0.13290  0.90311  1.0000
  F   F183      1.0  0.38051  0.61486  0.40982  1.0000
  F   F184      1.0  0.37912  0.63234  0.87334  1.0000
  F   F185      1.0  0.62586  0.13647  0.38164  1.0000
  F   F186      1.0  0.62828  0.14732  0.88217  1.0000
  F   F187      1.0  0.62315  0.62409  0.40784  1.0000
  F   F188      1.0  0.62966  0.62814  0.87935  1.0000
  F   F189      1.0  0.87790  0.12620  0.38516  1.0000
  F   F190      1.0  0.87561  0.12937  0.88779  1.0000
  F   F191      1.0  0.87778  0.63967  0.37440  1.0000
  F   F192      1.0  0.87792  0.61310  0.89857  1.0000
  F   F193      1.0  0.00596  0.35377  0.08608  1.0000
  F   F194      1.0  0.00407  0.37583  0.57603  1.0000
  F   F195      1.0  0.00968  0.86667  0.07834  1.0000
  F   F196      1.0  0.01202  0.87140  0.55789  1.0000
  F   F197      1.0  0.25966  0.36508  0.07492  1.0000
  F   F198      1.0  0.25185  0.34299  0.59942  1.0000
  F   F199      1.0  0.25780  0.85156  0.06713  1.0000
  F   F200      1.0  0.25912  0.87756  0.55211  1.0000
  F   F201      1.0  0.50971  0.38126  0.06149  1.0000
  F   F202      1.0  0.51000  0.36712  0.56037  1.0000
  F   F203      1.0  0.50900  0.86189  0.06214  1.0000
  F   F204      1.0  0.51032  0.86205  0.58008  1.0000
  F   F205      1.0  0.75539  0.37051  0.07822  1.0000
  F   F206      1.0  0.75380  0.36867  0.57606  1.0000
  F   F207      1.0  0.75342  0.87135  0.07967  1.0000
  F   F208      1.0  0.75841  0.87065  0.57059  1.0000
  F   F209      1.0  0.06680  0.47805  0.18911  1.0000
  F   F210      1.0  0.07053  0.48093  0.68373  1.0000
  F   F211      1.0  0.06291  0.98017  0.18847  1.0000
  F   F212      1.0  0.07199  0.97500  0.68073  1.0000
  F   F213      1.0  0.32032  0.48116  0.18109  1.0000
  F   F214      1.0  0.32070  0.47643  0.67253  1.0000
  F   F215      1.0  0.32477  0.97414  0.16163  1.0000
  F   F216      1.0  0.31868  0.97802  0.67723  1.0000
  F   F217      1.0  0.57168  0.48987  0.16107  1.0000
  F   F218      1.0  0.56675  0.49119  0.67348  1.0000
  F   F219      1.0  0.57019  0.98221  0.16552  1.0000
  F   F220      1.0  0.57367  0.98677  0.67350  1.0000
  F   F221      1.0  0.82352  0.48918  0.16737  1.0000
  F   F222      1.0  0.81059  0.48870  0.69301  1.0000
  F   F223      1.0  0.81694  0.97754  0.18971  1.0000
  F   F224      1.0  0.82703  0.99251  0.66081  1.0000
  F   F225      1.0  0.24251  0.14031  0.40923  1.0000
  F   F226      1.0  0.24085  0.12922  0.93168  1.0000
  F   F227      1.0  0.24528  0.62565  0.43222  1.0000
  F   F228      1.0  0.24224  0.63553  0.92905  1.0000
  F   F229      1.0  0.48938  0.13755  0.41670  1.0000
  F   F230      1.0  0.49479  0.13842  0.92635  1.0000
  F   F231      1.0  0.49550  0.62027  0.43027  1.0000
  F   F232      1.0  0.49492  0.64620  0.91766  1.0000
  F   F233      1.0  0.74173  0.14133  0.42249  1.0000
  F   F234      1.0  0.74060  0.12976  0.93241  1.0000
  F   F235      1.0  0.74573  0.63887  0.41433  1.0000
  F   F236      1.0  0.74463  0.65285  0.92661  1.0000
  F   F237      1.0  0.99155  0.14060  0.43211  1.0000
  F   F238      1.0  0.98919  0.13228  0.93742  1.0000
  F   F239      1.0  0.99384  0.64037  0.43073  1.0000
  F   F240      1.0  0.98776  0.64928  0.92126  1.0000
  F   F241      1.0  0.17785  0.01634  0.32048  1.0000
  F   F242      1.0  0.17494  0.00455  0.84538  1.0000
  F   F243      1.0  0.17814  0.50793  0.33866  1.0000
  F   F244      1.0  0.17372  0.51243  0.84708  1.0000
  F   F245      1.0  0.43486  0.01782  0.31378  1.0000
  F   F246      1.0  0.42762  0.02224  0.83633  1.0000
  F   F247      1.0  0.43185  0.50669  0.33019  1.0000
  F   F248      1.0  0.43507  0.51214  0.81983  1.0000
  F   F249      1.0  0.68204  0.01671  0.31828  1.0000
  F   F250      1.0  0.68342  0.02188  0.81768  1.0000
  F   F251      1.0  0.68444  0.52221  0.30162  1.0000
  F   F252      1.0  0.68573  0.51943  0.81894  1.0000
  F   F253      1.0  0.93112  0.01360  0.32384  1.0000
  F   F254      1.0  0.93310  0.01217  0.82941  1.0000
  F   F255      1.0  0.93322  0.52125  0.31561  1.0000
  F   F256      1.0  0.93926  0.51875  0.81036  1.0000
  F   F257      1.0  0.00075  0.28183  0.98098  1.0000
  F   F258      1.0  0.00507  0.27115  0.48758  1.0000
  F   F259      1.0  0.00121  0.73675  0.01449  1.0000
  F   F260      1.0  0.00281  0.73929  0.50585  1.0000
  F   F261      1.0  0.24142  0.25278  0.00101  1.0000
  F   F262      1.0  0.25079  0.25483  0.49466  1.0000
  F   F263      1.0  0.25225  0.73976  0.00574  1.0000
  F   F264      1.0  0.25196  0.74337  0.49988  1.0000
  F   F265      1.0  0.50031  0.25828  0.99280  1.0000
  F   F266      1.0  0.49381  0.22131  0.52363  1.0000
  F   F267      1.0  0.50414  0.76982  0.97405  1.0000
  F   F268      1.0  0.49705  0.76232  0.49396  1.0000
  F   F269      1.0  0.74899  0.26281  0.98813  1.0000
  F   F270      1.0  0.74765  0.24715  0.50086  1.0000
  F   F271      1.0  0.75930  0.77145  0.98879  1.0000
  F   F272      1.0  0.75644  0.75655  0.48597  1.0000
  F   F273      1.0  0.12393  0.00408  0.24431  1.0000
  F   F274      1.0  0.12136  0.98940  0.75566  1.0000
  F   F275      1.0  0.12958  0.49441  0.25269  1.0000
  F   F276      1.0  0.12608  0.49160  0.74921  1.0000
  F   F277      1.0  0.36957  0.98811  0.27026  1.0000
  F   F278      1.0  0.37402  0.00288  0.75208  1.0000
  F   F279      1.0  0.38246  0.50648  0.24021  1.0000
  F   F280      1.0  0.37056  0.49417  0.75774  1.0000
  F   F281      1.0  0.62510  0.00850  0.24794  1.0000
  F   F282      1.0  0.63351  0.00306  0.73231  1.0000
  F   F283      1.0  0.62321  0.50775  0.24380  1.0000
  F   F284      1.0  0.63415  0.51695  0.72077  1.0000
  F   F285      1.0  0.86729  0.98976  0.25868  1.0000
  F   F286      1.0  0.86850  0.00291  0.76432  1.0000
  F   F287      1.0  0.87897  0.51206  0.24616  1.0000
  F   F288      1.0  0.86711  0.48953  0.76561  1.0000
  F   F289      1.0  0.04366  0.02872  0.01855  1.0000
  F   F290      1.0  0.03461  0.02814  0.53104  1.0000
  F   F291      1.0  0.04165  0.52534  0.02179  1.0000
  F   F292      1.0  0.03873  0.53161  0.53919  1.0000
  F   F293      1.0  0.28569  0.02584  0.02938  1.0000
  F   F294      1.0  0.28471  0.03908  0.52773  1.0000
  F   F295      1.0  0.29484  0.53663  0.02828  1.0000
  F   F296      1.0  0.29232  0.51580  0.52925  1.0000
  F   F297      1.0  0.54774  0.02212  0.00723  1.0000
  F   F298      1.0  0.54214  0.03474  0.52789  1.0000
  F   F299      1.0  0.54136  0.53108  0.02427  1.0000
  F   F300      1.0  0.53807  0.53052  0.52880  1.0000
  F   F301      1.0  0.79368  0.02490  0.02302  1.0000
  F   F302      1.0  0.80027  0.02656  0.51105  1.0000
  F   F303      1.0  0.79294  0.53444  0.02387  1.0000
  F   F304      1.0  0.79870  0.53333  0.52367  1.0000
  F   F305      1.0  0.23430  0.41444  0.22663  1.0000
  F   F306      1.0  0.22831  0.41796  0.72879  1.0000
  F   F307      1.0  0.23865  0.90688  0.22979  1.0000
  F   F308      1.0  0.23164  0.90806  0.72897  1.0000
  F   F309      1.0  0.48507  0.40949  0.23463  1.0000
  F   F310      1.0  0.48481  0.39059  0.74092  1.0000
  F   F311      1.0  0.48377  0.91095  0.22111  1.0000
  F   F312      1.0  0.48443  0.91859  0.73906  1.0000
  F   F313      1.0  0.73530  0.40699  0.24055  1.0000
  F   F314      1.0  0.72887  0.42300  0.71909  1.0000
  F   F315      1.0  0.73296  0.91966  0.22126  1.0000
  F   F316      1.0  0.73856  0.91763  0.71139  1.0000
  F   F317      1.0  0.98811  0.40346  0.23154  1.0000
  F   F318      1.0  0.98504  0.39408  0.73359  1.0000
  F   F319      1.0  0.98069  0.90217  0.23721  1.0000
  F   F320      1.0  0.99083  0.89186  0.73256  1.0000
  F   F321      1.0  0.21532  0.45013  0.47059  1.0000
  F   F322      1.0  0.21386  0.46373  0.97609  1.0000
  F   F323      1.0  0.20090  0.97062  0.48504  1.0000
  F   F324      1.0  0.20034  0.97709  0.98470  1.0000
  F   F325      1.0  0.45249  0.46903  0.47980  1.0000
  F   F326      1.0  0.46282  0.46594  0.96832  1.0000
  F   F327      1.0  0.45680  0.96514  0.48323  1.0000
  F   F328      1.0  0.45537  0.97870  0.97248  1.0000
  F   F329      1.0  0.70504  0.46743  0.47470  1.0000
  F   F330      1.0  0.70821  0.47842  0.97279  1.0000
  F   F331      1.0  0.70786  0.97644  0.46532  1.0000
  F   F332      1.0  0.70636  0.97789  0.96745  1.0000
  F   F333      1.0  0.95119  0.46392  0.47957  1.0000
  F   F334      1.0  0.95691  0.47034  0.97521  1.0000
  F   F335      1.0  0.94789  0.97718  0.48848  1.0000
  F   F336      1.0  0.96142  0.96900  0.97454  1.0000
  F   F337      1.0  0.01150  0.08514  0.28140  1.0000
  F   F338      1.0  0.01414  0.08449  0.77958  1.0000
  F   F339      1.0  0.01474  0.58164  0.27403  1.0000
  F   F340      1.0  0.01599  0.57412  0.77746  1.0000
  F   F341      1.0  0.26309  0.08501  0.26654  1.0000
  F   F342      1.0  0.26696  0.08987  0.77582  1.0000
  F   F343      1.0  0.26733  0.58113  0.27293  1.0000
  F   F344      1.0  0.26362  0.57082  0.78866  1.0000
  F   F345      1.0  0.51502  0.06264  0.27238  1.0000
  F   F346      1.0  0.51689  0.09467  0.76734  1.0000
  F   F347      1.0  0.51674  0.57682  0.26828  1.0000
  F   F348      1.0  0.51849  0.57891  0.77963  1.0000
  F   F349      1.0  0.76250  0.08822  0.26569  1.0000
  F   F350      1.0  0.76674  0.08152  0.77068  1.0000
  F   F351      1.0  0.75985  0.60194  0.25942  1.0000
  F   F352      1.0  0.76485  0.61012  0.76236  1.0000
  F   F353      1.0  0.09920  0.39869  0.47122  1.0000
  F   F354      1.0  0.10224  0.40670  0.96908  1.0000
  F   F355      1.0  0.09983  0.90090  0.46928  1.0000
  F   F356      1.0  0.09984  0.90620  0.97520  1.0000
  F   F357      1.0  0.35008  0.40320  0.46964  1.0000
  F   F358      1.0  0.35135  0.40824  0.96913  1.0000
  F   F359      1.0  0.34491  0.90881  0.48043  1.0000
  F   F360      1.0  0.35143  0.90255  0.96581  1.0000
  F   F361      1.0  0.60379  0.41414  0.45130  1.0000
  F   F362      1.0  0.60204  0.40248  0.96760  1.0000
  F   F363      1.0  0.60379  0.90573  0.45124  1.0000
  F   F364      1.0  0.60365  0.89548  0.95507  1.0000
  F   F365      1.0  0.84926  0.40755  0.45342  1.0000
  F   F366      1.0  0.85284  0.40294  0.96544  1.0000
  F   F367      1.0  0.85053  0.89581  0.47431  1.0000
  F   F368      1.0  0.84894  0.90771  0.95999  1.0000
  F   F369      1.0  0.04863  0.28830  0.29732  1.0000
  F   F370      1.0  0.05578  0.29488  0.78434  1.0000
  F   F371      1.0  0.04392  0.78591  0.28922  1.0000
  F   F372      1.0  0.05749  0.80115  0.79568  1.0000
  F   F373      1.0  0.29284  0.28775  0.28147  1.0000
  F   F374      1.0  0.28632  0.29491  0.78885  1.0000
  F   F375      1.0  0.30862  0.79988  0.29584  1.0000
  F   F376      1.0  0.29484  0.78773  0.79511  1.0000
  F   F377      1.0  0.53679  0.29845  0.29824  1.0000
  F   F378      1.0  0.54717  0.30658  0.78344  1.0000
  F   F379      1.0  0.54470  0.80098  0.28606  1.0000
  F   F380      1.0  0.54877  0.80430  0.77218  1.0000
  F   F381      1.0  0.79304  0.30685  0.29751  1.0000
  F   F382      1.0  0.79134  0.29180  0.79186  1.0000
  F   F383      1.0  0.79830  0.80523  0.27681  1.0000
  F   F384      1.0  0.79659  0.80815  0.78774  1.0000
