data_image0
_chemical_formula_structural       Hf96F384
_chemical_formula_sum              "Hf96 F384"
_cell_length_a       31.0127
_cell_length_b       15.5067
_cell_length_c       15.4984
_cell_angle_alpha    63.342
_cell_angle_beta     63.342
_cell_angle_gamma    80.1625

_space_group_name_H-M_alt    "P 1"
_space_group_IT_number       1

loop_
  _space_group_symop_operation_xyz
  'x, y, z'

loop_
  _atom_site_type_symbol
  _atom_site_label
  _atom_site_symmetry_multiplicity
  _atom_site_fract_x
  _atom_site_fract_y
  _atom_site_fract_z
  _atom_site_occupancy
  Hf  Hf1       1.0  0.19532  0.10745  0.37551  1.0000
  Hf  Hf2       1.0  0.19897  0.11505  0.86851  1.0000
  Hf  Hf3       1.0  0.19505  0.61139  0.37065  1.0000
  Hf  Hf4       1.0  0.19763  0.61607  0.87067  1.0000
  Hf  Hf5       1.0  0.44798  0.11107  0.36025  1.0000
  Hf  Hf6       1.0  0.44441  0.10653  0.88039  1.0000
  Hf  Hf7       1.0  0.44598  0.60722  0.37729  1.0000
  Hf  Hf8       1.0  0.44338  0.60323  0.87660  1.0000
  Hf  Hf9       1.0  0.69321  0.09981  0.38717  1.0000
  Hf  Hf10      1.0  0.69473  0.09683  0.87795  1.0000
  Hf  Hf11      1.0  0.69740  0.60961  0.37451  1.0000
  Hf  Hf12      1.0  0.70059  0.60513  0.86350  1.0000
  Hf  Hf13      1.0  0.94531  0.09819  0.37823  1.0000
  Hf  Hf14      1.0  0.94436  0.10718  0.88066  1.0000
  Hf  Hf15      1.0  0.94955  0.60494  0.37263  1.0000
  Hf  Hf16      1.0  0.95032  0.60328  0.86921  1.0000
  Hf  Hf17      1.0  0.05604  0.40234  0.12036  1.0000
  Hf  Hf18      1.0  0.05602  0.40050  0.61870  1.0000
  Hf  Hf19      1.0  0.05491  0.89468  0.12318  1.0000
  Hf  Hf20      1.0  0.05225  0.89891  0.61792  1.0000
  Hf  Hf21      1.0  0.30337  0.40216  0.12089  1.0000
  Hf  Hf22      1.0  0.30642  0.39542  0.62244  1.0000
  Hf  Hf23      1.0  0.30599  0.89383  0.12238  1.0000
  Hf  Hf24      1.0  0.30373  0.89227  0.61856  1.0000
  Hf  Hf25      1.0  0.55187  0.39258  0.12596  1.0000
  Hf  Hf26      1.0  0.55340  0.38333  0.63135  1.0000
  Hf  Hf27      1.0  0.55410  0.89057  0.11977  1.0000
  Hf  Hf28      1.0  0.55388  0.89600  0.62110  1.0000
  Hf  Hf29      1.0  0.80428  0.38740  0.13205  1.0000
  Hf  Hf30      1.0  0.80260  0.39061  0.63764  1.0000
  Hf  Hf31      1.0  0.80120  0.89219  0.12606  1.0000
  Hf  Hf32      1.0  0.80323  0.88917  0.63083  1.0000
  Hf  Hf33      1.0  0.05376  0.18171  0.42245  1.0000
  Hf  Hf34      1.0  0.05623  0.18397  0.91591  1.0000
  Hf  Hf35      1.0  0.05709  0.69110  0.41249  1.0000
  Hf  Hf36      1.0  0.05541  0.68666  0.91168  1.0000
  Hf  Hf37      1.0  0.30183  0.18448  0.41954  1.0000
  Hf  Hf38      1.0  0.30472  0.18319  0.91673  1.0000
  Hf  Hf39      1.0  0.30872  0.67947  0.41040  1.0000
  Hf  Hf40      1.0  0.30502  0.69022  0.91349  1.0000
  Hf  Hf41      1.0  0.55691  0.18252  0.41611  1.0000
  Hf  Hf42      1.0  0.55369  0.18427  0.91464  1.0000
  Hf  Hf43      1.0  0.55567  0.68164  0.42053  1.0000
  Hf  Hf44      1.0  0.55754  0.68093  0.91639  1.0000
  Hf  Hf45      1.0  0.80696  0.17297  0.42512  1.0000
  Hf  Hf46      1.0  0.80584  0.18055  0.92241  1.0000
  Hf  Hf47      1.0  0.80611  0.68546  0.42060  1.0000
  Hf  Hf48      1.0  0.80612  0.68415  0.91587  1.0000
  Hf  Hf49      1.0  0.15827  0.39009  0.33902  1.0000
  Hf  Hf50      1.0  0.16072  0.39459  0.83018  1.0000
  Hf  Hf51      1.0  0.15872  0.88694  0.33095  1.0000
  Hf  Hf52      1.0  0.15956  0.89325  0.82369  1.0000
  Hf  Hf53      1.0  0.40656  0.38737  0.33436  1.0000
  Hf  Hf54      1.0  0.40717  0.38551  0.83926  1.0000
  Hf  Hf55      1.0  0.40898  0.88363  0.33111  1.0000
  Hf  Hf56      1.0  0.41119  0.88938  0.82618  1.0000
  Hf  Hf57      1.0  0.66059  0.38363  0.33416  1.0000
  Hf  Hf58      1.0  0.65704  0.37968  0.83758  1.0000
  Hf  Hf59      1.0  0.65584  0.88666  0.33729  1.0000
  Hf  Hf60      1.0  0.65759  0.88534  0.83050  1.0000
  Hf  Hf61      1.0  0.90789  0.38429  0.34260  1.0000
  Hf  Hf62      1.0  0.90968  0.39189  0.83214  1.0000
  Hf  Hf63      1.0  0.90763  0.88519  0.33387  1.0000
  Hf  Hf64      1.0  0.90945  0.87675  0.83966  1.0000
  Hf  Hf65      1.0  0.19702  0.32686  0.08061  1.0000
  Hf  Hf66      1.0  0.19418  0.31653  0.58628  1.0000
  Hf  Hf67      1.0  0.19676  0.83031  0.07451  1.0000
  Hf  Hf68      1.0  0.19484  0.81681  0.58050  1.0000
  Hf  Hf69      1.0  0.43965  0.31471  0.08285  1.0000
  Hf  Hf70      1.0  0.44458  0.31465  0.58712  1.0000
  Hf  Hf71      1.0  0.44423  0.81049  0.08230  1.0000
  Hf  Hf72      1.0  0.44572  0.81531  0.58103  1.0000
  Hf  Hf73      1.0  0.69469  0.31880  0.07819  1.0000
  Hf  Hf74      1.0  0.69701  0.31225  0.58134  1.0000
  Hf  Hf75      1.0  0.69418  0.81756  0.08226  1.0000
  Hf  Hf76      1.0  0.69190  0.81111  0.58714  1.0000
  Hf  Hf77      1.0  0.94629  0.31774  0.08147  1.0000
  Hf  Hf78      1.0  0.94258  0.31351  0.59189  1.0000
  Hf  Hf79      1.0  0.94507  0.81761  0.08444  1.0000
  Hf  Hf80      1.0  0.94517  0.81850  0.58039  1.0000
  Hf  Hf81      1.0  0.08875  0.11445  0.16952  1.0000
  Hf  Hf82      1.0  0.08912  0.10940  0.67341  1.0000
  Hf  Hf83      1.0  0.09242  0.62076  0.15992  1.0000
  Hf  Hf84      1.0  0.09406  0.61466  0.66272  1.0000
  Hf  Hf85      1.0  0.33910  0.11087  0.17281  1.0000
  Hf  Hf86      1.0  0.33995  0.11780  0.65841  1.0000
  Hf  Hf87      1.0  0.33811  0.61576  0.16189  1.0000
  Hf  Hf88      1.0  0.34389  0.61304  0.66191  1.0000
  Hf  Hf89      1.0  0.59244  0.11157  0.16105  1.0000
  Hf  Hf90      1.0  0.58941  0.11050  0.66889  1.0000
  Hf  Hf91      1.0  0.59189  0.60746  0.16596  1.0000
  Hf  Hf92      1.0  0.58968  0.60812  0.67069  1.0000
  Hf  Hf93      1.0  0.83702  0.09955  0.17814  1.0000
  Hf  Hf94      1.0  0.84222  0.10858  0.67122  1.0000
  Hf  Hf95      1.0  0.84318  0.61162  0.17034  1.0000
  Hf  Hf96      1.0  0.84730  0.61537  0.66478  1.0000
  F   F1        1.0  0.07787  0.12963  0.30201  1.0000
  F   F2        1.0  0.07452  0.11995  0.80915  1.0000
  F   F3        1.0  0.08359  0.63245  0.29514  1.0000
  F   F4        1.0  0.08389  0.64243  0.79406  1.0000
  F   F5        1.0  0.32581  0.11028  0.31411  1.0000
  F   F6        1.0  0.32911  0.13144  0.80009  1.0000
  F   F7        1.0  0.31887  0.60575  0.31452  1.0000
  F   F8        1.0  0.33351  0.64868  0.78968  1.0000
  F   F9        1.0  0.58406  0.14184  0.29536  1.0000
  F   F10       1.0  0.57565  0.12107  0.80810  1.0000
  F   F11       1.0  0.58511  0.64223  0.29585  1.0000
  F   F12       1.0  0.57467  0.62701  0.80410  1.0000
  F   F13       1.0  0.83371  0.11887  0.30755  1.0000
  F   F14       1.0  0.83350  0.13294  0.80910  1.0000
  F   F15       1.0  0.83090  0.62906  0.30808  1.0000
  F   F16       1.0  0.83304  0.62265  0.81282  1.0000
  F   F17       1.0  0.18837  0.35529  0.44256  1.0000
  F   F18       1.0  0.18017  0.34677  0.95459  1.0000
  F   F19       1.0  0.19090  0.85879  0.43051  1.0000
  F   F20       1.0  0.17972  0.84423  0.94641  1.0000
  F   F21       1.0  0.43578  0.33061  0.44500  1.0000
  F   F22       1.0  0.43644  0.34692  0.94566  1.0000
  F   F23       1.0  0.43341  0.84842  0.44678  1.0000
  F   F24       1.0  0.43944  0.82754  0.95176  1.0000
  F   F25       1.0  0.69433  0.33440  0.44282  1.0000
  F   F26       1.0  0.67967  0.33870  0.95567  1.0000
  F   F27       1.0  0.67910  0.83288  0.45780  1.0000
  F   F28       1.0  0.68779  0.83893  0.93356  1.0000
  F   F29       1.0  0.92762  0.33032  0.46561  1.0000
  F   F30       1.0  0.93861  0.34453  0.94035  1.0000
  F   F31       1.0  0.93831  0.84708  0.44014  1.0000
  F   F32       1.0  0.93902  0.84032  0.94934  1.0000
  F   F33       1.0  0.17471  0.38224  0.19850  1.0000
  F   F34       1.0  0.17604  0.39117  0.68375  1.0000
  F   F35       1.0  0.17516  0.89272  0.18123  1.0000
  F   F36       1.0  0.16456  0.86302  0.69744  1.0000
  F   F37       1.0  0.41775  0.36568  0.19296  1.0000
  F   F38       1.0  0.42119  0.37601  0.69317  1.0000
  F   F39       1.0  0.42081  0.86790  0.19741  1.0000
  F   F40       1.0  0.42368  0.86888  0.69034  1.0000
  F   F41       1.0  0.67381  0.38164  0.18822  1.0000
  F   F42       1.0  0.67258  0.36242  0.69693  1.0000
  F   F43       1.0  0.66290  0.87314  0.20496  1.0000
  F   F44       1.0  0.66348  0.85806  0.69969  1.0000
  F   F45       1.0  0.91416  0.36070  0.20240  1.0000
  F   F46       1.0  0.92179  0.37540  0.69655  1.0000
  F   F47       1.0  0.91966  0.87667  0.19296  1.0000
  F   F48       1.0  0.92689  0.86670  0.69346  1.0000
  F   F49       1.0  0.05910  0.16733  0.05149  1.0000
  F   F50       1.0  0.06099  0.15089  0.56471  1.0000
  F   F51       1.0  0.06568  0.67831  0.04296  1.0000
  F   F52       1.0  0.06588  0.67039  0.53839  1.0000
  F   F53       1.0  0.30800  0.15922  0.06522  1.0000
  F   F54       1.0  0.30648  0.16774  0.55267  1.0000
  F   F55       1.0  0.31533  0.66837  0.04394  1.0000
  F   F56       1.0  0.31987  0.64455  0.54381  1.0000
  F   F57       1.0  0.56637  0.16674  0.04788  1.0000
  F   F58       1.0  0.56444  0.16383  0.55375  1.0000
  F   F59       1.0  0.57301  0.65879  0.03581  1.0000
  F   F60       1.0  0.55340  0.65090  0.57023  1.0000
  F   F61       1.0  0.80659  0.16185  0.06355  1.0000
  F   F62       1.0  0.80601  0.14323  0.57333  1.0000
  F   F63       1.0  0.81775  0.66328  0.05325  1.0000
  F   F64       1.0  0.81259  0.66940  0.55631  1.0000
  F   F65       1.0  0.19789  0.21671  0.20660  1.0000
  F   F66       1.0  0.21053  0.20746  0.70523  1.0000
  F   F67       1.0  0.20017  0.71971  0.21081  1.0000
  F   F68       1.0  0.20462  0.69401  0.71260  1.0000
  F   F69       1.0  0.44895  0.18401  0.20516  1.0000
  F   F70       1.0  0.44990  0.20135  0.72503  1.0000
  F   F71       1.0  0.46493  0.70089  0.19755  1.0000
  F   F72       1.0  0.45047  0.70234  0.71439  1.0000
  F   F73       1.0  0.69646  0.19717  0.20970  1.0000
  F   F74       1.0  0.70494  0.20229  0.71650  1.0000
  F   F75       1.0  0.70170  0.70980  0.21629  1.0000
  F   F76       1.0  0.70476  0.68270  0.70399  1.0000
  F   F77       1.0  0.95981  0.19423  0.20944  1.0000
  F   F78       1.0  0.94726  0.19721  0.72239  1.0000
  F   F79       1.0  0.95582  0.70223  0.22584  1.0000
  F   F80       1.0  0.95888  0.70278  0.71225  1.0000
  F   F81       1.0  0.15273  0.08720  0.02421  1.0000
  F   F82       1.0  0.14973  0.10483  0.53702  1.0000
  F   F83       1.0  0.14957  0.61254  0.04041  1.0000
  F   F84       1.0  0.14994  0.58805  0.54308  1.0000
  F   F85       1.0  0.39749  0.10642  0.04409  1.0000
  F   F86       1.0  0.39373  0.09617  0.53580  1.0000
  F   F87       1.0  0.39949  0.59334  0.03577  1.0000
  F   F88       1.0  0.40265  0.57970  0.52806  1.0000
  F   F89       1.0  0.65004  0.07269  0.03832  1.0000
  F   F90       1.0  0.65498  0.10574  0.52868  1.0000
  F   F91       1.0  0.64428  0.58140  0.03215  1.0000
  F   F92       1.0  0.64430  0.58569  0.55214  1.0000
  F   F93       1.0  0.89304  0.08814  0.05881  1.0000
  F   F94       1.0  0.89987  0.10838  0.53560  1.0000
  F   F95       1.0  0.90226  0.60098  0.04920  1.0000
  F   F96       1.0  0.89926  0.58966  0.54223  1.0000
  F   F97       1.0  0.14705  0.18494  0.11809  1.0000
  F   F98       1.0  0.15942  0.20518  0.61478  1.0000
  F   F99       1.0  0.15420  0.70572  0.12202  1.0000
  F   F100      1.0  0.15493  0.69399  0.61575  1.0000
  F   F101      1.0  0.39184  0.21080  0.13371  1.0000
  F   F102      1.0  0.40448  0.19411  0.62143  1.0000
  F   F103      1.0  0.39972  0.69197  0.13428  1.0000
  F   F104      1.0  0.40537  0.69118  0.60777  1.0000
  F   F105      1.0  0.65025  0.19504  0.10283  1.0000
  F   F106      1.0  0.65330  0.19452  0.63632  1.0000
  F   F107      1.0  0.65315  0.69608  0.11527  1.0000
  F   F108      1.0  0.64655  0.69519  0.62701  1.0000
  F   F109      1.0  0.90697  0.19481  0.12872  1.0000
  F   F110      1.0  0.90174  0.18840  0.63811  1.0000
  F   F111      1.0  0.90135  0.69638  0.14562  1.0000
  F   F112      1.0  0.90537  0.69642  0.61012  1.0000
  F   F113      1.0  0.10200  0.29995  0.38969  1.0000
  F   F114      1.0  0.10502  0.31356  0.87697  1.0000
  F   F115      1.0  0.09983  0.81895  0.35937  1.0000
  F   F116      1.0  0.09813  0.80342  0.87137  1.0000
  F   F117      1.0  0.34725  0.31156  0.37772  1.0000
  F   F118      1.0  0.34832  0.30999  0.87876  1.0000
  F   F119      1.0  0.35089  0.80020  0.37772  1.0000
  F   F120      1.0  0.34535  0.80697  0.85904  1.0000
  F   F121      1.0  0.60178  0.29941  0.36044  1.0000
  F   F122      1.0  0.59870  0.31209  0.85694  1.0000
  F   F123      1.0  0.59865  0.79451  0.38114  1.0000
  F   F124      1.0  0.59564  0.80807  0.88150  1.0000
  F   F125      1.0  0.85245  0.29130  0.39292  1.0000
  F   F126      1.0  0.84376  0.30612  0.87523  1.0000
  F   F127      1.0  0.84770  0.80408  0.38020  1.0000
  F   F128      1.0  0.85015  0.79506  0.85858  1.0000
  F   F129      1.0  0.06120  0.25708  0.13535  1.0000
  F   F130      1.0  0.07540  0.25206  0.63359  1.0000
  F   F131      1.0  0.05862  0.75112  0.15420  1.0000
  F   F132      1.0  0.06274  0.75421  0.63857  1.0000
  F   F133      1.0  0.31150  0.25972  0.14431  1.0000
  F   F134      1.0  0.31588  0.26254  0.63123  1.0000
  F   F135      1.0  0.32091  0.75571  0.14132  1.0000
  F   F136      1.0  0.31714  0.74693  0.63065  1.0000
  F   F137      1.0  0.55904  0.24867  0.15313  1.0000
  F   F138      1.0  0.56739  0.24711  0.64806  1.0000
  F   F139      1.0  0.56282  0.74653  0.14005  1.0000
  F   F140      1.0  0.56628  0.75081  0.63923  1.0000
  F   F141      1.0  0.81432  0.24477  0.14946  1.0000
  F   F142      1.0  0.81624  0.25202  0.63467  1.0000
  F   F143      1.0  0.80524  0.74943  0.16839  1.0000
  F   F144      1.0  0.81642  0.75002  0.64802  1.0000
  F   F145      1.0  0.12461  0.34435  0.12932  1.0000
  F   F146      1.0  0.12902  0.37652  0.59968  1.0000
  F   F147      1.0  0.12636  0.87715  0.10596  1.0000
  F   F148      1.0  0.12045  0.85971  0.61027  1.0000
  F   F149      1.0  0.37272  0.39193  0.09590  1.0000
  F   F150      1.0  0.36989  0.36140  0.62680  1.0000
  F   F151      1.0  0.37651  0.88818  0.09404  1.0000
  F   F152      1.0  0.37435  0.85203  0.62447  1.0000
  F   F153      1.0  0.62420  0.37564  0.10638  1.0000
  F   F154      1.0  0.62572  0.37033  0.60331  1.0000
  F   F155      1.0  0.62272  0.86677  0.10791  1.0000
  F   F156      1.0  0.62388  0.88181  0.60232  1.0000
  F   F157      1.0  0.87392  0.38146  0.09400  1.0000
  F   F158      1.0  0.87303  0.34925  0.62517  1.0000
  F   F159      1.0  0.87000  0.86822  0.11626  1.0000
  F   F160      1.0  0.87562  0.84627  0.63839  1.0000
  F   F161      1.0  0.18892  0.25098  0.36181  1.0000
  F   F162      1.0  0.19298  0.26160  0.83967  1.0000
  F   F163      1.0  0.17959  0.74543  0.37096  1.0000
  F   F164      1.0  0.18891  0.76065  0.85513  1.0000
  F   F165      1.0  0.43542  0.24667  0.34358  1.0000
  F   F166      1.0  0.43258  0.25119  0.86779  1.0000
  F   F167      1.0  0.43664  0.74507  0.36135  1.0000
  F   F168      1.0  0.42795  0.75207  0.85955  1.0000
  F   F169      1.0  0.68449  0.24488  0.35134  1.0000
  F   F170      1.0  0.67797  0.24161  0.87848  1.0000
  F   F171      1.0  0.68957  0.74440  0.36241  1.0000
  F   F172      1.0  0.68961  0.74518  0.83959  1.0000
  F   F173      1.0  0.93783  0.24647  0.35163  1.0000
  F   F174      1.0  0.92683  0.24856  0.86819  1.0000
  F   F175      1.0  0.93477  0.74212  0.36869  1.0000
  F   F176      1.0  0.93420  0.74876  0.85977  1.0000
  F   F177      1.0  0.12972  0.14267  0.38087  1.0000
  F   F178      1.0  0.12918  0.15193  0.86832  1.0000
  F   F179      1.0  0.12587  0.62951  0.39497  1.0000
  F   F180      1.0  0.12599  0.63027  0.89861  1.0000
  F   F181      1.0  0.37025  0.13352  0.39192  1.0000
  F   F182      1.0  0.36989  0.11603  0.91136  1.0000
  F   F183      1.0  0.37782  0.63365  0.36774  1.0000
  F   F184      1.0  0.37356  0.61919  0.89426  1.0000
  F   F185      1.0  0.62330  0.12278  0.40397  1.0000
  F   F186      1.0  0.62547  0.13572  0.89209  1.0000
  F   F187      1.0  0.62503  0.62620  0.40170  1.0000
  F   F188      1.0  0.62945  0.64060  0.86040  1.0000
  F   F189      1.0  0.87496  0.12554  0.40440  1.0000
  F   F190      1.0  0.87298  0.12529  0.90424  1.0000
  F   F191      1.0  0.87589  0.62774  0.39987  1.0000
  F   F192      1.0  0.88028  0.61880  0.91060  1.0000
  F   F193      1.0  0.00530  0.36711  0.07503  1.0000
  F   F194      1.0  0.00728  0.34507  0.59217  1.0000
  F   F195      1.0  0.00657  0.86055  0.07533  1.0000
  F   F196      1.0  0.00718  0.86614  0.56687  1.0000
  F   F197      1.0  0.25593  0.39039  0.05912  1.0000
  F   F198      1.0  0.25600  0.36589  0.57385  1.0000
  F   F199      1.0  0.26019  0.85237  0.08201  1.0000
  F   F200      1.0  0.25555  0.85299  0.58566  1.0000
  F   F201      1.0  0.50323  0.34046  0.08431  1.0000
  F   F202      1.0  0.50683  0.35875  0.58097  1.0000
  F   F203      1.0  0.50086  0.86492  0.08215  1.0000
  F   F204      1.0  0.51237  0.86527  0.55885  1.0000
  F   F205      1.0  0.75656  0.35422  0.09229  1.0000
  F   F206      1.0  0.75576  0.36369  0.57453  1.0000
  F   F207      1.0  0.75354  0.86844  0.07882  1.0000
  F   F208      1.0  0.75483  0.84926  0.59108  1.0000
  F   F209      1.0  0.07286  0.48811  0.16392  1.0000
  F   F210      1.0  0.06791  0.48640  0.67458  1.0000
  F   F211      1.0  0.06619  0.00006  0.16396  1.0000
  F   F212      1.0  0.06975  0.98908  0.67473  1.0000
  F   F213      1.0  0.31098  0.49221  0.19253  1.0000
  F   F214      1.0  0.31867  0.48908  0.67336  1.0000
  F   F215      1.0  0.31567  0.98017  0.18582  1.0000
  F   F216      1.0  0.31393  0.98454  0.67846  1.0000
  F   F217      1.0  0.56725  0.48175  0.18661  1.0000
  F   F218      1.0  0.56750  0.47943  0.68473  1.0000
  F   F219      1.0  0.56707  0.98796  0.17262  1.0000
  F   F220      1.0  0.56813  0.99020  0.67423  1.0000
  F   F221      1.0  0.81936  0.48303  0.18353  1.0000
  F   F222      1.0  0.81742  0.48450  0.67692  1.0000
  F   F223      1.0  0.81168  0.98551  0.18173  1.0000
  F   F224      1.0  0.81854  0.98385  0.67427  1.0000
  F   F225      1.0  0.24087  0.13356  0.43903  1.0000
  F   F226      1.0  0.24306  0.13976  0.92814  1.0000
  F   F227      1.0  0.24285  0.65843  0.40799  1.0000
  F   F228      1.0  0.24551  0.63124  0.92338  1.0000
  F   F229      1.0  0.49251  0.13750  0.42521  1.0000
  F   F230      1.0  0.49049  0.13219  0.92930  1.0000
  F   F231      1.0  0.49451  0.62899  0.42914  1.0000
  F   F232      1.0  0.49451  0.63511  0.92761  1.0000
  F   F233      1.0  0.74505  0.14172  0.41732  1.0000
  F   F234      1.0  0.74347  0.13454  0.92456  1.0000
  F   F235      1.0  0.74340  0.63467  0.42983  1.0000
  F   F236      1.0  0.74213  0.64342  0.93029  1.0000
  F   F237      1.0  0.99457  0.13734  0.42389  1.0000
  F   F238      1.0  0.99110  0.14526  0.92466  1.0000
  F   F239      1.0  0.99708  0.62918  0.41404  1.0000
  F   F240      1.0  0.99516  0.64272  0.91545  1.0000
  F   F241      1.0  0.17770  0.02315  0.31782  1.0000
  F   F242      1.0  0.17578  0.01362  0.83149  1.0000
  F   F243      1.0  0.18403  0.52437  0.30600  1.0000
  F   F244      1.0  0.18141  0.51729  0.81948  1.0000
  F   F245      1.0  0.42804  0.00903  0.32523  1.0000
  F   F246      1.0  0.42909  0.00120  0.83151  1.0000
  F   F247      1.0  0.43577  0.51253  0.33383  1.0000
  F   F248      1.0  0.43021  0.51719  0.80452  1.0000
  F   F249      1.0  0.67883  0.00643  0.32920  1.0000
  F   F250      1.0  0.67903  0.01672  0.82696  1.0000
  F   F251      1.0  0.68152  0.51063  0.32740  1.0000
  F   F252      1.0  0.68350  0.50860  0.82854  1.0000
  F   F253      1.0  0.93079  0.02358  0.31263  1.0000
  F   F254      1.0  0.93190  0.00830  0.83732  1.0000
  F   F255      1.0  0.93244  0.51113  0.32333  1.0000
  F   F256      1.0  0.93785  0.52153  0.79748  1.0000
  F   F257      1.0  0.00248  0.27187  0.97961  1.0000
  F   F258      1.0  0.99839  0.23934  0.50895  1.0000
  F   F259      1.0  0.99486  0.73651  0.01750  1.0000
  F   F260      1.0  0.99747  0.74775  0.49138  1.0000
  F   F261      1.0  0.24554  0.25728  0.00145  1.0000
  F   F262      1.0  0.25154  0.26924  0.48391  1.0000
  F   F263      1.0  0.24946  0.75905  0.99703  1.0000
  F   F264      1.0  0.25407  0.74483  0.50275  1.0000
  F   F265      1.0  0.49718  0.24356  0.99812  1.0000
  F   F266      1.0  0.50080  0.25008  0.50856  1.0000
  F   F267      1.0  0.50580  0.75506  0.99303  1.0000
  F   F268      1.0  0.49705  0.74792  0.49637  1.0000
  F   F269      1.0  0.75138  0.26123  0.99313  1.0000
  F   F270      1.0  0.75615  0.25498  0.49734  1.0000
  F   F271      1.0  0.74838  0.75102  0.00316  1.0000
  F   F272      1.0  0.75160  0.76989  0.49284  1.0000
  F   F273      1.0  0.11775  0.99756  0.24909  1.0000
  F   F274      1.0  0.12552  0.99791  0.74188  1.0000
  F   F275      1.0  0.11965  0.49549  0.26101  1.0000
  F   F276      1.0  0.12505  0.50741  0.74475  1.0000
  F   F277      1.0  0.37357  0.99307  0.24923  1.0000
  F   F278      1.0  0.37157  0.00815  0.73354  1.0000
  F   F279      1.0  0.37719  0.49507  0.24762  1.0000
  F   F280      1.0  0.36736  0.49721  0.75479  1.0000
  F   F281      1.0  0.61723  0.99663  0.25828  1.0000
  F   F282      1.0  0.62309  0.99902  0.74878  1.0000
  F   F283      1.0  0.62468  0.50533  0.25351  1.0000
  F   F284      1.0  0.62804  0.49459  0.76050  1.0000
  F   F285      1.0  0.86689  0.97906  0.26523  1.0000
  F   F286      1.0  0.88002  0.99038  0.75059  1.0000
  F   F287      1.0  0.87089  0.48858  0.26748  1.0000
  F   F288      1.0  0.87458  0.50297  0.75004  1.0000
  F   F289      1.0  0.04731  0.03858  0.01969  1.0000
  F   F290      1.0  0.04678  0.03600  0.50930  1.0000
  F   F291      1.0  0.03528  0.54506  0.03467  1.0000
  F   F292      1.0  0.04142  0.53907  0.52247  1.0000
  F   F293      1.0  0.29529  0.02302  0.01871  1.0000
  F   F294      1.0  0.28982  0.03567  0.53011  1.0000
  F   F295      1.0  0.28990  0.54151  0.02781  1.0000
  F   F296      1.0  0.29538  0.52266  0.51569  1.0000
  F   F297      1.0  0.54379  0.02502  0.02045  1.0000
  F   F298      1.0  0.53883  0.03754  0.53043  1.0000
  F   F299      1.0  0.54427  0.52241  0.02523  1.0000
  F   F300      1.0  0.54660  0.51759  0.53096  1.0000
  F   F301      1.0  0.79367  0.03341  0.01913  1.0000
  F   F302      1.0  0.79416  0.02703  0.52172  1.0000
  F   F303      1.0  0.78856  0.53210  0.03325  1.0000
  F   F304      1.0  0.79735  0.53083  0.52714  1.0000
  F   F305      1.0  0.23781  0.39967  0.24151  1.0000
  F   F306      1.0  0.23840  0.41151  0.73156  1.0000
  F   F307      1.0  0.23678  0.89789  0.23998  1.0000
  F   F308      1.0  0.22955  0.92700  0.71761  1.0000
  F   F309      1.0  0.47987  0.41631  0.22380  1.0000
  F   F310      1.0  0.48266  0.40336  0.73826  1.0000
  F   F311      1.0  0.48872  0.89661  0.24355  1.0000
  F   F312      1.0  0.48819  0.90460  0.73467  1.0000
  F   F313      1.0  0.73530  0.40334  0.24546  1.0000
  F   F314      1.0  0.73342  0.40506  0.73677  1.0000
  F   F315      1.0  0.72948  0.91161  0.22588  1.0000
  F   F316      1.0  0.73256  0.91675  0.72206  1.0000
  F   F317      1.0  0.98638  0.40447  0.23068  1.0000
  F   F318      1.0  0.98704  0.40666  0.72981  1.0000
  F   F319      1.0  0.98659  0.90350  0.23355  1.0000
  F   F320      1.0  0.98578  0.92805  0.71572  1.0000
  F   F321      1.0  0.20513  0.48687  0.47983  1.0000
  F   F322      1.0  0.19888  0.47440  0.98234  1.0000
  F   F323      1.0  0.20713  0.96989  0.47963  1.0000
  F   F324      1.0  0.21317  0.96933  0.96916  1.0000
  F   F325      1.0  0.45554  0.45623  0.48800  1.0000
  F   F326      1.0  0.45694  0.47488  0.97046  1.0000
  F   F327      1.0  0.44926  0.97899  0.46982  1.0000
  F   F328      1.0  0.45260  0.97342  0.98604  1.0000
  F   F329      1.0  0.70609  0.47041  0.47457  1.0000
  F   F330      1.0  0.71715  0.46526  0.96140  1.0000
  F   F331      1.0  0.70727  0.96760  0.48965  1.0000
  F   F332      1.0  0.71132  0.96218  0.98217  1.0000
  F   F333      1.0  0.95647  0.46626  0.47749  1.0000
  F   F334      1.0  0.95780  0.47197  0.97488  1.0000
  F   F335      1.0  0.95570  0.97158  0.48267  1.0000
  F   F336      1.0  0.96211  0.97341  0.98125  1.0000
  F   F337      1.0  0.01445  0.06879  0.28873  1.0000
  F   F338      1.0  0.01008  0.09587  0.76928  1.0000
  F   F339      1.0  0.01822  0.58357  0.26226  1.0000
  F   F340      1.0  0.02141  0.58001  0.76894  1.0000
  F   F341      1.0  0.26113  0.08994  0.27998  1.0000
  F   F342      1.0  0.26774  0.09462  0.76894  1.0000
  F   F343      1.0  0.26352  0.61850  0.23569  1.0000
  F   F344      1.0  0.26637  0.59091  0.75757  1.0000
  F   F345      1.0  0.51997  0.09321  0.27236  1.0000
  F   F346      1.0  0.51426  0.08745  0.77177  1.0000
  F   F347      1.0  0.51779  0.57673  0.27912  1.0000
  F   F348      1.0  0.51121  0.59706  0.76965  1.0000
  F   F349      1.0  0.75915  0.09051  0.27648  1.0000
  F   F350      1.0  0.77054  0.07998  0.78205  1.0000
  F   F351      1.0  0.76481  0.58293  0.27218  1.0000
  F   F352      1.0  0.77109  0.59354  0.77207  1.0000
  F   F353      1.0  0.09956  0.42709  0.46801  1.0000
  F   F354      1.0  0.09919  0.42980  0.95721  1.0000
  F   F355      1.0  0.10199  0.91178  0.45380  1.0000
  F   F356      1.0  0.09615  0.91030  0.96904  1.0000
  F   F357      1.0  0.36106  0.42392  0.46203  1.0000
  F   F358      1.0  0.34662  0.41969  0.95385  1.0000
  F   F359      1.0  0.35059  0.90329  0.46368  1.0000
  F   F360      1.0  0.35397  0.90309  0.95243  1.0000
  F   F361      1.0  0.60395  0.38345  0.46387  1.0000
  F   F362      1.0  0.59438  0.39898  0.96775  1.0000
  F   F363      1.0  0.59760  0.91171  0.46063  1.0000
  F   F364      1.0  0.60418  0.91572  0.94484  1.0000
  F   F365      1.0  0.85381  0.40913  0.46745  1.0000
  F   F366      1.0  0.85810  0.43219  0.94361  1.0000
  F   F367      1.0  0.85427  0.90636  0.47189  1.0000
  F   F368      1.0  0.84871  0.89972  0.96095  1.0000
  F   F369      1.0  0.05042  0.30135  0.28176  1.0000
  F   F370      1.0  0.05549  0.30242  0.77978  1.0000
  F   F371      1.0  0.05104  0.80651  0.28047  1.0000
  F   F372      1.0  0.03627  0.80427  0.78740  1.0000
  F   F373      1.0  0.29994  0.29890  0.28606  1.0000
  F   F374      1.0  0.29418  0.29776  0.80076  1.0000
  F   F375      1.0  0.30815  0.81075  0.27543  1.0000
  F   F376      1.0  0.28182  0.79842  0.78290  1.0000
  F   F377      1.0  0.53884  0.30606  0.29870  1.0000
  F   F378      1.0  0.54471  0.28842  0.79254  1.0000
  F   F379      1.0  0.54446  0.79383  0.29872  1.0000
  F   F380      1.0  0.55031  0.79425  0.78946  1.0000
  F   F381      1.0  0.80427  0.29121  0.29070  1.0000
  F   F382      1.0  0.79411  0.29230  0.79342  1.0000
  F   F383      1.0  0.79309  0.80648  0.30046  1.0000
  F   F384      1.0  0.78728  0.80480  0.79916  1.0000
