data_image0
_chemical_formula_structural       Hf96F384
_chemical_formula_sum              "Hf96 F384"
_cell_length_a       31.063
_cell_length_b       15.5235
_cell_length_c       15.5153
_cell_angle_alpha    63.342
_cell_angle_beta     63.342
_cell_angle_gamma    80.1625

_space_group_name_H-M_alt    "P 1"
_space_group_IT_number       1

loop_
  _space_group_symop_operation_xyz
  'x, y, z'

loop_
  _atom_site_type_symbol
  _atom_site_label
  _atom_site_symmetry_multiplicity
  _atom_site_fract_x
  _atom_site_fract_y
  _atom_site_fract_z
  _atom_site_occupancy
  Hf  Hf1       1.0  0.19640  0.11286  0.36613  1.0000
  Hf  Hf2       1.0  0.19696  0.10419  0.88353  1.0000
  Hf  Hf3       1.0  0.19447  0.60588  0.38599  1.0000
  Hf  Hf4       1.0  0.19726  0.60742  0.88026  1.0000
  Hf  Hf5       1.0  0.44673  0.10539  0.38549  1.0000
  Hf  Hf6       1.0  0.44657  0.10030  0.88497  1.0000
  Hf  Hf7       1.0  0.44606  0.60222  0.37461  1.0000
  Hf  Hf8       1.0  0.44730  0.60444  0.86812  1.0000
  Hf  Hf9       1.0  0.69554  0.10802  0.37880  1.0000
  Hf  Hf10      1.0  0.69569  0.10985  0.87862  1.0000
  Hf  Hf11      1.0  0.69986  0.61241  0.37462  1.0000
  Hf  Hf12      1.0  0.69338  0.61263  0.87255  1.0000
  Hf  Hf13      1.0  0.94309  0.10658  0.38303  1.0000
  Hf  Hf14      1.0  0.94575  0.10186  0.87892  1.0000
  Hf  Hf15      1.0  0.94725  0.60137  0.38058  1.0000
  Hf  Hf16      1.0  0.94712  0.60845  0.85981  1.0000
  Hf  Hf17      1.0  0.05482  0.38990  0.12749  1.0000
  Hf  Hf18      1.0  0.05352  0.38938  0.62635  1.0000
  Hf  Hf19      1.0  0.05308  0.89894  0.11240  1.0000
  Hf  Hf20      1.0  0.05399  0.89498  0.62274  1.0000
  Hf  Hf21      1.0  0.30587  0.39019  0.13046  1.0000
  Hf  Hf22      1.0  0.30571  0.39311  0.62037  1.0000
  Hf  Hf23      1.0  0.30133  0.90023  0.13632  1.0000
  Hf  Hf24      1.0  0.30217  0.90033  0.63063  1.0000
  Hf  Hf25      1.0  0.55570  0.40349  0.10166  1.0000
  Hf  Hf26      1.0  0.55372  0.39276  0.62351  1.0000
  Hf  Hf27      1.0  0.55440  0.89359  0.12559  1.0000
  Hf  Hf28      1.0  0.54812  0.89330  0.63079  1.0000
  Hf  Hf29      1.0  0.80561  0.39302  0.11257  1.0000
  Hf  Hf30      1.0  0.80677  0.40538  0.61142  1.0000
  Hf  Hf31      1.0  0.80475  0.89386  0.11732  1.0000
  Hf  Hf32      1.0  0.80800  0.89667  0.61332  1.0000
  Hf  Hf33      1.0  0.05610  0.18438  0.41827  1.0000
  Hf  Hf34      1.0  0.05798  0.18561  0.90184  1.0000
  Hf  Hf35      1.0  0.05661  0.68433  0.41316  1.0000
  Hf  Hf36      1.0  0.05596  0.67910  0.91865  1.0000
  Hf  Hf37      1.0  0.30488  0.18414  0.41449  1.0000
  Hf  Hf38      1.0  0.30916  0.17963  0.91130  1.0000
  Hf  Hf39      1.0  0.30771  0.67296  0.42415  1.0000
  Hf  Hf40      1.0  0.30632  0.68558  0.92444  1.0000
  Hf  Hf41      1.0  0.55359  0.17683  0.42332  1.0000
  Hf  Hf42      1.0  0.55567  0.19205  0.91268  1.0000
  Hf  Hf43      1.0  0.55938  0.68172  0.42430  1.0000
  Hf  Hf44      1.0  0.55491  0.68273  0.91532  1.0000
  Hf  Hf45      1.0  0.80613  0.17626  0.41962  1.0000
  Hf  Hf46      1.0  0.80178  0.18079  0.91420  1.0000
  Hf  Hf47      1.0  0.80986  0.68759  0.40118  1.0000
  Hf  Hf48      1.0  0.80513  0.68615  0.91164  1.0000
  Hf  Hf49      1.0  0.15804  0.38466  0.33747  1.0000
  Hf  Hf50      1.0  0.15815  0.38901  0.83646  1.0000
  Hf  Hf51      1.0  0.15785  0.88694  0.33276  1.0000
  Hf  Hf52      1.0  0.16067  0.88846  0.83680  1.0000
  Hf  Hf53      1.0  0.40662  0.39033  0.33212  1.0000
  Hf  Hf54      1.0  0.40792  0.38247  0.83393  1.0000
  Hf  Hf55      1.0  0.40842  0.88258  0.33804  1.0000
  Hf  Hf56      1.0  0.40310  0.88455  0.84017  1.0000
  Hf  Hf57      1.0  0.65713  0.38737  0.33754  1.0000
  Hf  Hf58      1.0  0.66337  0.38941  0.82641  1.0000
  Hf  Hf59      1.0  0.65761  0.88462  0.33819  1.0000
  Hf  Hf60      1.0  0.65866  0.89045  0.83850  1.0000
  Hf  Hf61      1.0  0.90662  0.38729  0.33463  1.0000
  Hf  Hf62      1.0  0.91358  0.38378  0.82622  1.0000
  Hf  Hf63      1.0  0.91251  0.89452  0.32719  1.0000
  Hf  Hf64      1.0  0.90749  0.88718  0.83705  1.0000
  Hf  Hf65      1.0  0.19850  0.32057  0.07536  1.0000
  Hf  Hf66      1.0  0.19400  0.31061  0.59050  1.0000
  Hf  Hf67      1.0  0.19479  0.81181  0.08435  1.0000
  Hf  Hf68      1.0  0.19772  0.81996  0.57859  1.0000
  Hf  Hf69      1.0  0.44044  0.32049  0.08201  1.0000
  Hf  Hf70      1.0  0.44476  0.32007  0.58361  1.0000
  Hf  Hf71      1.0  0.44165  0.81647  0.08644  1.0000
  Hf  Hf72      1.0  0.44131  0.80780  0.58633  1.0000
  Hf  Hf73      1.0  0.69226  0.31774  0.09126  1.0000
  Hf  Hf74      1.0  0.69510  0.30976  0.58324  1.0000
  Hf  Hf75      1.0  0.69675  0.81501  0.08168  1.0000
  Hf  Hf76      1.0  0.69193  0.83020  0.57961  1.0000
  Hf  Hf77      1.0  0.94692  0.32547  0.06986  1.0000
  Hf  Hf78      1.0  0.94467  0.31968  0.57952  1.0000
  Hf  Hf79      1.0  0.94199  0.80289  0.08975  1.0000
  Hf  Hf80      1.0  0.94455  0.82644  0.57770  1.0000
  Hf  Hf81      1.0  0.08957  0.11297  0.16887  1.0000
  Hf  Hf82      1.0  0.08977  0.10755  0.66531  1.0000
  Hf  Hf83      1.0  0.09087  0.61082  0.17250  1.0000
  Hf  Hf84      1.0  0.08918  0.60870  0.67028  1.0000
  Hf  Hf85      1.0  0.34214  0.11745  0.16337  1.0000
  Hf  Hf86      1.0  0.33805  0.11974  0.66442  1.0000
  Hf  Hf87      1.0  0.33947  0.61666  0.17100  1.0000
  Hf  Hf88      1.0  0.33818  0.60226  0.67811  1.0000
  Hf  Hf89      1.0  0.59117  0.11726  0.16548  1.0000
  Hf  Hf90      1.0  0.58921  0.10990  0.67183  1.0000
  Hf  Hf91      1.0  0.59109  0.60666  0.17759  1.0000
  Hf  Hf92      1.0  0.59439  0.61380  0.66715  1.0000
  Hf  Hf93      1.0  0.84036  0.11173  0.16445  1.0000
  Hf  Hf94      1.0  0.84427  0.11898  0.65957  1.0000
  Hf  Hf95      1.0  0.84031  0.60388  0.16352  1.0000
  Hf  Hf96      1.0  0.84416  0.61394  0.65727  1.0000
  F   F1        1.0  0.08185  0.13443  0.29542  1.0000
  F   F2        1.0  0.07249  0.13223  0.79715  1.0000
  F   F3        1.0  0.07832  0.62269  0.31006  1.0000
  F   F4        1.0  0.07436  0.62870  0.80317  1.0000
  F   F5        1.0  0.34068  0.13704  0.29363  1.0000
  F   F6        1.0  0.32584  0.11907  0.80642  1.0000
  F   F7        1.0  0.33160  0.62483  0.31173  1.0000
  F   F8        1.0  0.32617  0.62384  0.80572  1.0000
  F   F9        1.0  0.57729  0.12473  0.31826  1.0000
  F   F10       1.0  0.58401  0.14681  0.78921  1.0000
  F   F11       1.0  0.58276  0.62296  0.30584  1.0000
  F   F12       1.0  0.58321  0.63574  0.79159  1.0000
  F   F13       1.0  0.82842  0.10201  0.31187  1.0000
  F   F14       1.0  0.82799  0.14734  0.78561  1.0000
  F   F15       1.0  0.82867  0.60867  0.30598  1.0000
  F   F16       1.0  0.83289  0.63477  0.78363  1.0000
  F   F17       1.0  0.17699  0.32798  0.45763  1.0000
  F   F18       1.0  0.19590  0.34958  0.93610  1.0000
  F   F19       1.0  0.17785  0.83978  0.46359  1.0000
  F   F20       1.0  0.17032  0.82326  0.97638  1.0000
  F   F21       1.0  0.43283  0.33596  0.44580  1.0000
  F   F22       1.0  0.44588  0.35415  0.93956  1.0000
  F   F23       1.0  0.43565  0.82673  0.44920  1.0000
  F   F24       1.0  0.42696  0.84010  0.95482  1.0000
  F   F25       1.0  0.69136  0.33664  0.43833  1.0000
  F   F26       1.0  0.68156  0.33975  0.94908  1.0000
  F   F27       1.0  0.69020  0.85351  0.43963  1.0000
  F   F28       1.0  0.68501  0.84773  0.94837  1.0000
  F   F29       1.0  0.93619  0.33342  0.45426  1.0000
  F   F30       1.0  0.94598  0.34869  0.93061  1.0000
  F   F31       1.0  0.94799  0.87324  0.43060  1.0000
  F   F32       1.0  0.92436  0.81770  0.96463  1.0000
  F   F33       1.0  0.17586  0.38548  0.17705  1.0000
  F   F34       1.0  0.16956  0.37314  0.69993  1.0000
  F   F35       1.0  0.16768  0.86054  0.20360  1.0000
  F   F36       1.0  0.17085  0.88245  0.69396  1.0000
  F   F37       1.0  0.41877  0.39159  0.18705  1.0000
  F   F38       1.0  0.41789  0.35529  0.70917  1.0000
  F   F39       1.0  0.42149  0.84822  0.20730  1.0000
  F   F40       1.0  0.41004  0.84667  0.70584  1.0000
  F   F41       1.0  0.67316  0.37977  0.19939  1.0000
  F   F42       1.0  0.67268  0.37705  0.69043  1.0000
  F   F43       1.0  0.67930  0.87885  0.19191  1.0000
  F   F44       1.0  0.67299  0.87837  0.69633  1.0000
  F   F45       1.0  0.91876  0.35572  0.19621  1.0000
  F   F46       1.0  0.91937  0.36155  0.70080  1.0000
  F   F47       1.0  0.92198  0.85141  0.20225  1.0000
  F   F48       1.0  0.91818  0.88304  0.69644  1.0000
  F   F49       1.0  0.07081  0.16308  0.04022  1.0000
  F   F50       1.0  0.05981  0.15006  0.55860  1.0000
  F   F51       1.0  0.06501  0.64860  0.05989  1.0000
  F   F52       1.0  0.07394  0.66786  0.55158  1.0000
  F   F53       1.0  0.31871  0.16781  0.04211  1.0000
  F   F54       1.0  0.30079  0.15670  0.57042  1.0000
  F   F55       1.0  0.29734  0.65164  0.07485  1.0000
  F   F56       1.0  0.32249  0.67169  0.54561  1.0000
  F   F57       1.0  0.56114  0.16402  0.06009  1.0000
  F   F58       1.0  0.56046  0.15242  0.56529  1.0000
  F   F59       1.0  0.56620  0.65428  0.05609  1.0000
  F   F60       1.0  0.56254  0.66269  0.56302  1.0000
  F   F61       1.0  0.81857  0.15940  0.04096  1.0000
  F   F62       1.0  0.81232  0.14935  0.56240  1.0000
  F   F63       1.0  0.80440  0.63542  0.06130  1.0000
  F   F64       1.0  0.82033  0.65539  0.54176  1.0000
  F   F65       1.0  0.20026  0.19977  0.20315  1.0000
  F   F66       1.0  0.20495  0.20006  0.71416  1.0000
  F   F67       1.0  0.20535  0.69351  0.22183  1.0000
  F   F68       1.0  0.21143  0.70443  0.70764  1.0000
  F   F69       1.0  0.44338  0.20732  0.20783  1.0000
  F   F70       1.0  0.46157  0.20590  0.71399  1.0000
  F   F71       1.0  0.44894  0.68507  0.22294  1.0000
  F   F72       1.0  0.45927  0.69923  0.70094  1.0000
  F   F73       1.0  0.69358  0.19783  0.22332  1.0000
  F   F74       1.0  0.70861  0.19589  0.71549  1.0000
  F   F75       1.0  0.69813  0.70162  0.21291  1.0000
  F   F76       1.0  0.68270  0.70370  0.72698  1.0000
  F   F77       1.0  0.95340  0.20148  0.18503  1.0000
  F   F78       1.0  0.95256  0.19185  0.71461  1.0000
  F   F79       1.0  0.95590  0.69076  0.21864  1.0000
  F   F80       1.0  0.94893  0.69391  0.71239  1.0000
  F   F81       1.0  0.14641  0.07393  0.04148  1.0000
  F   F82       1.0  0.14765  0.10084  0.52853  1.0000
  F   F83       1.0  0.15481  0.60903  0.03022  1.0000
  F   F84       1.0  0.15024  0.56519  0.55887  1.0000
  F   F85       1.0  0.40077  0.07091  0.04002  1.0000
  F   F86       1.0  0.40273  0.10937  0.54760  1.0000
  F   F87       1.0  0.39484  0.60895  0.03990  1.0000
  F   F88       1.0  0.40093  0.58652  0.55989  1.0000
  F   F89       1.0  0.65135  0.09699  0.04207  1.0000
  F   F90       1.0  0.64795  0.10140  0.53341  1.0000
  F   F91       1.0  0.64834  0.59259  0.04768  1.0000
  F   F92       1.0  0.65334  0.58778  0.54985  1.0000
  F   F93       1.0  0.89828  0.08623  0.03679  1.0000
  F   F94       1.0  0.89901  0.09587  0.53573  1.0000
  F   F95       1.0  0.90117  0.60831  0.03639  1.0000
  F   F96       1.0  0.90096  0.58030  0.52338  1.0000
  F   F97       1.0  0.14909  0.18856  0.10384  1.0000
  F   F98       1.0  0.15608  0.18264  0.62936  1.0000
  F   F99       1.0  0.14681  0.70512  0.14984  1.0000
  F   F100      1.0  0.14941  0.69350  0.63160  1.0000
  F   F101      1.0  0.39938  0.20720  0.09725  1.0000
  F   F102      1.0  0.39437  0.19640  0.65757  1.0000
  F   F103      1.0  0.40029  0.69619  0.13176  1.0000
  F   F104      1.0  0.39307  0.70638  0.63389  1.0000
  F   F105      1.0  0.64697  0.21172  0.11873  1.0000
  F   F106      1.0  0.65473  0.20434  0.62303  1.0000
  F   F107      1.0  0.64995  0.70352  0.12459  1.0000
  F   F108      1.0  0.65415  0.70297  0.60720  1.0000
  F   F109      1.0  0.89428  0.19734  0.12070  1.0000
  F   F110      1.0  0.90242  0.19777  0.62933  1.0000
  F   F111      1.0  0.89523  0.69463  0.14769  1.0000
  F   F112      1.0  0.90975  0.69627  0.59000  1.0000
  F   F113      1.0  0.10418  0.30342  0.37017  1.0000
  F   F114      1.0  0.09683  0.30792  0.85550  1.0000
  F   F115      1.0  0.09314  0.80756  0.37726  1.0000
  F   F116      1.0  0.10105  0.81471  0.88000  1.0000
  F   F117      1.0  0.35060  0.30385  0.38598  1.0000
  F   F118      1.0  0.34840  0.30086  0.86454  1.0000
  F   F119      1.0  0.34495  0.80081  0.36823  1.0000
  F   F120      1.0  0.34551  0.78782  0.91721  1.0000
  F   F121      1.0  0.60342  0.29898  0.41587  1.0000
  F   F122      1.0  0.60445  0.29971  0.86587  1.0000
  F   F123      1.0  0.59860  0.80170  0.38917  1.0000
  F   F124      1.0  0.60313  0.79664  0.87100  1.0000
  F   F125      1.0  0.84893  0.30111  0.38746  1.0000
  F   F126      1.0  0.85104  0.29743  0.85272  1.0000
  F   F127      1.0  0.84834  0.81144  0.35955  1.0000
  F   F128      1.0  0.84484  0.79045  0.87565  1.0000
  F   F129      1.0  0.05670  0.25081  0.15403  1.0000
  F   F130      1.0  0.06870  0.24923  0.62109  1.0000
  F   F131      1.0  0.06406  0.74900  0.13809  1.0000
  F   F132      1.0  0.05185  0.75167  0.67022  1.0000
  F   F133      1.0  0.30811  0.24913  0.15183  1.0000
  F   F134      1.0  0.31502  0.25628  0.64314  1.0000
  F   F135      1.0  0.31315  0.74734  0.15931  1.0000
  F   F136      1.0  0.30857  0.75917  0.65709  1.0000
  F   F137      1.0  0.55688  0.25635  0.15094  1.0000
  F   F138      1.0  0.56749  0.25514  0.63012  1.0000
  F   F139      1.0  0.56433  0.75594  0.14379  1.0000
  F   F140      1.0  0.55489  0.74264  0.67187  1.0000
  F   F141      1.0  0.80878  0.24986  0.14412  1.0000
  F   F142      1.0  0.82450  0.26183  0.62027  1.0000
  F   F143      1.0  0.81910  0.75284  0.11864  1.0000
  F   F144      1.0  0.81593  0.74676  0.62912  1.0000
  F   F145      1.0  0.12355  0.36326  0.11398  1.0000
  F   F146      1.0  0.12307  0.34516  0.61623  1.0000
  F   F147      1.0  0.11593  0.87168  0.12430  1.0000
  F   F148      1.0  0.12337  0.87284  0.60607  1.0000
  F   F149      1.0  0.37236  0.35232  0.12300  1.0000
  F   F150      1.0  0.37915  0.37512  0.59926  1.0000
  F   F151      1.0  0.37611  0.87823  0.10353  1.0000
  F   F152      1.0  0.37343  0.88775  0.59194  1.0000
  F   F153      1.0  0.62839  0.37235  0.10020  1.0000
  F   F154      1.0  0.62843  0.36906  0.60821  1.0000
  F   F155      1.0  0.62822  0.87065  0.11574  1.0000
  F   F156      1.0  0.62311  0.88448  0.60910  1.0000
  F   F157      1.0  0.87363  0.36109  0.10245  1.0000
  F   F158      1.0  0.87816  0.39517  0.58614  1.0000
  F   F159      1.0  0.87606  0.87935  0.09441  1.0000
  F   F160      1.0  0.87382  0.85612  0.60732  1.0000
  F   F161      1.0  0.19465  0.25376  0.34399  1.0000
  F   F162      1.0  0.17752  0.23984  0.88721  1.0000
  F   F163      1.0  0.17805  0.74563  0.36703  1.0000
  F   F164      1.0  0.18812  0.75311  0.84986  1.0000
  F   F165      1.0  0.43859  0.25324  0.33984  1.0000
  F   F166      1.0  0.42673  0.24499  0.88212  1.0000
  F   F167      1.0  0.42538  0.74045  0.37587  1.0000
  F   F168      1.0  0.43259  0.74678  0.87022  1.0000
  F   F169      1.0  0.69167  0.25688  0.34706  1.0000
  F   F170      1.0  0.69015  0.25147  0.84749  1.0000
  F   F171      1.0  0.67854  0.74817  0.38421  1.0000
  F   F172      1.0  0.68461  0.74360  0.87072  1.0000
  F   F173      1.0  0.93718  0.24723  0.35006  1.0000
  F   F174      1.0  0.93911  0.24619  0.85305  1.0000
  F   F175      1.0  0.93021  0.75499  0.37830  1.0000
  F   F176      1.0  0.92764  0.74198  0.86397  1.0000
  F   F177      1.0  0.12730  0.13433  0.38248  1.0000
  F   F178      1.0  0.13326  0.13242  0.86951  1.0000
  F   F179      1.0  0.12986  0.64147  0.38332  1.0000
  F   F180      1.0  0.12588  0.64193  0.88630  1.0000
  F   F181      1.0  0.37414  0.13301  0.39692  1.0000
  F   F182      1.0  0.37761  0.12944  0.88275  1.0000
  F   F183      1.0  0.37243  0.60725  0.40761  1.0000
  F   F184      1.0  0.37950  0.63781  0.87177  1.0000
  F   F185      1.0  0.62339  0.13705  0.39848  1.0000
  F   F186      1.0  0.62706  0.12666  0.89930  1.0000
  F   F187      1.0  0.62682  0.62508  0.40597  1.0000
  F   F188      1.0  0.62655  0.62410  0.89382  1.0000
  F   F189      1.0  0.87683  0.13910  0.38714  1.0000
  F   F190      1.0  0.87507  0.13317  0.88010  1.0000
  F   F191      1.0  0.87392  0.61983  0.38810  1.0000
  F   F192      1.0  0.87438  0.62259  0.88991  1.0000
  F   F193      1.0  0.00623  0.37956  0.05851  1.0000
  F   F194      1.0  0.00512  0.36541  0.58726  1.0000
  F   F195      1.0  0.00846  0.85190  0.07793  1.0000
  F   F196      1.0  0.00293  0.86401  0.57606  1.0000
  F   F197      1.0  0.26012  0.35309  0.08343  1.0000
  F   F198      1.0  0.25237  0.34935  0.59659  1.0000
  F   F199      1.0  0.25588  0.87815  0.08404  1.0000
  F   F200      1.0  0.25627  0.87460  0.57412  1.0000
  F   F201      1.0  0.50377  0.36316  0.07085  1.0000
  F   F202      1.0  0.51103  0.37374  0.56543  1.0000
  F   F203      1.0  0.50997  0.85025  0.08708  1.0000
  F   F204      1.0  0.50617  0.87455  0.56266  1.0000
  F   F205      1.0  0.76037  0.36528  0.06644  1.0000
  F   F206      1.0  0.76122  0.35803  0.58292  1.0000
  F   F207      1.0  0.76116  0.84563  0.07866  1.0000
  F   F208      1.0  0.75297  0.85245  0.57822  1.0000
  F   F209      1.0  0.08139  0.48757  0.16757  1.0000
  F   F210      1.0  0.07053  0.48641  0.65954  1.0000
  F   F211      1.0  0.06273  0.98209  0.18219  1.0000
  F   F212      1.0  0.06945  0.98595  0.66930  1.0000
  F   F213      1.0  0.31934  0.48540  0.18980  1.0000
  F   F214      1.0  0.32124  0.48559  0.65911  1.0000
  F   F215      1.0  0.31640  0.98541  0.18045  1.0000
  F   F216      1.0  0.31447  0.97772  0.70945  1.0000
  F   F217      1.0  0.56837  0.48332  0.16338  1.0000
  F   F218      1.0  0.56268  0.48901  0.68032  1.0000
  F   F219      1.0  0.56561  0.98846  0.18279  1.0000
  F   F220      1.0  0.56106  0.99033  0.67360  1.0000
  F   F221      1.0  0.82408  0.47852  0.17165  1.0000
  F   F222      1.0  0.81506  0.49867  0.67336  1.0000
  F   F223      1.0  0.82268  0.99233  0.15075  1.0000
  F   F224      1.0  0.81810  0.98245  0.66662  1.0000
  F   F225      1.0  0.24391  0.12419  0.43429  1.0000
  F   F226      1.0  0.24808  0.13335  0.92098  1.0000
  F   F227      1.0  0.24100  0.63536  0.43598  1.0000
  F   F228      1.0  0.24839  0.63882  0.92060  1.0000
  F   F229      1.0  0.48624  0.14845  0.43803  1.0000
  F   F230      1.0  0.49694  0.14017  0.92047  1.0000
  F   F231      1.0  0.49355  0.65114  0.39973  1.0000
  F   F232      1.0  0.49397  0.64005  0.91520  1.0000
  F   F233      1.0  0.73854  0.13122  0.44147  1.0000
  F   F234      1.0  0.74183  0.14325  0.93207  1.0000
  F   F235      1.0  0.75131  0.65480  0.39243  1.0000
  F   F236      1.0  0.74396  0.63951  0.91889  1.0000
  F   F237      1.0  0.99421  0.14274  0.43895  1.0000
  F   F238      1.0  0.99168  0.13105  0.91912  1.0000
  F   F239      1.0  0.99076  0.64180  0.42471  1.0000
  F   F240      1.0  0.99563  0.63120  0.92957  1.0000
  F   F241      1.0  0.17648  0.02120  0.32031  1.0000
  F   F242      1.0  0.18297  0.00733  0.83825  1.0000
  F   F243      1.0  0.17877  0.51189  0.33853  1.0000
  F   F244      1.0  0.17073  0.51979  0.84987  1.0000
  F   F245      1.0  0.43082  0.01426  0.32470  1.0000
  F   F246      1.0  0.43417  0.02164  0.83226  1.0000
  F   F247      1.0  0.43989  0.50879  0.31552  1.0000
  F   F248      1.0  0.43224  0.51374  0.81769  1.0000
  F   F249      1.0  0.67884  0.01771  0.33250  1.0000
  F   F250      1.0  0.67653  0.01911  0.83029  1.0000
  F   F251      1.0  0.68801  0.51756  0.32838  1.0000
  F   F252      1.0  0.67996  0.51563  0.81366  1.0000
  F   F253      1.0  0.92471  0.02589  0.32847  1.0000
  F   F254      1.0  0.93151  0.00160  0.82774  1.0000
  F   F255      1.0  0.93702  0.50710  0.31133  1.0000
  F   F256      1.0  0.92734  0.51793  0.81191  1.0000
  F   F257      1.0  0.00179  0.22909  0.99299  1.0000
  F   F258      1.0  0.00029  0.24877  0.50233  1.0000
  F   F259      1.0  0.00046  0.74916  0.00417  1.0000
  F   F260      1.0  0.00172  0.73397  0.51622  1.0000
  F   F261      1.0  0.25126  0.23981  0.99694  1.0000
  F   F262      1.0  0.24922  0.26128  0.48974  1.0000
  F   F263      1.0  0.25187  0.76654  0.98920  1.0000
  F   F264      1.0  0.25234  0.74343  0.50491  1.0000
  F   F265      1.0  0.50164  0.25054  0.99962  1.0000
  F   F266      1.0  0.50083  0.26184  0.49048  1.0000
  F   F267      1.0  0.49948  0.73201  0.01497  1.0000
  F   F268      1.0  0.49825  0.74464  0.50531  1.0000
  F   F269      1.0  0.74804  0.24631  0.00835  1.0000
  F   F270      1.0  0.75426  0.25676  0.49443  1.0000
  F   F271      1.0  0.75059  0.77144  0.98020  1.0000
  F   F272      1.0  0.75431  0.74673  0.48634  1.0000
  F   F273      1.0  0.12116  0.99012  0.25411  1.0000
  F   F274      1.0  0.11985  0.99984  0.76334  1.0000
  F   F275      1.0  0.12959  0.50239  0.25529  1.0000
  F   F276      1.0  0.11273  0.48185  0.78318  1.0000
  F   F277      1.0  0.37530  0.00021  0.23834  1.0000
  F   F278      1.0  0.38507  0.00445  0.73369  1.0000
  F   F279      1.0  0.37971  0.51747  0.24502  1.0000
  F   F280      1.0  0.37100  0.48682  0.76172  1.0000
  F   F281      1.0  0.61285  0.99212  0.25737  1.0000
  F   F282      1.0  0.62357  0.00425  0.74809  1.0000
  F   F283      1.0  0.62085  0.49238  0.26262  1.0000
  F   F284      1.0  0.62349  0.50037  0.75593  1.0000
  F   F285      1.0  0.88008  0.99937  0.23623  1.0000
  F   F286      1.0  0.86939  0.00934  0.74611  1.0000
  F   F287      1.0  0.87588  0.49162  0.24384  1.0000
  F   F288      1.0  0.87881  0.49109  0.74050  1.0000
  F   F289      1.0  0.05123  0.04232  0.01141  1.0000
  F   F290      1.0  0.04532  0.02452  0.51586  1.0000
  F   F291      1.0  0.04839  0.52275  0.01726  1.0000
  F   F292      1.0  0.04509  0.53508  0.51677  1.0000
  F   F293      1.0  0.30043  0.03646  0.02606  1.0000
  F   F294      1.0  0.29541  0.03161  0.53076  1.0000
  F   F295      1.0  0.29951  0.52838  0.01958  1.0000
  F   F296      1.0  0.28857  0.53210  0.52768  1.0000
  F   F297      1.0  0.53921  0.02656  0.03821  1.0000
  F   F298      1.0  0.53298  0.02402  0.53516  1.0000
  F   F299      1.0  0.53738  0.52954  0.01170  1.0000
  F   F300      1.0  0.53968  0.54185  0.52540  1.0000
  F   F301      1.0  0.79429  0.02816  0.00371  1.0000
  F   F302      1.0  0.80455  0.03142  0.49843  1.0000
  F   F303      1.0  0.80263  0.51533  0.98901  1.0000
  F   F304      1.0  0.78485  0.53281  0.52561  1.0000
  F   F305      1.0  0.23903  0.41179  0.22961  1.0000
  F   F306      1.0  0.22818  0.43335  0.73161  1.0000
  F   F307      1.0  0.23064  0.92039  0.22985  1.0000
  F   F308      1.0  0.23612  0.89838  0.74938  1.0000
  F   F309      1.0  0.49139  0.41414  0.20416  1.0000
  F   F310      1.0  0.48199  0.40774  0.72522  1.0000
  F   F311      1.0  0.48381  0.89982  0.23592  1.0000
  F   F312      1.0  0.47433  0.91051  0.73514  1.0000
  F   F313      1.0  0.74381  0.40361  0.22478  1.0000
  F   F314      1.0  0.73518  0.42359  0.72256  1.0000
  F   F315      1.0  0.73904  0.92861  0.22096  1.0000
  F   F316      1.0  0.73872  0.92440  0.71154  1.0000
  F   F317      1.0  0.99212  0.41048  0.23385  1.0000
  F   F318      1.0  0.98301  0.43715  0.71094  1.0000
  F   F319      1.0  0.97833  0.93073  0.21458  1.0000
  F   F320      1.0  0.98943  0.89892  0.73653  1.0000
  F   F321      1.0  0.20006  0.45283  0.49936  1.0000
  F   F322      1.0  0.20980  0.46956  0.98346  1.0000
  F   F323      1.0  0.20923  0.97038  0.45856  1.0000
  F   F324      1.0  0.21164  0.95603  0.97588  1.0000
  F   F325      1.0  0.45396  0.46768  0.47832  1.0000
  F   F326      1.0  0.44743  0.47846  0.98822  1.0000
  F   F327      1.0  0.45402  0.96824  0.48233  1.0000
  F   F328      1.0  0.46482  0.96029  0.97628  1.0000
  F   F329      1.0  0.71655  0.46810  0.47679  1.0000
  F   F330      1.0  0.70782  0.47092  0.96811  1.0000
  F   F331      1.0  0.70948  0.96814  0.48139  1.0000
  F   F332      1.0  0.71223  0.96887  0.97784  1.0000
  F   F333      1.0  0.96203  0.47017  0.47233  1.0000
  F   F334      1.0  0.94338  0.47587  0.98973  1.0000
  F   F335      1.0  0.95864  0.98086  0.48363  1.0000
  F   F336      1.0  0.95680  0.96190  0.96515  1.0000
  F   F337      1.0  0.00809  0.08190  0.28932  1.0000
  F   F338      1.0  0.01213  0.08387  0.76091  1.0000
  F   F339      1.0  0.02001  0.57659  0.27288  1.0000
  F   F340      1.0  0.01706  0.58171  0.76931  1.0000
  F   F341      1.0  0.26502  0.09405  0.27007  1.0000
  F   F342      1.0  0.26500  0.09808  0.76933  1.0000
  F   F343      1.0  0.26663  0.58497  0.28921  1.0000
  F   F344      1.0  0.26203  0.56843  0.77975  1.0000
  F   F345      1.0  0.51297  0.10163  0.26555  1.0000
  F   F346      1.0  0.51811  0.07983  0.78323  1.0000
  F   F347      1.0  0.52121  0.57906  0.27134  1.0000
  F   F348      1.0  0.51279  0.55875  0.79533  1.0000
  F   F349      1.0  0.76211  0.09513  0.26180  1.0000
  F   F350      1.0  0.76367  0.09084  0.78082  1.0000
  F   F351      1.0  0.76186  0.59218  0.26415  1.0000
  F   F352      1.0  0.75763  0.60240  0.76959  1.0000
  F   F353      1.0  0.09877  0.40745  0.46492  1.0000
  F   F354      1.0  0.10065  0.38406  0.97471  1.0000
  F   F355      1.0  0.09462  0.89892  0.46172  1.0000
  F   F356      1.0  0.09662  0.92461  0.96158  1.0000
  F   F357      1.0  0.34890  0.41157  0.46154  1.0000
  F   F358      1.0  0.35532  0.39639  0.97155  1.0000
  F   F359      1.0  0.35130  0.90949  0.45084  1.0000
  F   F360      1.0  0.35025  0.91455  0.96256  1.0000
  F   F361      1.0  0.60032  0.42653  0.46564  1.0000
  F   F362      1.0  0.59652  0.41050  0.94826  1.0000
  F   F363      1.0  0.60584  0.90891  0.46277  1.0000
  F   F364      1.0  0.60091  0.89854  0.96812  1.0000
  F   F365      1.0  0.85276  0.42598  0.44533  1.0000
  F   F366      1.0  0.86019  0.38604  0.95767  1.0000
  F   F367      1.0  0.85272  0.89815  0.46063  1.0000
  F   F368      1.0  0.84686  0.90091  0.95333  1.0000
  F   F369      1.0  0.05442  0.30174  0.28678  1.0000
  F   F370      1.0  0.04152  0.29271  0.78300  1.0000
  F   F371      1.0  0.03568  0.78954  0.30322  1.0000
  F   F372      1.0  0.04872  0.79450  0.81026  1.0000
  F   F373      1.0  0.30173  0.31008  0.29444  1.0000
  F   F374      1.0  0.29255  0.30421  0.78366  1.0000
  F   F375      1.0  0.28676  0.80634  0.30407  1.0000
  F   F376      1.0  0.30646  0.80107  0.80320  1.0000
  F   F377      1.0  0.56000  0.29839  0.30173  1.0000
  F   F378      1.0  0.54681  0.29785  0.78515  1.0000
  F   F379      1.0  0.55255  0.79956  0.28739  1.0000
  F   F380      1.0  0.54013  0.81046  0.79823  1.0000
  F   F381      1.0  0.80781  0.28547  0.29137  1.0000
  F   F382      1.0  0.79419  0.31054  0.77317  1.0000
  F   F383      1.0  0.80478  0.78945  0.26577  1.0000
  F   F384      1.0  0.79497  0.79769  0.78410  1.0000
