data_image0
_chemical_formula_structural       Hf96F384
_chemical_formula_sum              "Hf96 F384"
_cell_length_a       31.0284
_cell_length_b       15.5176
_cell_length_c       15.5086
_cell_angle_alpha    63.342
_cell_angle_beta     63.342
_cell_angle_gamma    80.1625

_space_group_name_H-M_alt    "P 1"
_space_group_IT_number       1

loop_
  _space_group_symop_operation_xyz
  'x, y, z'

loop_
  _atom_site_type_symbol
  _atom_site_label
  _atom_site_symmetry_multiplicity
  _atom_site_fract_x
  _atom_site_fract_y
  _atom_site_fract_z
  _atom_site_occupancy
  Hf  Hf1       1.0  0.19651  0.10869  0.37466  1.0000
  Hf  Hf2       1.0  0.19769  0.10378  0.88074  1.0000
  Hf  Hf3       1.0  0.19731  0.59571  0.38246  1.0000
  Hf  Hf4       1.0  0.19841  0.60990  0.87130  1.0000
  Hf  Hf5       1.0  0.44822  0.11317  0.37074  1.0000
  Hf  Hf6       1.0  0.44631  0.11079  0.87868  1.0000
  Hf  Hf7       1.0  0.44492  0.60903  0.37334  1.0000
  Hf  Hf8       1.0  0.44424  0.61972  0.87580  1.0000
  Hf  Hf9       1.0  0.70116  0.11874  0.35844  1.0000
  Hf  Hf10      1.0  0.69918  0.11201  0.87180  1.0000
  Hf  Hf11      1.0  0.69710  0.60812  0.37451  1.0000
  Hf  Hf12      1.0  0.69700  0.60986  0.87185  1.0000
  Hf  Hf13      1.0  0.94869  0.10082  0.37113  1.0000
  Hf  Hf14      1.0  0.94540  0.10187  0.86839  1.0000
  Hf  Hf15      1.0  0.94918  0.60562  0.36835  1.0000
  Hf  Hf16      1.0  0.94694  0.60051  0.87654  1.0000
  Hf  Hf17      1.0  0.05446  0.38274  0.13398  1.0000
  Hf  Hf18      1.0  0.05088  0.38488  0.63739  1.0000
  Hf  Hf19      1.0  0.05548  0.88703  0.13130  1.0000
  Hf  Hf20      1.0  0.05467  0.88642  0.63046  1.0000
  Hf  Hf21      1.0  0.30363  0.38855  0.12392  1.0000
  Hf  Hf22      1.0  0.30042  0.39840  0.62399  1.0000
  Hf  Hf23      1.0  0.30321  0.90221  0.11920  1.0000
  Hf  Hf24      1.0  0.30361  0.89068  0.63033  1.0000
  Hf  Hf25      1.0  0.54851  0.39915  0.13266  1.0000
  Hf  Hf26      1.0  0.55256  0.39642  0.62517  1.0000
  Hf  Hf27      1.0  0.55424  0.88956  0.12625  1.0000
  Hf  Hf28      1.0  0.55227  0.89464  0.62228  1.0000
  Hf  Hf29      1.0  0.80350  0.39457  0.11357  1.0000
  Hf  Hf30      1.0  0.80541  0.38887  0.62471  1.0000
  Hf  Hf31      1.0  0.80497  0.89039  0.12379  1.0000
  Hf  Hf32      1.0  0.80439  0.89054  0.62057  1.0000
  Hf  Hf33      1.0  0.05585  0.17082  0.42134  1.0000
  Hf  Hf34      1.0  0.05629  0.17513  0.92539  1.0000
  Hf  Hf35      1.0  0.05368  0.66988  0.42720  1.0000
  Hf  Hf36      1.0  0.05720  0.67671  0.92278  1.0000
  Hf  Hf37      1.0  0.30564  0.18073  0.42246  1.0000
  Hf  Hf38      1.0  0.30458  0.19415  0.91283  1.0000
  Hf  Hf39      1.0  0.30874  0.68916  0.41061  1.0000
  Hf  Hf40      1.0  0.30492  0.67731  0.92506  1.0000
  Hf  Hf41      1.0  0.55791  0.18354  0.42054  1.0000
  Hf  Hf42      1.0  0.55647  0.18117  0.91721  1.0000
  Hf  Hf43      1.0  0.55977  0.68419  0.41566  1.0000
  Hf  Hf44      1.0  0.55624  0.68895  0.91148  1.0000
  Hf  Hf45      1.0  0.80303  0.17733  0.42170  1.0000
  Hf  Hf46      1.0  0.80338  0.19173  0.91692  1.0000
  Hf  Hf47      1.0  0.80929  0.67439  0.41204  1.0000
  Hf  Hf48      1.0  0.80658  0.68706  0.90880  1.0000
  Hf  Hf49      1.0  0.15888  0.37406  0.33923  1.0000
  Hf  Hf50      1.0  0.15769  0.38172  0.84284  1.0000
  Hf  Hf51      1.0  0.15442  0.88312  0.34028  1.0000
  Hf  Hf52      1.0  0.15751  0.88344  0.84191  1.0000
  Hf  Hf53      1.0  0.40501  0.38743  0.33768  1.0000
  Hf  Hf54      1.0  0.40967  0.39055  0.83267  1.0000
  Hf  Hf55      1.0  0.40622  0.89036  0.33469  1.0000
  Hf  Hf56      1.0  0.40854  0.89179  0.82869  1.0000
  Hf  Hf57      1.0  0.65443  0.39086  0.33533  1.0000
  Hf  Hf58      1.0  0.65615  0.39432  0.83350  1.0000
  Hf  Hf59      1.0  0.66507  0.89272  0.32892  1.0000
  Hf  Hf60      1.0  0.65701  0.88912  0.83475  1.0000
  Hf  Hf61      1.0  0.90904  0.38839  0.32843  1.0000
  Hf  Hf62      1.0  0.90854  0.38954  0.82454  1.0000
  Hf  Hf63      1.0  0.90828  0.89532  0.32627  1.0000
  Hf  Hf64      1.0  0.91003  0.88135  0.83492  1.0000
  Hf  Hf65      1.0  0.19339  0.31381  0.08754  1.0000
  Hf  Hf66      1.0  0.18917  0.31510  0.59193  1.0000
  Hf  Hf67      1.0  0.19488  0.81021  0.09120  1.0000
  Hf  Hf68      1.0  0.19582  0.81204  0.58873  1.0000
  Hf  Hf69      1.0  0.44604  0.32645  0.07549  1.0000
  Hf  Hf70      1.0  0.44364  0.32852  0.58044  1.0000
  Hf  Hf71      1.0  0.44401  0.82100  0.08068  1.0000
  Hf  Hf72      1.0  0.44737  0.82249  0.56794  1.0000
  Hf  Hf73      1.0  0.69284  0.33199  0.07519  1.0000
  Hf  Hf74      1.0  0.69081  0.32336  0.58674  1.0000
  Hf  Hf75      1.0  0.69691  0.81847  0.07945  1.0000
  Hf  Hf76      1.0  0.69323  0.81512  0.58559  1.0000
  Hf  Hf77      1.0  0.94670  0.31168  0.08071  1.0000
  Hf  Hf78      1.0  0.94828  0.31915  0.57204  1.0000
  Hf  Hf79      1.0  0.94434  0.80702  0.09186  1.0000
  Hf  Hf80      1.0  0.94651  0.82456  0.57237  1.0000
  Hf  Hf81      1.0  0.09278  0.10507  0.16864  1.0000
  Hf  Hf82      1.0  0.09065  0.10750  0.66931  1.0000
  Hf  Hf83      1.0  0.09124  0.60977  0.16728  1.0000
  Hf  Hf84      1.0  0.08831  0.60692  0.67357  1.0000
  Hf  Hf85      1.0  0.34032  0.10993  0.17051  1.0000
  Hf  Hf86      1.0  0.33622  0.11303  0.67412  1.0000
  Hf  Hf87      1.0  0.34030  0.61564  0.17025  1.0000
  Hf  Hf88      1.0  0.34192  0.61184  0.67137  1.0000
  Hf  Hf89      1.0  0.59078  0.11188  0.17016  1.0000
  Hf  Hf90      1.0  0.58896  0.11039  0.67592  1.0000
  Hf  Hf91      1.0  0.58906  0.61598  0.16983  1.0000
  Hf  Hf92      1.0  0.59062  0.61190  0.66810  1.0000
  Hf  Hf93      1.0  0.84143  0.11284  0.16234  1.0000
  Hf  Hf94      1.0  0.84589  0.11271  0.65999  1.0000
  Hf  Hf95      1.0  0.83990  0.60943  0.16169  1.0000
  Hf  Hf96      1.0  0.84162  0.61387  0.66304  1.0000
  F   F1        1.0  0.08394  0.12258  0.29646  1.0000
  F   F2        1.0  0.07101  0.11191  0.82172  1.0000
  F   F3        1.0  0.08056  0.63700  0.30407  1.0000
  F   F4        1.0  0.07689  0.62637  0.81036  1.0000
  F   F5        1.0  0.32636  0.12358  0.31152  1.0000
  F   F6        1.0  0.32513  0.14207  0.80915  1.0000
  F   F7        1.0  0.32884  0.62505  0.30830  1.0000
  F   F8        1.0  0.32869  0.62498  0.81148  1.0000
  F   F9        1.0  0.57403  0.13024  0.30830  1.0000
  F   F10       1.0  0.57795  0.13211  0.80423  1.0000
  F   F11       1.0  0.57994  0.64500  0.29322  1.0000
  F   F12       1.0  0.57792  0.62425  0.81229  1.0000
  F   F13       1.0  0.82238  0.11255  0.30959  1.0000
  F   F14       1.0  0.82792  0.12914  0.80496  1.0000
  F   F15       1.0  0.82652  0.61509  0.31088  1.0000
  F   F16       1.0  0.82898  0.61994  0.80891  1.0000
  F   F17       1.0  0.17889  0.33376  0.45731  1.0000
  F   F18       1.0  0.19122  0.33786  0.94563  1.0000
  F   F19       1.0  0.18641  0.83943  0.45352  1.0000
  F   F20       1.0  0.17405  0.83348  0.96576  1.0000
  F   F21       1.0  0.42189  0.32677  0.46597  1.0000
  F   F22       1.0  0.43762  0.34876  0.93601  1.0000
  F   F23       1.0  0.44134  0.84885  0.43341  1.0000
  F   F24       1.0  0.43408  0.84114  0.94315  1.0000
  F   F25       1.0  0.67798  0.33977  0.45590  1.0000
  F   F26       1.0  0.68470  0.34511  0.95360  1.0000
  F   F27       1.0  0.69847  0.85473  0.43828  1.0000
  F   F28       1.0  0.68836  0.83509  0.94543  1.0000
  F   F29       1.0  0.93570  0.35149  0.43181  1.0000
  F   F30       1.0  0.93527  0.33790  0.93742  1.0000
  F   F31       1.0  0.93973  0.85157  0.43659  1.0000
  F   F32       1.0  0.93961  0.83646  0.94776  1.0000
  F   F33       1.0  0.17075  0.36582  0.20837  1.0000
  F   F34       1.0  0.16727  0.37512  0.70091  1.0000
  F   F35       1.0  0.16923  0.86857  0.20282  1.0000
  F   F36       1.0  0.17154  0.87512  0.69437  1.0000
  F   F37       1.0  0.42394  0.38433  0.18545  1.0000
  F   F38       1.0  0.42693  0.38558  0.69210  1.0000
  F   F39       1.0  0.42070  0.88761  0.18797  1.0000
  F   F40       1.0  0.42136  0.85861  0.70762  1.0000
  F   F41       1.0  0.66302  0.36659  0.19991  1.0000
  F   F42       1.0  0.67252  0.38672  0.69688  1.0000
  F   F43       1.0  0.67430  0.87378  0.19908  1.0000
  F   F44       1.0  0.67362  0.88482  0.68310  1.0000
  F   F45       1.0  0.91837  0.37112  0.18698  1.0000
  F   F46       1.0  0.91836  0.37977  0.68040  1.0000
  F   F47       1.0  0.92260  0.86861  0.19873  1.0000
  F   F48       1.0  0.92404  0.87125  0.69085  1.0000
  F   F49       1.0  0.06926  0.15895  0.04779  1.0000
  F   F50       1.0  0.06033  0.15170  0.55141  1.0000
  F   F51       1.0  0.06823  0.65077  0.05303  1.0000
  F   F52       1.0  0.05666  0.64857  0.56542  1.0000
  F   F53       1.0  0.31766  0.16415  0.04986  1.0000
  F   F54       1.0  0.30426  0.14990  0.56945  1.0000
  F   F55       1.0  0.31054  0.65630  0.06315  1.0000
  F   F56       1.0  0.32133  0.66883  0.54704  1.0000
  F   F57       1.0  0.57083  0.18165  0.03740  1.0000
  F   F58       1.0  0.56474  0.16749  0.54434  1.0000
  F   F59       1.0  0.56785  0.67123  0.04436  1.0000
  F   F60       1.0  0.57902  0.67213  0.53405  1.0000
  F   F61       1.0  0.81501  0.16173  0.05042  1.0000
  F   F62       1.0  0.81386  0.16531  0.54636  1.0000
  F   F63       1.0  0.81192  0.65260  0.04718  1.0000
  F   F64       1.0  0.82700  0.65741  0.53630  1.0000
  F   F65       1.0  0.20174  0.19912  0.22470  1.0000
  F   F66       1.0  0.20849  0.19036  0.72191  1.0000
  F   F67       1.0  0.20831  0.70661  0.21884  1.0000
  F   F68       1.0  0.20935  0.69854  0.71662  1.0000
  F   F69       1.0  0.45913  0.21642  0.20578  1.0000
  F   F70       1.0  0.46203  0.21066  0.72036  1.0000
  F   F71       1.0  0.45962  0.71601  0.20388  1.0000
  F   F72       1.0  0.45429  0.71061  0.69017  1.0000
  F   F73       1.0  0.70478  0.20912  0.20390  1.0000
  F   F74       1.0  0.70177  0.21127  0.72589  1.0000
  F   F75       1.0  0.70707  0.71264  0.21509  1.0000
  F   F76       1.0  0.70056  0.69534  0.70255  1.0000
  F   F77       1.0  0.95054  0.19186  0.20441  1.0000
  F   F78       1.0  0.95288  0.21072  0.69740  1.0000
  F   F79       1.0  0.95763  0.69762  0.21975  1.0000
  F   F80       1.0  0.95680  0.70167  0.69999  1.0000
  F   F81       1.0  0.14895  0.08924  0.03785  1.0000
  F   F82       1.0  0.14665  0.09937  0.54060  1.0000
  F   F83       1.0  0.14852  0.59295  0.01952  1.0000
  F   F84       1.0  0.14383  0.58319  0.55918  1.0000
  F   F85       1.0  0.40450  0.08667  0.05442  1.0000
  F   F86       1.0  0.39839  0.11503  0.53618  1.0000
  F   F87       1.0  0.40233  0.60515  0.02596  1.0000
  F   F88       1.0  0.39598  0.57648  0.54029  1.0000
  F   F89       1.0  0.65142  0.10309  0.05257  1.0000
  F   F90       1.0  0.64590  0.10433  0.55088  1.0000
  F   F91       1.0  0.65265  0.59524  0.03460  1.0000
  F   F92       1.0  0.64755  0.57922  0.53027  1.0000
  F   F93       1.0  0.89726  0.10849  0.02362  1.0000
  F   F94       1.0  0.90691  0.08934  0.52982  1.0000
  F   F95       1.0  0.89779  0.58828  0.03795  1.0000
  F   F96       1.0  0.89436  0.56953  0.52676  1.0000
  F   F97       1.0  0.15095  0.18965  0.12664  1.0000
  F   F98       1.0  0.15288  0.19816  0.63836  1.0000
  F   F99       1.0  0.16184  0.67869  0.12847  1.0000
  F   F100      1.0  0.14382  0.69319  0.64356  1.0000
  F   F101      1.0  0.40511  0.20805  0.12820  1.0000
  F   F102      1.0  0.40172  0.21196  0.64084  1.0000
  F   F103      1.0  0.40308  0.70053  0.13356  1.0000
  F   F104      1.0  0.40150  0.69030  0.61413  1.0000
  F   F105      1.0  0.64305  0.21875  0.14531  1.0000
  F   F106      1.0  0.66325  0.19990  0.62748  1.0000
  F   F107      1.0  0.65807  0.70049  0.11491  1.0000
  F   F108      1.0  0.65186  0.70054  0.60212  1.0000
  F   F109      1.0  0.89599  0.20888  0.11822  1.0000
  F   F110      1.0  0.90371  0.20540  0.60003  1.0000
  F   F111      1.0  0.90363  0.69292  0.12925  1.0000
  F   F112      1.0  0.90173  0.68684  0.60920  1.0000
  F   F113      1.0  0.09746  0.29208  0.38345  1.0000
  F   F114      1.0  0.09824  0.29715  0.88535  1.0000
  F   F115      1.0  0.09413  0.79918  0.39145  1.0000
  F   F116      1.0  0.09433  0.81657  0.89689  1.0000
  F   F117      1.0  0.35171  0.29909  0.38644  1.0000
  F   F118      1.0  0.34922  0.30991  0.86070  1.0000
  F   F119      1.0  0.34792  0.81523  0.38189  1.0000
  F   F120      1.0  0.35299  0.79776  0.88337  1.0000
  F   F121      1.0  0.59304  0.29933  0.39291  1.0000
  F   F122      1.0  0.59853  0.30011  0.83865  1.0000
  F   F123      1.0  0.59809  0.81134  0.36533  1.0000
  F   F124      1.0  0.60070  0.81492  0.86616  1.0000
  F   F125      1.0  0.85411  0.30146  0.36000  1.0000
  F   F126      1.0  0.84826  0.30406  0.87059  1.0000
  F   F127      1.0  0.84251  0.80861  0.35782  1.0000
  F   F128      1.0  0.85103  0.81019  0.87309  1.0000
  F   F129      1.0  0.05865  0.24630  0.14821  1.0000
  F   F130      1.0  0.07119  0.24752  0.64016  1.0000
  F   F131      1.0  0.07644  0.75198  0.11827  1.0000
  F   F132      1.0  0.05923  0.74611  0.65102  1.0000
  F   F133      1.0  0.31736  0.24738  0.14509  1.0000
  F   F134      1.0  0.31233  0.25075  0.64476  1.0000
  F   F135      1.0  0.31075  0.74740  0.15471  1.0000
  F   F136      1.0  0.31042  0.74966  0.66274  1.0000
  F   F137      1.0  0.56158  0.26564  0.14264  1.0000
  F   F138      1.0  0.58307  0.25310  0.61507  1.0000
  F   F139      1.0  0.56953  0.75639  0.13794  1.0000
  F   F140      1.0  0.55102  0.74977  0.67026  1.0000
  F   F141      1.0  0.81127  0.25173  0.13833  1.0000
  F   F142      1.0  0.81490  0.24096  0.65003  1.0000
  F   F143      1.0  0.82087  0.74712  0.12200  1.0000
  F   F144      1.0  0.81950  0.75112  0.64035  1.0000
  F   F145      1.0  0.12347  0.35076  0.12494  1.0000
  F   F146      1.0  0.12366  0.36774  0.61335  1.0000
  F   F147      1.0  0.12589  0.85373  0.12958  1.0000
  F   F148      1.0  0.12571  0.86109  0.61554  1.0000
  F   F149      1.0  0.37468  0.36576  0.11074  1.0000
  F   F150      1.0  0.37543  0.38227  0.59618  1.0000
  F   F151      1.0  0.36699  0.87153  0.12020  1.0000
  F   F152      1.0  0.37697  0.86103  0.61493  1.0000
  F   F153      1.0  0.62080  0.41429  0.07349  1.0000
  F   F154      1.0  0.62446  0.37399  0.61865  1.0000
  F   F155      1.0  0.62330  0.86333  0.12013  1.0000
  F   F156      1.0  0.62601  0.86369  0.60405  1.0000
  F   F157      1.0  0.87267  0.36835  0.09248  1.0000
  F   F158      1.0  0.87531  0.36550  0.60041  1.0000
  F   F159      1.0  0.87531  0.85859  0.11790  1.0000
  F   F160      1.0  0.87402  0.86405  0.61412  1.0000
  F   F161      1.0  0.18630  0.24730  0.35953  1.0000
  F   F162      1.0  0.18688  0.24488  0.85429  1.0000
  F   F163      1.0  0.17440  0.73678  0.38497  1.0000
  F   F164      1.0  0.18555  0.74852  0.86053  1.0000
  F   F165      1.0  0.44135  0.25530  0.34647  1.0000
  F   F166      1.0  0.42660  0.24258  0.87512  1.0000
  F   F167      1.0  0.42982  0.74098  0.38013  1.0000
  F   F168      1.0  0.44956  0.75608  0.84089  1.0000
  F   F169      1.0  0.68316  0.25373  0.36039  1.0000
  F   F170      1.0  0.67165  0.25107  0.87664  1.0000
  F   F171      1.0  0.68444  0.75544  0.36513  1.0000
  F   F172      1.0  0.68383  0.74871  0.84858  1.0000
  F   F173      1.0  0.94497  0.24345  0.34168  1.0000
  F   F174      1.0  0.93452  0.25063  0.84308  1.0000
  F   F175      1.0  0.91965  0.74469  0.38516  1.0000
  F   F176      1.0  0.93737  0.74297  0.86423  1.0000
  F   F177      1.0  0.12319  0.10879  0.40624  1.0000
  F   F178      1.0  0.12620  0.13562  0.88644  1.0000
  F   F179      1.0  0.12624  0.61519  0.40578  1.0000
  F   F180      1.0  0.13021  0.66004  0.86004  1.0000
  F   F181      1.0  0.37353  0.14223  0.39455  1.0000
  F   F182      1.0  0.37478  0.13502  0.88311  1.0000
  F   F183      1.0  0.37765  0.64781  0.37890  1.0000
  F   F184      1.0  0.37630  0.64153  0.88792  1.0000
  F   F185      1.0  0.63128  0.13194  0.38751  1.0000
  F   F186      1.0  0.62897  0.11796  0.89726  1.0000
  F   F187      1.0  0.63022  0.66007  0.36471  1.0000
  F   F188      1.0  0.62687  0.65233  0.86864  1.0000
  F   F189      1.0  0.87538  0.13517  0.38935  1.0000
  F   F190      1.0  0.87704  0.12877  0.88253  1.0000
  F   F191      1.0  0.87821  0.64177  0.35906  1.0000
  F   F192      1.0  0.88020  0.63890  0.88050  1.0000
  F   F193      1.0  0.00748  0.36732  0.07978  1.0000
  F   F194      1.0  0.00857  0.36478  0.56881  1.0000
  F   F195      1.0  0.00898  0.85205  0.08939  1.0000
  F   F196      1.0  0.01158  0.86076  0.55796  1.0000
  F   F197      1.0  0.25599  0.36805  0.08086  1.0000
  F   F198      1.0  0.25252  0.35190  0.58467  1.0000
  F   F199      1.0  0.25785  0.85689  0.08077  1.0000
  F   F200      1.0  0.26129  0.84556  0.57560  1.0000
  F   F201      1.0  0.50664  0.37220  0.06205  1.0000
  F   F202      1.0  0.51127  0.37686  0.56371  1.0000
  F   F203      1.0  0.50592  0.87268  0.06729  1.0000
  F   F204      1.0  0.51027  0.86874  0.55823  1.0000
  F   F205      1.0  0.75770  0.35831  0.07118  1.0000
  F   F206      1.0  0.75689  0.35256  0.58654  1.0000
  F   F207      1.0  0.76069  0.86684  0.07054  1.0000
  F   F208      1.0  0.76133  0.86014  0.56373  1.0000
  F   F209      1.0  0.06548  0.47765  0.18715  1.0000
  F   F210      1.0  0.06465  0.47430  0.68173  1.0000
  F   F211      1.0  0.07459  0.97511  0.17249  1.0000
  F   F212      1.0  0.07281  0.98778  0.65884  1.0000
  F   F213      1.0  0.32367  0.47604  0.17246  1.0000
  F   F214      1.0  0.30951  0.48421  0.68675  1.0000
  F   F215      1.0  0.31175  0.99769  0.17588  1.0000
  F   F216      1.0  0.31725  0.98468  0.67492  1.0000
  F   F217      1.0  0.56390  0.48726  0.18993  1.0000
  F   F218      1.0  0.56591  0.49170  0.68045  1.0000
  F   F219      1.0  0.57317  0.00313  0.14726  1.0000
  F   F220      1.0  0.57099  0.99241  0.65899  1.0000
  F   F221      1.0  0.81438  0.48455  0.18137  1.0000
  F   F222      1.0  0.81641  0.48517  0.68202  1.0000
  F   F223      1.0  0.81936  0.99532  0.15082  1.0000
  F   F224      1.0  0.81960  0.98924  0.65250  1.0000
  F   F225      1.0  0.23869  0.13826  0.42937  1.0000
  F   F226      1.0  0.23934  0.14641  0.92421  1.0000
  F   F227      1.0  0.23882  0.62407  0.43682  1.0000
  F   F228      1.0  0.24561  0.63860  0.92355  1.0000
  F   F229      1.0  0.48761  0.14046  0.43725  1.0000
  F   F230      1.0  0.49204  0.12977  0.92596  1.0000
  F   F231      1.0  0.49632  0.63114  0.41462  1.0000
  F   F232      1.0  0.49261  0.63257  0.93741  1.0000
  F   F233      1.0  0.73635  0.14050  0.43107  1.0000
  F   F234      1.0  0.74282  0.16765  0.90071  1.0000
  F   F235      1.0  0.73746  0.63776  0.43111  1.0000
  F   F236      1.0  0.74202  0.64146  0.92697  1.0000
  F   F237      1.0  0.99855  0.12399  0.42141  1.0000
  F   F238      1.0  0.98560  0.13543  0.93342  1.0000
  F   F239      1.0  0.98979  0.62944  0.42990  1.0000
  F   F240      1.0  0.99343  0.63967  0.91874  1.0000
  F   F241      1.0  0.18435  0.01552  0.31119  1.0000
  F   F242      1.0  0.17987  0.00869  0.82849  1.0000
  F   F243      1.0  0.18349  0.50743  0.31550  1.0000
  F   F244      1.0  0.17559  0.50450  0.84882  1.0000
  F   F245      1.0  0.43168  0.02184  0.32092  1.0000
  F   F246      1.0  0.42989  0.01981  0.82788  1.0000
  F   F247      1.0  0.42802  0.51101  0.33130  1.0000
  F   F248      1.0  0.42372  0.52627  0.83011  1.0000
  F   F249      1.0  0.68099  0.02228  0.30339  1.0000
  F   F250      1.0  0.68360  0.00400  0.83355  1.0000
  F   F251      1.0  0.68796  0.51657  0.31915  1.0000
  F   F252      1.0  0.68165  0.51615  0.83197  1.0000
  F   F253      1.0  0.91989  0.01970  0.33020  1.0000
  F   F254      1.0  0.93559  0.01546  0.80639  1.0000
  F   F255      1.0  0.93166  0.51569  0.31976  1.0000
  F   F256      1.0  0.92961  0.51209  0.83434  1.0000
  F   F257      1.0  0.99905  0.24748  0.99746  1.0000
  F   F258      1.0  0.99866  0.23811  0.49228  1.0000
  F   F259      1.0  0.99917  0.72962  0.01851  1.0000
  F   F260      1.0  0.00184  0.74611  0.49348  1.0000
  F   F261      1.0  0.24852  0.24025  0.01198  1.0000
  F   F262      1.0  0.24482  0.25422  0.49823  1.0000
  F   F263      1.0  0.25203  0.75507  0.99143  1.0000
  F   F264      1.0  0.24898  0.74149  0.50211  1.0000
  F   F265      1.0  0.49651  0.25295  0.99000  1.0000
  F   F266      1.0  0.49906  0.27429  0.47645  1.0000
  F   F267      1.0  0.49878  0.76468  0.99804  1.0000
  F   F268      1.0  0.50248  0.74816  0.49345  1.0000
  F   F269      1.0  0.74652  0.24818  0.99592  1.0000
  F   F270      1.0  0.75389  0.25975  0.49130  1.0000
  F   F271      1.0  0.75581  0.75779  0.99622  1.0000
  F   F272      1.0  0.75646  0.73592  0.50415  1.0000
  F   F273      1.0  0.11693  0.98915  0.26506  1.0000
  F   F274      1.0  0.12568  0.00016  0.74490  1.0000
  F   F275      1.0  0.11854  0.49200  0.25738  1.0000
  F   F276      1.0  0.11692  0.48794  0.76613  1.0000
  F   F277      1.0  0.36978  0.00113  0.24982  1.0000
  F   F278      1.0  0.37434  0.00718  0.74549  1.0000
  F   F279      1.0  0.37359  0.50909  0.24332  1.0000
  F   F280      1.0  0.37374  0.49475  0.74709  1.0000
  F   F281      1.0  0.62190  0.99651  0.25098  1.0000
  F   F282      1.0  0.61914  0.99794  0.76709  1.0000
  F   F283      1.0  0.62059  0.50590  0.26172  1.0000
  F   F284      1.0  0.62706  0.51236  0.74117  1.0000
  F   F285      1.0  0.88300  0.00242  0.22306  1.0000
  F   F286      1.0  0.87178  0.00509  0.75471  1.0000
  F   F287      1.0  0.87937  0.49877  0.23835  1.0000
  F   F288      1.0  0.88459  0.50948  0.73346  1.0000
  F   F289      1.0  0.03135  0.03845  0.04240  1.0000
  F   F290      1.0  0.04139  0.01973  0.52020  1.0000
  F   F291      1.0  0.04032  0.53290  0.03050  1.0000
  F   F292      1.0  0.04164  0.52255  0.51804  1.0000
  F   F293      1.0  0.29522  0.03411  0.01097  1.0000
  F   F294      1.0  0.28933  0.02474  0.51958  1.0000
  F   F295      1.0  0.28875  0.53053  0.03099  1.0000
  F   F296      1.0  0.29663  0.53196  0.52151  1.0000
  F   F297      1.0  0.54509  0.03559  0.01416  1.0000
  F   F298      1.0  0.54694  0.02403  0.51281  1.0000
  F   F299      1.0  0.54846  0.52824  0.01136  1.0000
  F   F300      1.0  0.54499  0.54481  0.52823  1.0000
  F   F301      1.0  0.78666  0.04934  0.02028  1.0000
  F   F302      1.0  0.80089  0.02908  0.50021  1.0000
  F   F303      1.0  0.79500  0.53324  0.01344  1.0000
  F   F304      1.0  0.78997  0.53251  0.52892  1.0000
  F   F305      1.0  0.23894  0.39298  0.24383  1.0000
  F   F306      1.0  0.22981  0.40619  0.73647  1.0000
  F   F307      1.0  0.23037  0.89952  0.23453  1.0000
  F   F308      1.0  0.23427  0.90376  0.72890  1.0000
  F   F309      1.0  0.48088  0.42076  0.22971  1.0000
  F   F310      1.0  0.48313  0.42279  0.72333  1.0000
  F   F311      1.0  0.48319  0.90021  0.22911  1.0000
  F   F312      1.0  0.48646  0.93041  0.71193  1.0000
  F   F313      1.0  0.73511  0.42043  0.21540  1.0000
  F   F314      1.0  0.73618  0.42574  0.72812  1.0000
  F   F315      1.0  0.73909  0.90907  0.21923  1.0000
  F   F316      1.0  0.73741  0.89422  0.73342  1.0000
  F   F317      1.0  0.98496  0.41510  0.23137  1.0000
  F   F318      1.0  0.98067  0.41865  0.72839  1.0000
  F   F319      1.0  0.98688  0.92079  0.22391  1.0000
  F   F320      1.0  0.98944  0.89197  0.74106  1.0000
  F   F321      1.0  0.20517  0.45587  0.47636  1.0000
  F   F322      1.0  0.20974  0.45351  0.98630  1.0000
  F   F323      1.0  0.20683  0.96357  0.47543  1.0000
  F   F324      1.0  0.20804  0.96842  0.97613  1.0000
  F   F325      1.0  0.46239  0.46476  0.45274  1.0000
  F   F326      1.0  0.45167  0.47381  0.97854  1.0000
  F   F327      1.0  0.45742  0.97590  0.46680  1.0000
  F   F328      1.0  0.45193  0.96775  0.97481  1.0000
  F   F329      1.0  0.70751  0.47066  0.48164  1.0000
  F   F330      1.0  0.71285  0.47740  0.96651  1.0000
  F   F331      1.0  0.70220  0.98738  0.47765  1.0000
  F   F332      1.0  0.69978  0.97179  0.98094  1.0000
  F   F333      1.0  0.96527  0.46766  0.45957  1.0000
  F   F334      1.0  0.95767  0.46454  0.98769  1.0000
  F   F335      1.0  0.96075  0.97152  0.47175  1.0000
  F   F336      1.0  0.95934  0.96993  0.97287  1.0000
  F   F337      1.0  0.01511  0.06062  0.28756  1.0000
  F   F338      1.0  0.01620  0.09551  0.76348  1.0000
  F   F339      1.0  0.01876  0.60266  0.25727  1.0000
  F   F340      1.0  0.01509  0.55934  0.78687  1.0000
  F   F341      1.0  0.26262  0.08166  0.28409  1.0000
  F   F342      1.0  0.26684  0.07060  0.78495  1.0000
  F   F343      1.0  0.26940  0.57197  0.27612  1.0000
  F   F344      1.0  0.26626  0.58050  0.78296  1.0000
  F   F345      1.0  0.51321  0.07696  0.27492  1.0000
  F   F346      1.0  0.51647  0.08991  0.76604  1.0000
  F   F347      1.0  0.51670  0.59165  0.25970  1.0000
  F   F348      1.0  0.51344  0.58300  0.78085  1.0000
  F   F349      1.0  0.76636  0.09225  0.25355  1.0000
  F   F350      1.0  0.76935  0.07603  0.77148  1.0000
  F   F351      1.0  0.76490  0.58756  0.26802  1.0000
  F   F352      1.0  0.76227  0.60746  0.76415  1.0000
  F   F353      1.0  0.10206  0.40668  0.45673  1.0000
  F   F354      1.0  0.09876  0.38810  0.98417  1.0000
  F   F355      1.0  0.10136  0.90479  0.46688  1.0000
  F   F356      1.0  0.09969  0.93416  0.97172  1.0000
  F   F357      1.0  0.34208  0.41439  0.46484  1.0000
  F   F358      1.0  0.34965  0.40595  0.95625  1.0000
  F   F359      1.0  0.35422  0.91428  0.46504  1.0000
  F   F360      1.0  0.34674  0.90104  0.96736  1.0000
  F   F361      1.0  0.60427  0.42721  0.46122  1.0000
  F   F362      1.0  0.59633  0.41473  0.93944  1.0000
  F   F363      1.0  0.60389  0.88959  0.46443  1.0000
  F   F364      1.0  0.60192  0.92259  0.96374  1.0000
  F   F365      1.0  0.84321  0.39644  0.46978  1.0000
  F   F366      1.0  0.84826  0.40691  0.94604  1.0000
  F   F367      1.0  0.85637  0.89253  0.46544  1.0000
  F   F368      1.0  0.85582  0.91419  0.95699  1.0000
  F   F369      1.0  0.04495  0.28681  0.29140  1.0000
  F   F370      1.0  0.04013  0.29002  0.78668  1.0000
  F   F371      1.0  0.04519  0.79283  0.28263  1.0000
  F   F372      1.0  0.05477  0.80085  0.80726  1.0000
  F   F373      1.0  0.30265  0.29362  0.29533  1.0000
  F   F374      1.0  0.29286  0.30355  0.78838  1.0000
  F   F375      1.0  0.29772  0.79859  0.29661  1.0000
  F   F376      1.0  0.29869  0.79587  0.80071  1.0000
  F   F377      1.0  0.54689  0.30979  0.29227  1.0000
  F   F378      1.0  0.53620  0.29483  0.78082  1.0000
  F   F379      1.0  0.54714  0.80948  0.28108  1.0000
  F   F380      1.0  0.54326  0.80414  0.78890  1.0000
  F   F381      1.0  0.80007  0.30153  0.27414  1.0000
  F   F382      1.0  0.79135  0.31450  0.78637  1.0000
  F   F383      1.0  0.79125  0.79293  0.28348  1.0000
  F   F384      1.0  0.80349  0.79741  0.78093  1.0000
