data_image0
_chemical_formula_structural       Hf96F384
_chemical_formula_sum              "Hf96 F384"
_cell_length_a       31.008
_cell_length_b       15.508
_cell_length_c       15.4993
_cell_angle_alpha    63.342
_cell_angle_beta     63.342
_cell_angle_gamma    80.1625

_space_group_name_H-M_alt    "P 1"
_space_group_IT_number       1

loop_
  _space_group_symop_operation_xyz
  'x, y, z'

loop_
  _atom_site_type_symbol
  _atom_site_label
  _atom_site_symmetry_multiplicity
  _atom_site_fract_x
  _atom_site_fract_y
  _atom_site_fract_z
  _atom_site_occupancy
  Hf  Hf1       1.0  0.20026  0.10591  0.37806  1.0000
  Hf  Hf2       1.0  0.19468  0.09360  0.88076  1.0000
  Hf  Hf3       1.0  0.19789  0.60714  0.37387  1.0000
  Hf  Hf4       1.0  0.19805  0.60457  0.87371  1.0000
  Hf  Hf5       1.0  0.44621  0.11201  0.37164  1.0000
  Hf  Hf6       1.0  0.44798  0.11312  0.86501  1.0000
  Hf  Hf7       1.0  0.44751  0.60515  0.37213  1.0000
  Hf  Hf8       1.0  0.44702  0.60643  0.86861  1.0000
  Hf  Hf9       1.0  0.70036  0.11591  0.36792  1.0000
  Hf  Hf10      1.0  0.70085  0.11055  0.86689  1.0000
  Hf  Hf11      1.0  0.69539  0.61810  0.36634  1.0000
  Hf  Hf12      1.0  0.69594  0.61822  0.86958  1.0000
  Hf  Hf13      1.0  0.94736  0.10308  0.37876  1.0000
  Hf  Hf14      1.0  0.94422  0.09853  0.88254  1.0000
  Hf  Hf15      1.0  0.94862  0.61069  0.36241  1.0000
  Hf  Hf16      1.0  0.94582  0.60292  0.87714  1.0000
  Hf  Hf17      1.0  0.05373  0.38325  0.12976  1.0000
  Hf  Hf18      1.0  0.04938  0.38951  0.62943  1.0000
  Hf  Hf19      1.0  0.05494  0.88508  0.13039  1.0000
  Hf  Hf20      1.0  0.05520  0.88496  0.62335  1.0000
  Hf  Hf21      1.0  0.30401  0.39229  0.11872  1.0000
  Hf  Hf22      1.0  0.29909  0.38891  0.62961  1.0000
  Hf  Hf23      1.0  0.30345  0.89271  0.12401  1.0000
  Hf  Hf24      1.0  0.30106  0.88544  0.63196  1.0000
  Hf  Hf25      1.0  0.55729  0.39432  0.12950  1.0000
  Hf  Hf26      1.0  0.55378  0.39753  0.61813  1.0000
  Hf  Hf27      1.0  0.55201  0.90110  0.12621  1.0000
  Hf  Hf28      1.0  0.55308  0.88685  0.62915  1.0000
  Hf  Hf29      1.0  0.80314  0.39411  0.12374  1.0000
  Hf  Hf30      1.0  0.80188  0.39461  0.62778  1.0000
  Hf  Hf31      1.0  0.80195  0.89616  0.13554  1.0000
  Hf  Hf32      1.0  0.80401  0.88807  0.62743  1.0000
  Hf  Hf33      1.0  0.05463  0.18147  0.41494  1.0000
  Hf  Hf34      1.0  0.05472  0.18178  0.91617  1.0000
  Hf  Hf35      1.0  0.05496  0.67824  0.42080  1.0000
  Hf  Hf36      1.0  0.05253  0.66990  0.92714  1.0000
  Hf  Hf37      1.0  0.30625  0.18782  0.41665  1.0000
  Hf  Hf38      1.0  0.30354  0.17622  0.91903  1.0000
  Hf  Hf39      1.0  0.30381  0.68418  0.41479  1.0000
  Hf  Hf40      1.0  0.30821  0.68316  0.91292  1.0000
  Hf  Hf41      1.0  0.55944  0.18557  0.42088  1.0000
  Hf  Hf42      1.0  0.55672  0.18488  0.91244  1.0000
  Hf  Hf43      1.0  0.55717  0.68925  0.41070  1.0000
  Hf  Hf44      1.0  0.55591  0.69142  0.91325  1.0000
  Hf  Hf45      1.0  0.80689  0.18505  0.41314  1.0000
  Hf  Hf46      1.0  0.80694  0.18835  0.91413  1.0000
  Hf  Hf47      1.0  0.80826  0.68162  0.41233  1.0000
  Hf  Hf48      1.0  0.80470  0.68277  0.92098  1.0000
  Hf  Hf49      1.0  0.16049  0.38753  0.33503  1.0000
  Hf  Hf50      1.0  0.15929  0.38212  0.83428  1.0000
  Hf  Hf51      1.0  0.15483  0.88287  0.34034  1.0000
  Hf  Hf52      1.0  0.15413  0.88106  0.83963  1.0000
  Hf  Hf53      1.0  0.40718  0.38602  0.33838  1.0000
  Hf  Hf54      1.0  0.40685  0.38849  0.83627  1.0000
  Hf  Hf55      1.0  0.40563  0.88592  0.33843  1.0000
  Hf  Hf56      1.0  0.40904  0.87913  0.83657  1.0000
  Hf  Hf57      1.0  0.66161  0.39601  0.32318  1.0000
  Hf  Hf58      1.0  0.65899  0.39234  0.83625  1.0000
  Hf  Hf59      1.0  0.65937  0.90220  0.33071  1.0000
  Hf  Hf60      1.0  0.65858  0.89971  0.82675  1.0000
  Hf  Hf61      1.0  0.90666  0.38628  0.33346  1.0000
  Hf  Hf62      1.0  0.90818  0.38288  0.84000  1.0000
  Hf  Hf63      1.0  0.91180  0.88752  0.33404  1.0000
  Hf  Hf64      1.0  0.90535  0.88904  0.83827  1.0000
  Hf  Hf65      1.0  0.19578  0.30989  0.08869  1.0000
  Hf  Hf66      1.0  0.19239  0.32381  0.58090  1.0000
  Hf  Hf67      1.0  0.19312  0.81220  0.08656  1.0000
  Hf  Hf68      1.0  0.19497  0.81995  0.58487  1.0000
  Hf  Hf69      1.0  0.44431  0.31389  0.08611  1.0000
  Hf  Hf70      1.0  0.44487  0.32020  0.58661  1.0000
  Hf  Hf71      1.0  0.44321  0.81969  0.07920  1.0000
  Hf  Hf72      1.0  0.44212  0.81869  0.58407  1.0000
  Hf  Hf73      1.0  0.69501  0.31728  0.08382  1.0000
  Hf  Hf74      1.0  0.69062  0.32561  0.58550  1.0000
  Hf  Hf75      1.0  0.69162  0.82784  0.08215  1.0000
  Hf  Hf76      1.0  0.69567  0.82145  0.57789  1.0000
  Hf  Hf77      1.0  0.94299  0.31921  0.08123  1.0000
  Hf  Hf78      1.0  0.94074  0.31492  0.58530  1.0000
  Hf  Hf79      1.0  0.94434  0.81721  0.08161  1.0000
  Hf  Hf80      1.0  0.94261  0.81061  0.58876  1.0000
  Hf  Hf81      1.0  0.09573  0.10675  0.16045  1.0000
  Hf  Hf82      1.0  0.09108  0.10886  0.66910  1.0000
  Hf  Hf83      1.0  0.09356  0.60471  0.16740  1.0000
  Hf  Hf84      1.0  0.09323  0.60791  0.66393  1.0000
  Hf  Hf85      1.0  0.34256  0.11540  0.16444  1.0000
  Hf  Hf86      1.0  0.34233  0.10964  0.66104  1.0000
  Hf  Hf87      1.0  0.34267  0.60717  0.17252  1.0000
  Hf  Hf88      1.0  0.34130  0.60767  0.67124  1.0000
  Hf  Hf89      1.0  0.58975  0.12038  0.16117  1.0000
  Hf  Hf90      1.0  0.58824  0.10790  0.66762  1.0000
  Hf  Hf91      1.0  0.59139  0.62111  0.15926  1.0000
  Hf  Hf92      1.0  0.59461  0.61025  0.66732  1.0000
  Hf  Hf93      1.0  0.84132  0.12031  0.16161  1.0000
  Hf  Hf94      1.0  0.84236  0.11290  0.66627  1.0000
  Hf  Hf95      1.0  0.84257  0.60820  0.17121  1.0000
  Hf  Hf96      1.0  0.84069  0.60739  0.66842  1.0000
  F   F1        1.0  0.07947  0.11307  0.30663  1.0000
  F   F2        1.0  0.07828  0.12719  0.80595  1.0000
  F   F3        1.0  0.08034  0.61319  0.30819  1.0000
  F   F4        1.0  0.07814  0.61635  0.81800  1.0000
  F   F5        1.0  0.33113  0.13782  0.29888  1.0000
  F   F6        1.0  0.32720  0.11773  0.80156  1.0000
  F   F7        1.0  0.32830  0.62843  0.30469  1.0000
  F   F8        1.0  0.33297  0.62315  0.80645  1.0000
  F   F9        1.0  0.57626  0.12595  0.31883  1.0000
  F   F10       1.0  0.57335  0.12205  0.80966  1.0000
  F   F11       1.0  0.57908  0.62234  0.30792  1.0000
  F   F12       1.0  0.57913  0.63189  0.80567  1.0000
  F   F13       1.0  0.83223  0.13723  0.29805  1.0000
  F   F14       1.0  0.83187  0.14522  0.79771  1.0000
  F   F15       1.0  0.83058  0.62985  0.30072  1.0000
  F   F16       1.0  0.82764  0.61692  0.81870  1.0000
  F   F17       1.0  0.18072  0.35325  0.45169  1.0000
  F   F18       1.0  0.19269  0.35579  0.93904  1.0000
  F   F19       1.0  0.18259  0.84260  0.44869  1.0000
  F   F20       1.0  0.17882  0.83526  0.95785  1.0000
  F   F21       1.0  0.43362  0.33847  0.45670  1.0000
  F   F22       1.0  0.44069  0.35106  0.93746  1.0000
  F   F23       1.0  0.42994  0.83886  0.45308  1.0000
  F   F24       1.0  0.42781  0.83387  0.96359  1.0000
  F   F25       1.0  0.68603  0.35178  0.44190  1.0000
  F   F26       1.0  0.69443  0.35253  0.93934  1.0000
  F   F27       1.0  0.69266  0.85752  0.43286  1.0000
  F   F28       1.0  0.68299  0.84988  0.94461  1.0000
  F   F29       1.0  0.93270  0.33480  0.44824  1.0000
  F   F30       1.0  0.94047  0.34049  0.94266  1.0000
  F   F31       1.0  0.93196  0.83375  0.45789  1.0000
  F   F32       1.0  0.93273  0.82579  0.94736  1.0000
  F   F33       1.0  0.16862  0.34590  0.20720  1.0000
  F   F34       1.0  0.17487  0.37938  0.69311  1.0000
  F   F35       1.0  0.16295  0.85593  0.21135  1.0000
  F   F36       1.0  0.16737  0.86449  0.70833  1.0000
  F   F37       1.0  0.41816  0.37451  0.19742  1.0000
  F   F38       1.0  0.42790  0.37678  0.69542  1.0000
  F   F39       1.0  0.42122  0.88960  0.18742  1.0000
  F   F40       1.0  0.42027  0.87318  0.69534  1.0000
  F   F41       1.0  0.67494  0.37676  0.18464  1.0000
  F   F42       1.0  0.66721  0.37431  0.70217  1.0000
  F   F43       1.0  0.67568  0.89571  0.17597  1.0000
  F   F44       1.0  0.67230  0.87488  0.68947  1.0000
  F   F45       1.0  0.91615  0.36534  0.20011  1.0000
  F   F46       1.0  0.92166  0.37809  0.68747  1.0000
  F   F47       1.0  0.92229  0.87915  0.19433  1.0000
  F   F48       1.0  0.92570  0.87573  0.69865  1.0000
  F   F49       1.0  0.07374  0.15724  0.04357  1.0000
  F   F50       1.0  0.07203  0.16688  0.54419  1.0000
  F   F51       1.0  0.06058  0.65296  0.05860  1.0000
  F   F52       1.0  0.05792  0.64098  0.56736  1.0000
  F   F53       1.0  0.32130  0.16952  0.03050  1.0000
  F   F54       1.0  0.30921  0.15691  0.55514  1.0000
  F   F55       1.0  0.31415  0.65048  0.05556  1.0000
  F   F56       1.0  0.31400  0.66777  0.54914  1.0000
  F   F57       1.0  0.56504  0.16071  0.04751  1.0000
  F   F58       1.0  0.56784  0.18207  0.54445  1.0000
  F   F59       1.0  0.55875  0.66254  0.05855  1.0000
  F   F60       1.0  0.56142  0.66683  0.55170  1.0000
  F   F61       1.0  0.82157  0.16582  0.04354  1.0000
  F   F62       1.0  0.82076  0.17322  0.54500  1.0000
  F   F63       1.0  0.81414  0.66245  0.04821  1.0000
  F   F64       1.0  0.81319  0.65205  0.55478  1.0000
  F   F65       1.0  0.20862  0.18951  0.20929  1.0000
  F   F66       1.0  0.19626  0.21079  0.71866  1.0000
  F   F67       1.0  0.20428  0.69859  0.21242  1.0000
  F   F68       1.0  0.20203  0.69122  0.71377  1.0000
  F   F69       1.0  0.45980  0.20907  0.21635  1.0000
  F   F70       1.0  0.46033  0.20477  0.70675  1.0000
  F   F71       1.0  0.45101  0.70261  0.21027  1.0000
  F   F72       1.0  0.45201  0.70300  0.70705  1.0000
  F   F73       1.0  0.70430  0.20813  0.21084  1.0000
  F   F74       1.0  0.70650  0.20767  0.70394  1.0000
  F   F75       1.0  0.69567  0.70617  0.22053  1.0000
  F   F76       1.0  0.70408  0.70978  0.71232  1.0000
  F   F77       1.0  0.94402  0.19830  0.20995  1.0000
  F   F78       1.0  0.94396  0.20440  0.71541  1.0000
  F   F79       1.0  0.95235  0.69853  0.20918  1.0000
  F   F80       1.0  0.95267  0.70243  0.71135  1.0000
  F   F81       1.0  0.15536  0.09055  0.02942  1.0000
  F   F82       1.0  0.15008  0.08201  0.54126  1.0000
  F   F83       1.0  0.15125  0.61736  0.03379  1.0000
  F   F84       1.0  0.14753  0.57893  0.55051  1.0000
  F   F85       1.0  0.39645  0.07857  0.04940  1.0000
  F   F86       1.0  0.39728  0.08635  0.54470  1.0000
  F   F87       1.0  0.39446  0.59222  0.03899  1.0000
  F   F88       1.0  0.40179  0.60021  0.53924  1.0000
  F   F89       1.0  0.65198  0.10650  0.02647  1.0000
  F   F90       1.0  0.64756  0.10209  0.53284  1.0000
  F   F91       1.0  0.64779  0.60480  0.02906  1.0000
  F   F92       1.0  0.65396  0.59793  0.52660  1.0000
  F   F93       1.0  0.90283  0.07912  0.05365  1.0000
  F   F94       1.0  0.90435  0.08947  0.52984  1.0000
  F   F95       1.0  0.89918  0.57557  0.04445  1.0000
  F   F96       1.0  0.89785  0.59646  0.53359  1.0000
  F   F97       1.0  0.15293  0.19863  0.12696  1.0000
  F   F98       1.0  0.15318  0.19128  0.61770  1.0000
  F   F99       1.0  0.15018  0.70435  0.14349  1.0000
  F   F100      1.0  0.15423  0.68208  0.63573  1.0000
  F   F101      1.0  0.40590  0.19716  0.12456  1.0000
  F   F102      1.0  0.40295  0.19359  0.62648  1.0000
  F   F103      1.0  0.39949  0.68881  0.13013  1.0000
  F   F104      1.0  0.39806  0.70111  0.62972  1.0000
  F   F105      1.0  0.64951  0.19954  0.12455  1.0000
  F   F106      1.0  0.65322  0.19736  0.62242  1.0000
  F   F107      1.0  0.64511  0.71686  0.12520  1.0000
  F   F108      1.0  0.65130  0.70401  0.61912  1.0000
  F   F109      1.0  0.89942  0.19863  0.11217  1.0000
  F   F110      1.0  0.90026  0.19486  0.61631  1.0000
  F   F111      1.0  0.90772  0.68540  0.12534  1.0000
  F   F112      1.0  0.90470  0.68071  0.63126  1.0000
  F   F113      1.0  0.09813  0.31315  0.35989  1.0000
  F   F114      1.0  0.10301  0.28757  0.85550  1.0000
  F   F115      1.0  0.09564  0.79905  0.38400  1.0000
  F   F116      1.0  0.09763  0.79236  0.88551  1.0000
  F   F117      1.0  0.34004  0.30437  0.38542  1.0000
  F   F118      1.0  0.34793  0.31490  0.85891  1.0000
  F   F119      1.0  0.34677  0.79843  0.36108  1.0000
  F   F120      1.0  0.34792  0.80629  0.89199  1.0000
  F   F121      1.0  0.60637  0.30919  0.37032  1.0000
  F   F122      1.0  0.60020  0.30654  0.88410  1.0000
  F   F123      1.0  0.60252  0.82397  0.36700  1.0000
  F   F124      1.0  0.59453  0.81948  0.88878  1.0000
  F   F125      1.0  0.85242  0.29731  0.37454  1.0000
  F   F126      1.0  0.85036  0.29929  0.85394  1.0000
  F   F127      1.0  0.84885  0.79648  0.38652  1.0000
  F   F128      1.0  0.85207  0.80302  0.87301  1.0000
  F   F129      1.0  0.06519  0.23883  0.14289  1.0000
  F   F130      1.0  0.07172  0.25386  0.63028  1.0000
  F   F131      1.0  0.05937  0.74442  0.14367  1.0000
  F   F132      1.0  0.07374  0.74828  0.63014  1.0000
  F   F133      1.0  0.32341  0.24947  0.12737  1.0000
  F   F134      1.0  0.31952  0.24597  0.63318  1.0000
  F   F135      1.0  0.31094  0.74615  0.14085  1.0000
  F   F136      1.0  0.30625  0.73758  0.67484  1.0000
  F   F137      1.0  0.56213  0.25519  0.13957  1.0000
  F   F138      1.0  0.55736  0.24822  0.65854  1.0000
  F   F139      1.0  0.55816  0.75722  0.15160  1.0000
  F   F140      1.0  0.56439  0.74359  0.65674  1.0000
  F   F141      1.0  0.80727  0.25314  0.14880  1.0000
  F   F142      1.0  0.80782  0.24932  0.65207  1.0000
  F   F143      1.0  0.82204  0.76122  0.12734  1.0000
  F   F144      1.0  0.82117  0.75087  0.63777  1.0000
  F   F145      1.0  0.12033  0.36895  0.11054  1.0000
  F   F146      1.0  0.12544  0.36844  0.61638  1.0000
  F   F147      1.0  0.12588  0.88523  0.09173  1.0000
  F   F148      1.0  0.12883  0.87309  0.60246  1.0000
  F   F149      1.0  0.37823  0.36830  0.09552  1.0000
  F   F150      1.0  0.36977  0.36575  0.61453  1.0000
  F   F151      1.0  0.37305  0.86526  0.11709  1.0000
  F   F152      1.0  0.37648  0.87715  0.60075  1.0000
  F   F153      1.0  0.62980  0.37387  0.10594  1.0000
  F   F154      1.0  0.61867  0.36437  0.61197  1.0000
  F   F155      1.0  0.62228  0.88358  0.11141  1.0000
  F   F156      1.0  0.62541  0.86463  0.61006  1.0000
  F   F157      1.0  0.87130  0.36706  0.10626  1.0000
  F   F158      1.0  0.87159  0.35349  0.61943  1.0000
  F   F159      1.0  0.87919  0.87479  0.10604  1.0000
  F   F160      1.0  0.87018  0.85043  0.63399  1.0000
  F   F161      1.0  0.19176  0.25477  0.36270  1.0000
  F   F162      1.0  0.18182  0.25192  0.86012  1.0000
  F   F163      1.0  0.18329  0.73501  0.38057  1.0000
  F   F164      1.0  0.18777  0.74474  0.85050  1.0000
  F   F165      1.0  0.42537  0.24334  0.39019  1.0000
  F   F166      1.0  0.43078  0.24970  0.86730  1.0000
  F   F167      1.0  0.42847  0.75097  0.35644  1.0000
  F   F168      1.0  0.43686  0.74441  0.86688  1.0000
  F   F169      1.0  0.68776  0.24636  0.35993  1.0000
  F   F170      1.0  0.68933  0.25425  0.85166  1.0000
  F   F171      1.0  0.68829  0.75626  0.35956  1.0000
  F   F172      1.0  0.68510  0.76271  0.85011  1.0000
  F   F173      1.0  0.94359  0.24911  0.34440  1.0000
  F   F174      1.0  0.92841  0.24686  0.86924  1.0000
  F   F175      1.0  0.94370  0.74983  0.34970  1.0000
  F   F176      1.0  0.94408  0.74752  0.84154  1.0000
  F   F177      1.0  0.13031  0.15437  0.36807  1.0000
  F   F178      1.0  0.12425  0.10520  0.90889  1.0000
  F   F179      1.0  0.12055  0.61887  0.40689  1.0000
  F   F180      1.0  0.12459  0.61307  0.90906  1.0000
  F   F181      1.0  0.37492  0.14062  0.38999  1.0000
  F   F182      1.0  0.37980  0.13837  0.87678  1.0000
  F   F183      1.0  0.37399  0.61873  0.40021  1.0000
  F   F184      1.0  0.37610  0.64088  0.88059  1.0000
  F   F185      1.0  0.62899  0.13662  0.38555  1.0000
  F   F186      1.0  0.62794  0.12221  0.89907  1.0000
  F   F187      1.0  0.62433  0.64207  0.38315  1.0000
  F   F188      1.0  0.62052  0.63750  0.89346  1.0000
  F   F189      1.0  0.87705  0.13745  0.39070  1.0000
  F   F190      1.0  0.87608  0.11926  0.90343  1.0000
  F   F191      1.0  0.87514  0.64234  0.37638  1.0000
  F   F192      1.0  0.87456  0.63179  0.89273  1.0000
  F   F193      1.0  0.00606  0.34433  0.08772  1.0000
  F   F194      1.0  0.00524  0.34499  0.58241  1.0000
  F   F195      1.0  0.00497  0.85742  0.08260  1.0000
  F   F196      1.0  0.00934  0.86426  0.57190  1.0000
  F   F197      1.0  0.25748  0.34715  0.07256  1.0000
  F   F198      1.0  0.25840  0.35920  0.56938  1.0000
  F   F199      1.0  0.25948  0.86931  0.07033  1.0000
  F   F200      1.0  0.25223  0.86120  0.58270  1.0000
  F   F201      1.0  0.50825  0.36147  0.04838  1.0000
  F   F202      1.0  0.51085  0.36842  0.55666  1.0000
  F   F203      1.0  0.50786  0.86570  0.06883  1.0000
  F   F204      1.0  0.50913  0.86023  0.57375  1.0000
  F   F205      1.0  0.75898  0.37174  0.06464  1.0000
  F   F206      1.0  0.76073  0.36777  0.56764  1.0000
  F   F207      1.0  0.75529  0.85468  0.08472  1.0000
  F   F208      1.0  0.75937  0.86720  0.56783  1.0000
  F   F209      1.0  0.06994  0.48083  0.18011  1.0000
  F   F210      1.0  0.06237  0.48059  0.68225  1.0000
  F   F211      1.0  0.07500  0.98160  0.17578  1.0000
  F   F212      1.0  0.07067  0.98861  0.66748  1.0000
  F   F213      1.0  0.31926  0.47797  0.17855  1.0000
  F   F214      1.0  0.32094  0.48644  0.66835  1.0000
  F   F215      1.0  0.30915  0.98598  0.17625  1.0000
  F   F216      1.0  0.32319  0.98496  0.67317  1.0000
  F   F217      1.0  0.57209  0.48475  0.18062  1.0000
  F   F218      1.0  0.57346  0.48494  0.66401  1.0000
  F   F219      1.0  0.57189  0.99315  0.16770  1.0000
  F   F220      1.0  0.56698  0.98164  0.67221  1.0000
  F   F221      1.0  0.81724  0.48874  0.17524  1.0000
  F   F222      1.0  0.81524  0.48316  0.68435  1.0000
  F   F223      1.0  0.82125  0.99103  0.17174  1.0000
  F   F224      1.0  0.82655  0.99069  0.66495  1.0000
  F   F225      1.0  0.24324  0.13432  0.43474  1.0000
  F   F226      1.0  0.24280  0.13487  0.91969  1.0000
  F   F227      1.0  0.24327  0.63477  0.42967  1.0000
  F   F228      1.0  0.24879  0.63220  0.91721  1.0000
  F   F229      1.0  0.48935  0.14707  0.40990  1.0000
  F   F230      1.0  0.48906  0.13207  0.92689  1.0000
  F   F231      1.0  0.49582  0.65040  0.41038  1.0000
  F   F232      1.0  0.49741  0.63007  0.92041  1.0000
  F   F233      1.0  0.74744  0.15059  0.41097  1.0000
  F   F234      1.0  0.74718  0.13467  0.91752  1.0000
  F   F235      1.0  0.74709  0.63884  0.41624  1.0000
  F   F236      1.0  0.74041  0.63966  0.93489  1.0000
  F   F237      1.0  0.99228  0.13428  0.43505  1.0000
  F   F238      1.0  0.99139  0.12924  0.92872  1.0000
  F   F239      1.0  0.99336  0.63196  0.42425  1.0000
  F   F240      1.0  0.99069  0.62965  0.93414  1.0000
  F   F241      1.0  0.18140  0.01829  0.32902  1.0000
  F   F242      1.0  0.17652  0.01592  0.82391  1.0000
  F   F243      1.0  0.18158  0.51936  0.31839  1.0000
  F   F244      1.0  0.18055  0.51491  0.81958  1.0000
  F   F245      1.0  0.42687  0.00836  0.33245  1.0000
  F   F246      1.0  0.43232  0.01069  0.82737  1.0000
  F   F247      1.0  0.43396  0.51375  0.31719  1.0000
  F   F248      1.0  0.43271  0.52477  0.80506  1.0000
  F   F249      1.0  0.68331  0.02732  0.31278  1.0000
  F   F250      1.0  0.68275  0.02751  0.80473  1.0000
  F   F251      1.0  0.67720  0.51814  0.32667  1.0000
  F   F252      1.0  0.67392  0.52510  0.83513  1.0000
  F   F253      1.0  0.93303  0.01122  0.32990  1.0000
  F   F254      1.0  0.93779  0.01659  0.81682  1.0000
  F   F255      1.0  0.92996  0.51551  0.32460  1.0000
  F   F256      1.0  0.93034  0.51676  0.83161  1.0000
  F   F257      1.0  0.99781  0.24859  0.99868  1.0000
  F   F258      1.0  0.00242  0.25090  0.49131  1.0000
  F   F259      1.0  0.99685  0.74706  0.00768  1.0000
  F   F260      1.0  0.99694  0.75651  0.49129  1.0000
  F   F261      1.0  0.25131  0.24074  0.00794  1.0000
  F   F262      1.0  0.24346  0.25824  0.49012  1.0000
  F   F263      1.0  0.25218  0.74644  0.00582  1.0000
  F   F264      1.0  0.25220  0.76013  0.48298  1.0000
  F   F265      1.0  0.49381  0.23300  0.00695  1.0000
  F   F266      1.0  0.49465  0.24155  0.50896  1.0000
  F   F267      1.0  0.50216  0.75948  0.98913  1.0000
  F   F268      1.0  0.49376  0.76658  0.48770  1.0000
  F   F269      1.0  0.75177  0.24268  0.01292  1.0000
  F   F270      1.0  0.75095  0.25520  0.49939  1.0000
  F   F271      1.0  0.74831  0.75693  0.00695  1.0000
  F   F272      1.0  0.74978  0.74119  0.50946  1.0000
  F   F273      1.0  0.13186  0.00514  0.24319  1.0000
  F   F274      1.0  0.12540  0.99595  0.74844  1.0000
  F   F275      1.0  0.13636  0.50816  0.22914  1.0000
  F   F276      1.0  0.11498  0.48535  0.76301  1.0000
  F   F277      1.0  0.36989  0.99450  0.26262  1.0000
  F   F278      1.0  0.37508  0.98367  0.75595  1.0000
  F   F279      1.0  0.36687  0.48792  0.27908  1.0000
  F   F280      1.0  0.37797  0.50616  0.73745  1.0000
  F   F281      1.0  0.62261  0.00632  0.24624  1.0000
  F   F282      1.0  0.62519  0.00228  0.73576  1.0000
  F   F283      1.0  0.63260  0.51145  0.22537  1.0000
  F   F284      1.0  0.62586  0.50695  0.74994  1.0000
  F   F285      1.0  0.87401  0.99778  0.25819  1.0000
  F   F286      1.0  0.87424  0.00697  0.74959  1.0000
  F   F287      1.0  0.86287  0.48395  0.26697  1.0000
  F   F288      1.0  0.87603  0.49733  0.75584  1.0000
  F   F289      1.0  0.04377  0.02063  0.03441  1.0000
  F   F290      1.0  0.04020  0.03511  0.53197  1.0000
  F   F291      1.0  0.04145  0.51940  0.02303  1.0000
  F   F292      1.0  0.03733  0.52441  0.53332  1.0000
  F   F293      1.0  0.28968  0.03577  0.01926  1.0000
  F   F294      1.0  0.29917  0.02183  0.52287  1.0000
  F   F295      1.0  0.29620  0.52935  0.02076  1.0000
  F   F296      1.0  0.29063  0.52808  0.52770  1.0000
  F   F297      1.0  0.53823  0.03859  0.02259  1.0000
  F   F298      1.0  0.53765  0.03521  0.52829  1.0000
  F   F299      1.0  0.54516  0.52194  0.02971  1.0000
  F   F300      1.0  0.54426  0.53555  0.51787  1.0000
  F   F301      1.0  0.79551  0.03208  0.03150  1.0000
  F   F302      1.0  0.78746  0.03643  0.53685  1.0000
  F   F303      1.0  0.78863  0.53317  0.03359  1.0000
  F   F304      1.0  0.79189  0.52687  0.52788  1.0000
  F   F305      1.0  0.23241  0.41327  0.22217  1.0000
  F   F306      1.0  0.23116  0.41801  0.72931  1.0000
  F   F307      1.0  0.22996  0.91386  0.22809  1.0000
  F   F308      1.0  0.23775  0.90379  0.73476  1.0000
  F   F309      1.0  0.48883  0.38801  0.22462  1.0000
  F   F310      1.0  0.48826  0.41306  0.73533  1.0000
  F   F311      1.0  0.48905  0.90625  0.23299  1.0000
  F   F312      1.0  0.48229  0.91507  0.72890  1.0000
  F   F313      1.0  0.73758  0.42235  0.22479  1.0000
  F   F314      1.0  0.73348  0.42895  0.72629  1.0000
  F   F315      1.0  0.73487  0.91886  0.22709  1.0000
  F   F316      1.0  0.73786  0.91782  0.71955  1.0000
  F   F317      1.0  0.98181  0.41847  0.21869  1.0000
  F   F318      1.0  0.97748  0.41910  0.72664  1.0000
  F   F319      1.0  0.98796  0.92229  0.22910  1.0000
  F   F320      1.0  0.98764  0.90941  0.71565  1.0000
  F   F321      1.0  0.20641  0.47666  0.48028  1.0000
  F   F322      1.0  0.19994  0.47852  0.99092  1.0000
  F   F323      1.0  0.20512  0.97065  0.48108  1.0000
  F   F324      1.0  0.21284  0.96007  0.96432  1.0000
  F   F325      1.0  0.46072  0.46984  0.46933  1.0000
  F   F326      1.0  0.45401  0.47980  0.97615  1.0000
  F   F327      1.0  0.45764  0.96748  0.48196  1.0000
  F   F328      1.0  0.46485  0.96688  0.95937  1.0000
  F   F329      1.0  0.70539  0.47069  0.48098  1.0000
  F   F330      1.0  0.70306  0.48433  0.97028  1.0000
  F   F331      1.0  0.70120  0.97929  0.48418  1.0000
  F   F332      1.0  0.70695  0.97160  0.97059  1.0000
  F   F333      1.0  0.95634  0.47072  0.47908  1.0000
  F   F334      1.0  0.96159  0.46733  0.97548  1.0000
  F   F335      1.0  0.96015  0.95903  0.47791  1.0000
  F   F336      1.0  0.96247  0.96071  0.97028  1.0000
  F   F337      1.0  0.01316  0.10108  0.25405  1.0000
  F   F338      1.0  0.01447  0.08358  0.76557  1.0000
  F   F339      1.0  0.01569  0.56975  0.28513  1.0000
  F   F340      1.0  0.01668  0.59339  0.76428  1.0000
  F   F341      1.0  0.26918  0.08912  0.27290  1.0000
  F   F342      1.0  0.26055  0.09373  0.76653  1.0000
  F   F343      1.0  0.26521  0.56890  0.28948  1.0000
  F   F344      1.0  0.26414  0.56518  0.78034  1.0000
  F   F345      1.0  0.51410  0.08632  0.26791  1.0000
  F   F346      1.0  0.51691  0.07963  0.75983  1.0000
  F   F347      1.0  0.51384  0.59457  0.26403  1.0000
  F   F348      1.0  0.51635  0.58761  0.77364  1.0000
  F   F349      1.0  0.76600  0.08245  0.27989  1.0000
  F   F350      1.0  0.77076  0.07900  0.77231  1.0000
  F   F351      1.0  0.76354  0.59272  0.26858  1.0000
  F   F352      1.0  0.76377  0.58502  0.77997  1.0000
  F   F353      1.0  0.10236  0.41718  0.45584  1.0000
  F   F354      1.0  0.10146  0.38814  0.96095  1.0000
  F   F355      1.0  0.09892  0.91962  0.45534  1.0000
  F   F356      1.0  0.09654  0.89882  0.96301  1.0000
  F   F357      1.0  0.35144  0.40399  0.46304  1.0000
  F   F358      1.0  0.35272  0.41206  0.96126  1.0000
  F   F359      1.0  0.34155  0.89311  0.46496  1.0000
  F   F360      1.0  0.35083  0.91670  0.97143  1.0000
  F   F361      1.0  0.60559  0.41625  0.45236  1.0000
  F   F362      1.0  0.60141  0.40461  0.96715  1.0000
  F   F363      1.0  0.60347  0.91723  0.45846  1.0000
  F   F364      1.0  0.60774  0.92671  0.95079  1.0000
  F   F365      1.0  0.85402  0.40673  0.45899  1.0000
  F   F366      1.0  0.84679  0.39971  0.96213  1.0000
  F   F367      1.0  0.85292  0.91105  0.47064  1.0000
  F   F368      1.0  0.85398  0.92145  0.95419  1.0000
  F   F369      1.0  0.04467  0.29052  0.28346  1.0000
  F   F370      1.0  0.04101  0.29867  0.79056  1.0000
  F   F371      1.0  0.05955  0.78760  0.27935  1.0000
  F   F372      1.0  0.04615  0.78987  0.79644  1.0000
  F   F373      1.0  0.29561  0.29945  0.27743  1.0000
  F   F374      1.0  0.29106  0.29511  0.78853  1.0000
  F   F375      1.0  0.28888  0.79214  0.28358  1.0000
  F   F376      1.0  0.30086  0.80920  0.79572  1.0000
  F   F377      1.0  0.55598  0.30892  0.29131  1.0000
  F   F378      1.0  0.54512  0.29820  0.79653  1.0000
  F   F379      1.0  0.55198  0.80111  0.28570  1.0000
  F   F380      1.0  0.54953  0.80065  0.78665  1.0000
  F   F381      1.0  0.80211  0.30648  0.28309  1.0000
  F   F382      1.0  0.78851  0.30539  0.79254  1.0000
  F   F383      1.0  0.80132  0.80117  0.28475  1.0000
  F   F384      1.0  0.79437  0.80152  0.79321  1.0000
