data_image0
_chemical_formula_structural       Hf96F384
_chemical_formula_sum              "Hf96 F384"
_cell_length_a       31.0577
_cell_length_b       15.5326
_cell_length_c       15.519
_cell_angle_alpha    63.342
_cell_angle_beta     63.342
_cell_angle_gamma    80.1625

_space_group_name_H-M_alt    "P 1"
_space_group_IT_number       1

loop_
  _space_group_symop_operation_xyz
  'x, y, z'

loop_
  _atom_site_type_symbol
  _atom_site_label
  _atom_site_symmetry_multiplicity
  _atom_site_fract_x
  _atom_site_fract_y
  _atom_site_fract_z
  _atom_site_occupancy
  Hf  Hf1       1.0  0.19776  0.11454  0.37082  1.0000
  Hf  Hf2       1.0  0.19533  0.11816  0.86864  1.0000
  Hf  Hf3       1.0  0.19522  0.61560  0.36763  1.0000
  Hf  Hf4       1.0  0.19835  0.60586  0.87133  1.0000
  Hf  Hf5       1.0  0.44142  0.10698  0.38343  1.0000
  Hf  Hf6       1.0  0.44845  0.10835  0.87146  1.0000
  Hf  Hf7       1.0  0.44542  0.61023  0.37066  1.0000
  Hf  Hf8       1.0  0.45092  0.61274  0.86447  1.0000
  Hf  Hf9       1.0  0.69311  0.10235  0.36956  1.0000
  Hf  Hf10      1.0  0.69739  0.10087  0.87277  1.0000
  Hf  Hf11      1.0  0.69919  0.60959  0.37160  1.0000
  Hf  Hf12      1.0  0.70059  0.60272  0.86312  1.0000
  Hf  Hf13      1.0  0.94420  0.10591  0.38208  1.0000
  Hf  Hf14      1.0  0.94959  0.11354  0.86606  1.0000
  Hf  Hf15      1.0  0.94965  0.60991  0.36847  1.0000
  Hf  Hf16      1.0  0.94380  0.59593  0.88879  1.0000
  Hf  Hf17      1.0  0.04997  0.39134  0.14146  1.0000
  Hf  Hf18      1.0  0.05198  0.38894  0.63258  1.0000
  Hf  Hf19      1.0  0.05413  0.89829  0.12178  1.0000
  Hf  Hf20      1.0  0.05625  0.88874  0.62044  1.0000
  Hf  Hf21      1.0  0.30348  0.39735  0.11899  1.0000
  Hf  Hf22      1.0  0.30218  0.40475  0.61728  1.0000
  Hf  Hf23      1.0  0.30384  0.89312  0.12531  1.0000
  Hf  Hf24      1.0  0.30587  0.89889  0.61901  1.0000
  Hf  Hf25      1.0  0.55232  0.38371  0.13408  1.0000
  Hf  Hf26      1.0  0.55646  0.38425  0.62645  1.0000
  Hf  Hf27      1.0  0.55309  0.87811  0.13202  1.0000
  Hf  Hf28      1.0  0.55372  0.88786  0.62770  1.0000
  Hf  Hf29      1.0  0.80936  0.39975  0.11994  1.0000
  Hf  Hf30      1.0  0.80717  0.39695  0.61559  1.0000
  Hf  Hf31      1.0  0.80234  0.88808  0.13231  1.0000
  Hf  Hf32      1.0  0.80582  0.88563  0.62435  1.0000
  Hf  Hf33      1.0  0.05259  0.17937  0.42667  1.0000
  Hf  Hf34      1.0  0.05820  0.18871  0.90726  1.0000
  Hf  Hf35      1.0  0.05590  0.69261  0.40424  1.0000
  Hf  Hf36      1.0  0.05531  0.68130  0.92191  1.0000
  Hf  Hf37      1.0  0.30490  0.19476  0.40804  1.0000
  Hf  Hf38      1.0  0.30468  0.17741  0.91673  1.0000
  Hf  Hf39      1.0  0.30404  0.69573  0.41067  1.0000
  Hf  Hf40      1.0  0.31052  0.68698  0.90757  1.0000
  Hf  Hf41      1.0  0.55305  0.18235  0.42329  1.0000
  Hf  Hf42      1.0  0.55483  0.17252  0.92576  1.0000
  Hf  Hf43      1.0  0.55466  0.67717  0.41711  1.0000
  Hf  Hf44      1.0  0.55388  0.67459  0.92018  1.0000
  Hf  Hf45      1.0  0.80301  0.17430  0.41794  1.0000
  Hf  Hf46      1.0  0.80663  0.16392  0.92880  1.0000
  Hf  Hf47      1.0  0.80738  0.68385  0.42332  1.0000
  Hf  Hf48      1.0  0.80693  0.68197  0.91700  1.0000
  Hf  Hf49      1.0  0.15693  0.38585  0.33077  1.0000
  Hf  Hf50      1.0  0.15742  0.39005  0.82800  1.0000
  Hf  Hf51      1.0  0.15758  0.88711  0.33854  1.0000
  Hf  Hf52      1.0  0.16164  0.88057  0.84117  1.0000
  Hf  Hf53      1.0  0.41125  0.38916  0.33653  1.0000
  Hf  Hf54      1.0  0.40989  0.39235  0.82919  1.0000
  Hf  Hf55      1.0  0.41194  0.89213  0.33077  1.0000
  Hf  Hf56      1.0  0.40944  0.89661  0.83000  1.0000
  Hf  Hf57      1.0  0.66199  0.37937  0.33746  1.0000
  Hf  Hf58      1.0  0.65691  0.37770  0.83858  1.0000
  Hf  Hf59      1.0  0.65749  0.88152  0.33682  1.0000
  Hf  Hf60      1.0  0.65720  0.88603  0.83466  1.0000
  Hf  Hf61      1.0  0.90720  0.39417  0.33649  1.0000
  Hf  Hf62      1.0  0.90932  0.39025  0.82989  1.0000
  Hf  Hf63      1.0  0.90885  0.88837  0.34027  1.0000
  Hf  Hf64      1.0  0.90906  0.88431  0.84006  1.0000
  Hf  Hf65      1.0  0.19469  0.31748  0.08003  1.0000
  Hf  Hf66      1.0  0.18973  0.32180  0.58068  1.0000
  Hf  Hf67      1.0  0.19353  0.82567  0.08103  1.0000
  Hf  Hf68      1.0  0.19499  0.81673  0.58106  1.0000
  Hf  Hf69      1.0  0.44237  0.32615  0.08244  1.0000
  Hf  Hf70      1.0  0.44451  0.32353  0.58432  1.0000
  Hf  Hf71      1.0  0.44292  0.82234  0.07703  1.0000
  Hf  Hf72      1.0  0.44340  0.81922  0.58275  1.0000
  Hf  Hf73      1.0  0.70004  0.32768  0.07224  1.0000
  Hf  Hf74      1.0  0.69747  0.31510  0.58213  1.0000
  Hf  Hf75      1.0  0.69576  0.81356  0.07896  1.0000
  Hf  Hf76      1.0  0.69388  0.82631  0.57441  1.0000
  Hf  Hf77      1.0  0.94440  0.31566  0.08755  1.0000
  Hf  Hf78      1.0  0.94257  0.31562  0.58510  1.0000
  Hf  Hf79      1.0  0.94154  0.82133  0.08828  1.0000
  Hf  Hf80      1.0  0.94286  0.81326  0.59627  1.0000
  Hf  Hf81      1.0  0.09332  0.10892  0.16858  1.0000
  Hf  Hf82      1.0  0.09464  0.10691  0.66369  1.0000
  Hf  Hf83      1.0  0.08826  0.60703  0.17782  1.0000
  Hf  Hf84      1.0  0.08883  0.60639  0.66701  1.0000
  Hf  Hf85      1.0  0.34314  0.11976  0.15430  1.0000
  Hf  Hf86      1.0  0.34161  0.11747  0.66091  1.0000
  Hf  Hf87      1.0  0.34008  0.61725  0.16371  1.0000
  Hf  Hf88      1.0  0.33921  0.61878  0.66835  1.0000
  Hf  Hf89      1.0  0.58536  0.10457  0.17658  1.0000
  Hf  Hf90      1.0  0.59040  0.11120  0.67183  1.0000
  Hf  Hf91      1.0  0.59362  0.59827  0.17228  1.0000
  Hf  Hf92      1.0  0.58782  0.60642  0.66720  1.0000
  Hf  Hf93      1.0  0.84106  0.11349  0.16685  1.0000
  Hf  Hf94      1.0  0.84107  0.10347  0.67329  1.0000
  Hf  Hf95      1.0  0.84261  0.61354  0.16828  1.0000
  Hf  Hf96      1.0  0.84444  0.61187  0.65967  1.0000
  F   F1        1.0  0.07105  0.13310  0.31347  1.0000
  F   F2        1.0  0.08293  0.12164  0.80372  1.0000
  F   F3        1.0  0.07119  0.59757  0.33105  1.0000
  F   F4        1.0  0.07904  0.62871  0.79908  1.0000
  F   F5        1.0  0.32300  0.13863  0.30334  1.0000
  F   F6        1.0  0.33164  0.13242  0.79051  1.0000
  F   F7        1.0  0.32433  0.63173  0.30426  1.0000
  F   F8        1.0  0.33287  0.61698  0.81067  1.0000
  F   F9        1.0  0.57403  0.13904  0.30521  1.0000
  F   F10       1.0  0.57351  0.11404  0.80784  1.0000
  F   F11       1.0  0.58634  0.64132  0.29996  1.0000
  F   F12       1.0  0.58063  0.62266  0.80042  1.0000
  F   F13       1.0  0.82442  0.11726  0.30914  1.0000
  F   F14       1.0  0.83311  0.11794  0.81155  1.0000
  F   F15       1.0  0.83375  0.64317  0.30066  1.0000
  F   F16       1.0  0.82538  0.62462  0.80962  1.0000
  F   F17       1.0  0.18829  0.35010  0.44142  1.0000
  F   F18       1.0  0.18293  0.34332  0.94965  1.0000
  F   F19       1.0  0.18566  0.84615  0.44496  1.0000
  F   F20       1.0  0.18056  0.82547  0.95989  1.0000
  F   F21       1.0  0.44286  0.35571  0.43899  1.0000
  F   F22       1.0  0.42767  0.32811  0.95378  1.0000
  F   F23       1.0  0.43727  0.83690  0.44834  1.0000
  F   F24       1.0  0.43966  0.84995  0.94373  1.0000
  F   F25       1.0  0.69534  0.33791  0.44606  1.0000
  F   F26       1.0  0.69608  0.33778  0.94303  1.0000
  F   F27       1.0  0.68729  0.84404  0.44187  1.0000
  F   F28       1.0  0.68469  0.83223  0.94573  1.0000
  F   F29       1.0  0.93343  0.35207  0.44858  1.0000
  F   F30       1.0  0.93061  0.33535  0.96014  1.0000
  F   F31       1.0  0.93308  0.83693  0.45985  1.0000
  F   F32       1.0  0.94125  0.84393  0.94073  1.0000
  F   F33       1.0  0.16986  0.36479  0.19587  1.0000
  F   F34       1.0  0.17216  0.37534  0.68991  1.0000
  F   F35       1.0  0.16543  0.86284  0.20234  1.0000
  F   F36       1.0  0.17217  0.86163  0.70099  1.0000
  F   F37       1.0  0.42152  0.38956  0.19154  1.0000
  F   F38       1.0  0.41868  0.38103  0.70126  1.0000
  F   F39       1.0  0.42970  0.87365  0.18498  1.0000
  F   F40       1.0  0.41960  0.86890  0.69896  1.0000
  F   F41       1.0  0.67831  0.39757  0.17943  1.0000
  F   F42       1.0  0.67086  0.37463  0.69014  1.0000
  F   F43       1.0  0.66789  0.86989  0.20051  1.0000
  F   F44       1.0  0.67018  0.88477  0.69181  1.0000
  F   F45       1.0  0.91256  0.37758  0.20908  1.0000
  F   F46       1.0  0.92687  0.38696  0.68724  1.0000
  F   F47       1.0  0.91940  0.88005  0.19891  1.0000
  F   F48       1.0  0.91733  0.85369  0.71623  1.0000
  F   F49       1.0  0.07069  0.14550  0.05043  1.0000
  F   F50       1.0  0.06855  0.16482  0.55345  1.0000
  F   F51       1.0  0.06502  0.65585  0.05679  1.0000
  F   F52       1.0  0.05836  0.65702  0.56114  1.0000
  F   F53       1.0  0.31548  0.16870  0.04602  1.0000
  F   F54       1.0  0.31242  0.16367  0.54271  1.0000
  F   F55       1.0  0.31381  0.66971  0.05265  1.0000
  F   F56       1.0  0.31423  0.68046  0.53930  1.0000
  F   F57       1.0  0.56639  0.14649  0.05453  1.0000
  F   F58       1.0  0.56964  0.15545  0.54657  1.0000
  F   F59       1.0  0.56421  0.65725  0.05401  1.0000
  F   F60       1.0  0.56191  0.64911  0.54502  1.0000
  F   F61       1.0  0.81306  0.16241  0.05316  1.0000
  F   F62       1.0  0.82074  0.16829  0.55632  1.0000
  F   F63       1.0  0.81405  0.65544  0.06192  1.0000
  F   F64       1.0  0.80851  0.64534  0.56734  1.0000
  F   F65       1.0  0.20915  0.20709  0.20608  1.0000
  F   F66       1.0  0.19478  0.20780  0.70978  1.0000
  F   F67       1.0  0.20548  0.71531  0.20128  1.0000
  F   F68       1.0  0.20172  0.69330  0.70405  1.0000
  F   F69       1.0  0.44381  0.20573  0.21919  1.0000
  F   F70       1.0  0.44516  0.20130  0.71356  1.0000
  F   F71       1.0  0.46001  0.69384  0.21351  1.0000
  F   F72       1.0  0.45391  0.68627  0.71618  1.0000
  F   F73       1.0  0.68760  0.20434  0.20991  1.0000
  F   F74       1.0  0.70717  0.20755  0.70526  1.0000
  F   F75       1.0  0.69847  0.69856  0.22206  1.0000
  F   F76       1.0  0.71043  0.69380  0.70387  1.0000
  F   F77       1.0  0.95484  0.20226  0.22145  1.0000
  F   F78       1.0  0.95657  0.20652  0.70113  1.0000
  F   F79       1.0  0.95264  0.70885  0.20494  1.0000
  F   F80       1.0  0.95889  0.69855  0.71169  1.0000
  F   F81       1.0  0.15407  0.11593  0.03558  1.0000
  F   F82       1.0  0.14697  0.08203  0.54786  1.0000
  F   F83       1.0  0.14669  0.58910  0.04493  1.0000
  F   F84       1.0  0.13831  0.58211  0.52725  1.0000
  F   F85       1.0  0.39709  0.08844  0.03791  1.0000
  F   F86       1.0  0.39422  0.09820  0.53101  1.0000
  F   F87       1.0  0.39583  0.59708  0.05055  1.0000
  F   F88       1.0  0.39945  0.60522  0.52931  1.0000
  F   F89       1.0  0.65057  0.06050  0.02696  1.0000
  F   F90       1.0  0.65408  0.08627  0.54944  1.0000
  F   F91       1.0  0.64391  0.58458  0.04723  1.0000
  F   F92       1.0  0.65085  0.58524  0.54240  1.0000
  F   F93       1.0  0.89755  0.10347  0.02910  1.0000
  F   F94       1.0  0.90083  0.08532  0.53894  1.0000
  F   F95       1.0  0.89980  0.56832  0.05176  1.0000
  F   F96       1.0  0.90066  0.60532  0.52583  1.0000
  F   F97       1.0  0.14694  0.20475  0.14857  1.0000
  F   F98       1.0  0.15862  0.19497  0.60692  1.0000
  F   F99       1.0  0.14457  0.69015  0.13505  1.0000
  F   F100      1.0  0.15192  0.68046  0.60849  1.0000
  F   F101      1.0  0.40274  0.19301  0.11954  1.0000
  F   F102      1.0  0.40205  0.20686  0.59907  1.0000
  F   F103      1.0  0.39205  0.71139  0.13428  1.0000
  F   F104      1.0  0.39928  0.70913  0.62817  1.0000
  F   F105      1.0  0.64576  0.18185  0.09405  1.0000
  F   F106      1.0  0.65219  0.20200  0.62864  1.0000
  F   F107      1.0  0.65650  0.69555  0.11936  1.0000
  F   F108      1.0  0.65340  0.70489  0.62757  1.0000
  F   F109      1.0  0.90214  0.19343  0.14404  1.0000
  F   F110      1.0  0.89999  0.20040  0.61026  1.0000
  F   F111      1.0  0.90416  0.70213  0.10345  1.0000
  F   F112      1.0  0.89854  0.69251  0.63738  1.0000
  F   F113      1.0  0.10230  0.30522  0.37292  1.0000
  F   F114      1.0  0.10534  0.29605  0.87056  1.0000
  F   F115      1.0  0.09641  0.81165  0.38372  1.0000
  F   F116      1.0  0.10403  0.79042  0.88133  1.0000
  F   F117      1.0  0.34860  0.32177  0.37769  1.0000
  F   F118      1.0  0.34488  0.30564  0.85662  1.0000
  F   F119      1.0  0.35746  0.80744  0.34609  1.0000
  F   F120      1.0  0.35165  0.79016  0.89176  1.0000
  F   F121      1.0  0.60267  0.30266  0.36903  1.0000
  F   F122      1.0  0.59692  0.29777  0.87967  1.0000
  F   F123      1.0  0.59383  0.79946  0.38873  1.0000
  F   F124      1.0  0.59524  0.79987  0.85507  1.0000
  F   F125      1.0  0.84825  0.31800  0.39014  1.0000
  F   F126      1.0  0.85212  0.31081  0.88206  1.0000
  F   F127      1.0  0.84840  0.80372  0.37246  1.0000
  F   F128      1.0  0.84536  0.79616  0.89520  1.0000
  F   F129      1.0  0.06657  0.24906  0.14167  1.0000
  F   F130      1.0  0.06983  0.25162  0.64300  1.0000
  F   F131      1.0  0.05887  0.75126  0.15491  1.0000
  F   F132      1.0  0.05788  0.75074  0.64480  1.0000
  F   F133      1.0  0.31704  0.26024  0.12862  1.0000
  F   F134      1.0  0.31490  0.26147  0.62735  1.0000
  F   F135      1.0  0.30903  0.75433  0.14756  1.0000
  F   F136      1.0  0.31408  0.75985  0.63556  1.0000
  F   F137      1.0  0.56180  0.24990  0.14355  1.0000
  F   F138      1.0  0.55803  0.24455  0.65053  1.0000
  F   F139      1.0  0.56972  0.74000  0.15377  1.0000
  F   F140      1.0  0.57425  0.75592  0.61682  1.0000
  F   F141      1.0  0.82133  0.26368  0.13382  1.0000
  F   F142      1.0  0.80809  0.24618  0.66519  1.0000
  F   F143      1.0  0.81583  0.75001  0.14095  1.0000
  F   F144      1.0  0.81611  0.74230  0.64073  1.0000
  F   F145      1.0  0.12898  0.38842  0.09193  1.0000
  F   F146      1.0  0.12145  0.38334  0.59942  1.0000
  F   F147      1.0  0.11898  0.85026  0.12919  1.0000
  F   F148      1.0  0.12469  0.85888  0.61279  1.0000
  F   F149      1.0  0.37328  0.37177  0.10835  1.0000
  F   F150      1.0  0.37016  0.36579  0.61975  1.0000
  F   F151      1.0  0.37631  0.87307  0.10960  1.0000
  F   F152      1.0  0.37457  0.87578  0.60016  1.0000
  F   F153      1.0  0.62783  0.34625  0.12659  1.0000
  F   F154      1.0  0.62416  0.35251  0.62407  1.0000
  F   F155      1.0  0.62401  0.86457  0.10878  1.0000
  F   F156      1.0  0.62350  0.86668  0.61570  1.0000
  F   F157      1.0  0.88048  0.37866  0.10907  1.0000
  F   F158      1.0  0.87299  0.34141  0.64147  1.0000
  F   F159      1.0  0.87205  0.85649  0.12017  1.0000
  F   F160      1.0  0.87547  0.87582  0.60427  1.0000
  F   F161      1.0  0.19598  0.24848  0.35687  1.0000
  F   F162      1.0  0.19079  0.25804  0.83888  1.0000
  F   F163      1.0  0.17766  0.74705  0.36846  1.0000
  F   F164      1.0  0.18518  0.74507  0.85923  1.0000
  F   F165      1.0  0.43683  0.25999  0.34500  1.0000
  F   F166      1.0  0.43569  0.24660  0.84861  1.0000
  F   F167      1.0  0.43437  0.75456  0.35334  1.0000
  F   F168      1.0  0.43931  0.75428  0.85577  1.0000
  F   F169      1.0  0.68721  0.24783  0.34733  1.0000
  F   F170      1.0  0.68322  0.25122  0.85771  1.0000
  F   F171      1.0  0.68360  0.74573  0.36695  1.0000
  F   F172      1.0  0.67958  0.75322  0.84587  1.0000
  F   F173      1.0  0.94042  0.24374  0.36971  1.0000
  F   F174      1.0  0.94083  0.25534  0.84147  1.0000
  F   F175      1.0  0.93921  0.76204  0.35112  1.0000
  F   F176      1.0  0.92882  0.73983  0.88254  1.0000
  F   F177      1.0  0.12299  0.13967  0.38933  1.0000
  F   F178      1.0  0.12632  0.11487  0.90242  1.0000
  F   F179      1.0  0.11974  0.64411  0.37576  1.0000
  F   F180      1.0  0.12580  0.63653  0.88242  1.0000
  F   F181      1.0  0.37592  0.13104  0.38240  1.0000
  F   F182      1.0  0.37150  0.13171  0.89480  1.0000
  F   F183      1.0  0.37002  0.62910  0.39725  1.0000
  F   F184      1.0  0.37782  0.63837  0.88868  1.0000
  F   F185      1.0  0.62445  0.11913  0.40315  1.0000
  F   F186      1.0  0.62998  0.14433  0.87028  1.0000
  F   F187      1.0  0.62671  0.61586  0.40391  1.0000
  F   F188      1.0  0.62750  0.62909  0.88500  1.0000
  F   F189      1.0  0.87879  0.16429  0.37422  1.0000
  F   F190      1.0  0.87700  0.12883  0.89377  1.0000
  F   F191      1.0  0.87549  0.63609  0.40463  1.0000
  F   F192      1.0  0.87608  0.63007  0.89389  1.0000
  F   F193      1.0  0.99984  0.36918  0.09749  1.0000
  F   F194      1.0  0.01001  0.35057  0.57974  1.0000
  F   F195      1.0  0.00210  0.87348  0.06948  1.0000
  F   F196      1.0  0.01032  0.87062  0.55849  1.0000
  F   F197      1.0  0.25422  0.36937  0.07129  1.0000
  F   F198      1.0  0.25298  0.36563  0.57027  1.0000
  F   F199      1.0  0.25329  0.87845  0.07140  1.0000
  F   F200      1.0  0.25445  0.85923  0.58548  1.0000
  F   F201      1.0  0.50605  0.36114  0.06967  1.0000
  F   F202      1.0  0.50410  0.37359  0.57012  1.0000
  F   F203      1.0  0.51017  0.86144  0.06937  1.0000
  F   F204      1.0  0.50863  0.85791  0.57210  1.0000
  F   F205      1.0  0.76001  0.36159  0.06906  1.0000
  F   F206      1.0  0.76175  0.36847  0.55473  1.0000
  F   F207      1.0  0.75541  0.84382  0.08980  1.0000
  F   F208      1.0  0.75721  0.85640  0.58628  1.0000
  F   F209      1.0  0.06704  0.47470  0.19897  1.0000
  F   F210      1.0  0.06340  0.48017  0.69123  1.0000
  F   F211      1.0  0.07017  0.98189  0.17565  1.0000
  F   F212      1.0  0.07082  0.97213  0.68517  1.0000
  F   F213      1.0  0.31750  0.49386  0.17505  1.0000
  F   F214      1.0  0.32221  0.48875  0.66832  1.0000
  F   F215      1.0  0.31981  0.99079  0.16048  1.0000
  F   F216      1.0  0.32335  0.98928  0.67360  1.0000
  F   F217      1.0  0.56902  0.46909  0.18308  1.0000
  F   F218      1.0  0.56872  0.48043  0.68015  1.0000
  F   F219      1.0  0.56990  0.98206  0.17617  1.0000
  F   F220      1.0  0.56947  0.98515  0.68073  1.0000
  F   F221      1.0  0.81517  0.47799  0.19811  1.0000
  F   F222      1.0  0.82544  0.48124  0.65860  1.0000
  F   F223      1.0  0.81909  0.98878  0.17832  1.0000
  F   F224      1.0  0.81738  0.98182  0.67301  1.0000
  F   F225      1.0  0.23825  0.13210  0.44287  1.0000
  F   F226      1.0  0.24295  0.12516  0.92545  1.0000
  F   F227      1.0  0.23982  0.65416  0.41356  1.0000
  F   F228      1.0  0.24109  0.64245  0.92131  1.0000
  F   F229      1.0  0.48277  0.14039  0.43649  1.0000
  F   F230      1.0  0.49875  0.11731  0.93532  1.0000
  F   F231      1.0  0.49356  0.64127  0.41422  1.0000
  F   F232      1.0  0.49333  0.62510  0.93293  1.0000
  F   F233      1.0  0.73719  0.13666  0.42185  1.0000
  F   F234      1.0  0.74156  0.12505  0.93085  1.0000
  F   F235      1.0  0.73939  0.65223  0.42409  1.0000
  F   F236      1.0  0.73930  0.65300  0.90432  1.0000
  F   F237      1.0  0.98935  0.11797  0.44079  1.0000
  F   F238      1.0  0.99493  0.15337  0.92372  1.0000
  F   F239      1.0  0.99490  0.64498  0.41595  1.0000
  F   F240      1.0  0.99504  0.63694  0.92921  1.0000
  F   F241      1.0  0.17987  0.02232  0.33275  1.0000
  F   F242      1.0  0.18107  0.00782  0.82858  1.0000
  F   F243      1.0  0.17376  0.51601  0.32010  1.0000
  F   F244      1.0  0.18346  0.51138  0.82009  1.0000
  F   F245      1.0  0.42920  0.01109  0.33741  1.0000
  F   F246      1.0  0.42643  0.02557  0.83637  1.0000
  F   F247      1.0  0.43402  0.51794  0.31976  1.0000
  F   F248      1.0  0.43013  0.50880  0.83434  1.0000
  F   F249      1.0  0.68484  0.99872  0.32983  1.0000
  F   F250      1.0  0.68085  0.01112  0.82926  1.0000
  F   F251      1.0  0.67998  0.50810  0.31777  1.0000
  F   F252      1.0  0.68181  0.50167  0.82670  1.0000
  F   F253      1.0  0.92790  0.01562  0.32147  1.0000
  F   F254      1.0  0.93744  0.02362  0.80730  1.0000
  F   F255      1.0  0.93006  0.52831  0.30283  1.0000
  F   F256      1.0  0.93280  0.51874  0.82210  1.0000
  F   F257      1.0  0.00290  0.25025  0.00610  1.0000
  F   F258      1.0  0.00087  0.24217  0.50493  1.0000
  F   F259      1.0  0.00353  0.75617  0.00705  1.0000
  F   F260      1.0  0.99690  0.74101  0.52216  1.0000
  F   F261      1.0  0.24386  0.23671  0.00225  1.0000
  F   F262      1.0  0.25266  0.27152  0.47176  1.0000
  F   F263      1.0  0.25139  0.76472  0.98897  1.0000
  F   F264      1.0  0.24703  0.75928  0.49556  1.0000
  F   F265      1.0  0.49794  0.23559  0.01299  1.0000
  F   F266      1.0  0.50103  0.25255  0.50099  1.0000
  F   F267      1.0  0.50341  0.76500  0.98812  1.0000
  F   F268      1.0  0.49895  0.74684  0.49774  1.0000
  F   F269      1.0  0.75071  0.24403  0.00288  1.0000
  F   F270      1.0  0.75258  0.22561  0.51738  1.0000
  F   F271      1.0  0.75183  0.74891  0.99949  1.0000
  F   F272      1.0  0.75271  0.75677  0.49872  1.0000
  F   F273      1.0  0.13171  0.00709  0.23760  1.0000
  F   F274      1.0  0.11610  0.98408  0.77593  1.0000
  F   F275      1.0  0.12514  0.48518  0.24391  1.0000
  F   F276      1.0  0.12781  0.49731  0.73637  1.0000
  F   F277      1.0  0.37597  0.00108  0.25692  1.0000
  F   F278      1.0  0.38202  0.01185  0.74476  1.0000
  F   F279      1.0  0.37691  0.52205  0.24907  1.0000
  F   F280      1.0  0.37459  0.51212  0.74121  1.0000
  F   F281      1.0  0.62237  0.99329  0.25835  1.0000
  F   F282      1.0  0.61846  0.99596  0.75679  1.0000
  F   F283      1.0  0.61185  0.48455  0.26719  1.0000
  F   F284      1.0  0.62110  0.49634  0.75852  1.0000
  F   F285      1.0  0.87515  0.00073  0.24902  1.0000
  F   F286      1.0  0.87571  0.98612  0.75241  1.0000
  F   F287      1.0  0.86405  0.50242  0.26332  1.0000
  F   F288      1.0  0.87214  0.50134  0.74774  1.0000
  F   F289      1.0  0.04277  0.03966  0.01922  1.0000
  F   F290      1.0  0.04149  0.03510  0.53794  1.0000
  F   F291      1.0  0.04412  0.53413  0.03029  1.0000
  F   F292      1.0  0.03901  0.52253  0.54315  1.0000
  F   F293      1.0  0.28987  0.03694  0.02455  1.0000
  F   F294      1.0  0.28976  0.02954  0.52799  1.0000
  F   F295      1.0  0.29607  0.53720  0.02235  1.0000
  F   F296      1.0  0.28382  0.54939  0.51840  1.0000
  F   F297      1.0  0.55435  0.01900  0.01263  1.0000
  F   F298      1.0  0.54133  0.03601  0.52514  1.0000
  F   F299      1.0  0.54736  0.52766  0.01838  1.0000
  F   F300      1.0  0.54700  0.52664  0.51209  1.0000
  F   F301      1.0  0.78593  0.01994  0.04379  1.0000
  F   F302      1.0  0.79624  0.02731  0.50737  1.0000
  F   F303      1.0  0.79321  0.53601  0.03273  1.0000
  F   F304      1.0  0.79269  0.52697  0.50059  1.0000
  F   F305      1.0  0.23466  0.42480  0.21258  1.0000
  F   F306      1.0  0.23315  0.42420  0.71778  1.0000
  F   F307      1.0  0.23135  0.91456  0.23812  1.0000
  F   F308      1.0  0.23610  0.91575  0.73659  1.0000
  F   F309      1.0  0.48580  0.40947  0.22914  1.0000
  F   F310      1.0  0.49043  0.40245  0.73659  1.0000
  F   F311      1.0  0.48478  0.93329  0.21637  1.0000
  F   F312      1.0  0.48056  0.93367  0.71482  1.0000
  F   F313      1.0  0.73625  0.40294  0.23598  1.0000
  F   F314      1.0  0.73690  0.41012  0.71775  1.0000
  F   F315      1.0  0.73020  0.91010  0.22520  1.0000
  F   F316      1.0  0.73758  0.90340  0.72480  1.0000
  F   F317      1.0  0.98169  0.41601  0.24292  1.0000
  F   F318      1.0  0.98465  0.41542  0.73797  1.0000
  F   F319      1.0  0.98680  0.91174  0.22306  1.0000
  F   F320      1.0  0.99020  0.89486  0.72637  1.0000
  F   F321      1.0  0.20472  0.47334  0.47246  1.0000
  F   F322      1.0  0.21537  0.48302  0.96265  1.0000
  F   F323      1.0  0.20955  0.97995  0.46748  1.0000
  F   F324      1.0  0.19600  0.97586  0.98195  1.0000
  F   F325      1.0  0.45266  0.47732  0.48162  1.0000
  F   F326      1.0  0.45995  0.47855  0.96315  1.0000
  F   F327      1.0  0.44849  0.96126  0.49186  1.0000
  F   F328      1.0  0.45523  0.97085  0.97839  1.0000
  F   F329      1.0  0.70329  0.46935  0.47778  1.0000
  F   F330      1.0  0.70378  0.47881  0.98018  1.0000
  F   F331      1.0  0.70425  0.96717  0.47644  1.0000
  F   F332      1.0  0.70875  0.95584  0.96698  1.0000
  F   F333      1.0  0.94900  0.47557  0.47969  1.0000
  F   F334      1.0  0.96957  0.46891  0.96415  1.0000
  F   F335      1.0  0.95792  0.96511  0.47841  1.0000
  F   F336      1.0  0.94736  0.98041  0.98556  1.0000
  F   F337      1.0  0.01625  0.07534  0.27667  1.0000
  F   F338      1.0  0.02100  0.09400  0.77440  1.0000
  F   F339      1.0  0.01332  0.60497  0.25530  1.0000
  F   F340      1.0  0.01287  0.58361  0.78815  1.0000
  F   F341      1.0  0.26788  0.08670  0.26244  1.0000
  F   F342      1.0  0.26676  0.10384  0.75492  1.0000
  F   F343      1.0  0.26094  0.58545  0.27199  1.0000
  F   F344      1.0  0.26938  0.59236  0.77087  1.0000
  F   F345      1.0  0.51304  0.08202  0.29385  1.0000
  F   F346      1.0  0.50940  0.09587  0.76417  1.0000
  F   F347      1.0  0.51830  0.58398  0.27358  1.0000
  F   F348      1.0  0.51489  0.58030  0.76477  1.0000
  F   F349      1.0  0.76343  0.10320  0.25499  1.0000
  F   F350      1.0  0.76807  0.07363  0.78242  1.0000
  F   F351      1.0  0.76478  0.58356  0.27843  1.0000
  F   F352      1.0  0.77063  0.57101  0.76500  1.0000
  F   F353      1.0  0.10245  0.41551  0.44933  1.0000
  F   F354      1.0  0.09282  0.41539  0.96609  1.0000
  F   F355      1.0  0.10400  0.92019  0.45575  1.0000
  F   F356      1.0  0.09913  0.90918  0.96908  1.0000
  F   F357      1.0  0.35345  0.41757  0.46238  1.0000
  F   F358      1.0  0.34995  0.40594  0.96138  1.0000
  F   F359      1.0  0.35324  0.92250  0.45079  1.0000
  F   F360      1.0  0.34738  0.92069  0.96569  1.0000
  F   F361      1.0  0.60107  0.38764  0.46780  1.0000
  F   F362      1.0  0.60919  0.39891  0.97309  1.0000
  F   F363      1.0  0.60190  0.92619  0.46247  1.0000
  F   F364      1.0  0.60039  0.87424  0.96086  1.0000
  F   F365      1.0  0.85622  0.42281  0.46529  1.0000
  F   F366      1.0  0.85433  0.41899  0.96202  1.0000
  F   F367      1.0  0.84878  0.90226  0.46732  1.0000
  F   F368      1.0  0.85530  0.92135  0.96063  1.0000
  F   F369      1.0  0.04405  0.29742  0.28726  1.0000
  F   F370      1.0  0.05763  0.30734  0.77610  1.0000
  F   F371      1.0  0.04325  0.81152  0.29834  1.0000
  F   F372      1.0  0.05438  0.79433  0.78224  1.0000
  F   F373      1.0  0.29786  0.30765  0.27435  1.0000
  F   F374      1.0  0.28520  0.29168  0.78748  1.0000
  F   F375      1.0  0.30167  0.80652  0.27721  1.0000
  F   F376      1.0  0.30943  0.80539  0.78068  1.0000
  F   F377      1.0  0.52968  0.29135  0.30220  1.0000
  F   F378      1.0  0.54937  0.28478  0.79542  1.0000
  F   F379      1.0  0.54173  0.79637  0.29227  1.0000
  F   F380      1.0  0.53119  0.79150  0.78289  1.0000
  F   F381      1.0  0.79462  0.28503  0.29986  1.0000
  F   F382      1.0  0.80008  0.27980  0.81680  1.0000
  F   F383      1.0  0.79038  0.79733  0.29190  1.0000
  F   F384      1.0  0.80078  0.80555  0.78697  1.0000
