data_image0
_chemical_formula_structural       Hf96F384
_chemical_formula_sum              "Hf96 F384"
_cell_length_a       31.0315
_cell_length_b       15.5124
_cell_length_c       15.5024
_cell_angle_alpha    63.342
_cell_angle_beta     63.342
_cell_angle_gamma    80.1625

_space_group_name_H-M_alt    "P 1"
_space_group_IT_number       1

loop_
  _space_group_symop_operation_xyz
  'x, y, z'

loop_
  _atom_site_type_symbol
  _atom_site_label
  _atom_site_symmetry_multiplicity
  _atom_site_fract_x
  _atom_site_fract_y
  _atom_site_fract_z
  _atom_site_occupancy
  Hf  Hf1       1.0  0.19391  0.10196  0.38872  1.0000
  Hf  Hf2       1.0  0.19728  0.10001  0.87291  1.0000
  Hf  Hf3       1.0  0.19483  0.61280  0.37739  1.0000
  Hf  Hf4       1.0  0.19513  0.60677  0.87435  1.0000
  Hf  Hf5       1.0  0.44845  0.10934  0.37288  1.0000
  Hf  Hf6       1.0  0.44374  0.10303  0.88320  1.0000
  Hf  Hf7       1.0  0.44393  0.61077  0.37744  1.0000
  Hf  Hf8       1.0  0.44626  0.60576  0.86903  1.0000
  Hf  Hf9       1.0  0.69855  0.11149  0.38089  1.0000
  Hf  Hf10      1.0  0.69724  0.10612  0.87661  1.0000
  Hf  Hf11      1.0  0.69709  0.61547  0.36937  1.0000
  Hf  Hf12      1.0  0.69559  0.60992  0.88330  1.0000
  Hf  Hf13      1.0  0.94672  0.10957  0.37707  1.0000
  Hf  Hf14      1.0  0.94416  0.10874  0.87894  1.0000
  Hf  Hf15      1.0  0.94509  0.60405  0.37554  1.0000
  Hf  Hf16      1.0  0.94404  0.59630  0.88025  1.0000
  Hf  Hf17      1.0  0.05838  0.39249  0.12750  1.0000
  Hf  Hf18      1.0  0.05272  0.39295  0.62248  1.0000
  Hf  Hf19      1.0  0.05129  0.89335  0.13126  1.0000
  Hf  Hf20      1.0  0.05248  0.89073  0.62700  1.0000
  Hf  Hf21      1.0  0.30280  0.40003  0.12291  1.0000
  Hf  Hf22      1.0  0.30397  0.39713  0.61108  1.0000
  Hf  Hf23      1.0  0.30401  0.88971  0.12380  1.0000
  Hf  Hf24      1.0  0.30524  0.88747  0.62742  1.0000
  Hf  Hf25      1.0  0.55657  0.39899  0.11162  1.0000
  Hf  Hf26      1.0  0.55355  0.39822  0.62349  1.0000
  Hf  Hf27      1.0  0.55504  0.89406  0.11894  1.0000
  Hf  Hf28      1.0  0.55171  0.89446  0.63290  1.0000
  Hf  Hf29      1.0  0.80483  0.39107  0.13329  1.0000
  Hf  Hf30      1.0  0.80333  0.39785  0.61652  1.0000
  Hf  Hf31      1.0  0.80628  0.89833  0.11849  1.0000
  Hf  Hf32      1.0  0.80358  0.88613  0.62678  1.0000
  Hf  Hf33      1.0  0.05535  0.17897  0.41898  1.0000
  Hf  Hf34      1.0  0.05624  0.18091  0.91865  1.0000
  Hf  Hf35      1.0  0.05836  0.68384  0.41848  1.0000
  Hf  Hf36      1.0  0.05521  0.67735  0.91603  1.0000
  Hf  Hf37      1.0  0.30597  0.18661  0.41227  1.0000
  Hf  Hf38      1.0  0.30443  0.18193  0.92060  1.0000
  Hf  Hf39      1.0  0.30603  0.68064  0.41265  1.0000
  Hf  Hf40      1.0  0.30452  0.67929  0.92127  1.0000
  Hf  Hf41      1.0  0.56155  0.18358  0.41605  1.0000
  Hf  Hf42      1.0  0.55635  0.18234  0.91899  1.0000
  Hf  Hf43      1.0  0.55468  0.67968  0.41933  1.0000
  Hf  Hf44      1.0  0.55807  0.69329  0.90783  1.0000
  Hf  Hf45      1.0  0.80781  0.17868  0.42193  1.0000
  Hf  Hf46      1.0  0.80615  0.19391  0.90255  1.0000
  Hf  Hf47      1.0  0.80761  0.68029  0.41709  1.0000
  Hf  Hf48      1.0  0.80751  0.68418  0.91304  1.0000
  Hf  Hf49      1.0  0.15967  0.39375  0.33360  1.0000
  Hf  Hf50      1.0  0.15903  0.38393  0.83391  1.0000
  Hf  Hf51      1.0  0.15824  0.88932  0.33149  1.0000
  Hf  Hf52      1.0  0.15828  0.88498  0.83494  1.0000
  Hf  Hf53      1.0  0.40944  0.38625  0.33304  1.0000
  Hf  Hf54      1.0  0.40394  0.38524  0.84173  1.0000
  Hf  Hf55      1.0  0.40711  0.89142  0.33202  1.0000
  Hf  Hf56      1.0  0.40834  0.88969  0.82937  1.0000
  Hf  Hf57      1.0  0.65843  0.39277  0.33415  1.0000
  Hf  Hf58      1.0  0.65870  0.38948  0.83459  1.0000
  Hf  Hf59      1.0  0.65865  0.88567  0.33960  1.0000
  Hf  Hf60      1.0  0.65729  0.89132  0.83406  1.0000
  Hf  Hf61      1.0  0.90881  0.38750  0.32850  1.0000
  Hf  Hf62      1.0  0.90703  0.38630  0.83443  1.0000
  Hf  Hf63      1.0  0.90730  0.87958  0.33216  1.0000
  Hf  Hf64      1.0  0.90901  0.89109  0.82561  1.0000
  Hf  Hf65      1.0  0.19450  0.31227  0.09455  1.0000
  Hf  Hf66      1.0  0.19480  0.31726  0.58315  1.0000
  Hf  Hf67      1.0  0.19199  0.81350  0.08231  1.0000
  Hf  Hf68      1.0  0.19387  0.81036  0.58598  1.0000
  Hf  Hf69      1.0  0.44356  0.31305  0.08616  1.0000
  Hf  Hf70      1.0  0.44276  0.31778  0.58955  1.0000
  Hf  Hf71      1.0  0.44458  0.81291  0.08383  1.0000
  Hf  Hf72      1.0  0.44386  0.82003  0.58343  1.0000
  Hf  Hf73      1.0  0.69402  0.31284  0.08974  1.0000
  Hf  Hf74      1.0  0.69350  0.32465  0.57922  1.0000
  Hf  Hf75      1.0  0.69523  0.81424  0.08198  1.0000
  Hf  Hf76      1.0  0.69625  0.81650  0.58169  1.0000
  Hf  Hf77      1.0  0.94279  0.31071  0.09068  1.0000
  Hf  Hf78      1.0  0.94468  0.31474  0.57902  1.0000
  Hf  Hf79      1.0  0.94534  0.81829  0.07508  1.0000
  Hf  Hf80      1.0  0.94583  0.82202  0.57417  1.0000
  Hf  Hf81      1.0  0.09265  0.11613  0.16478  1.0000
  Hf  Hf82      1.0  0.09102  0.10330  0.67151  1.0000
  Hf  Hf83      1.0  0.08687  0.61554  0.17066  1.0000
  Hf  Hf84      1.0  0.09010  0.60951  0.66621  1.0000
  Hf  Hf85      1.0  0.33905  0.11165  0.16874  1.0000
  Hf  Hf86      1.0  0.34376  0.11429  0.65812  1.0000
  Hf  Hf87      1.0  0.34239  0.60938  0.16239  1.0000
  Hf  Hf88      1.0  0.34114  0.60889  0.66371  1.0000
  Hf  Hf89      1.0  0.59209  0.11506  0.16404  1.0000
  Hf  Hf90      1.0  0.58849  0.11458  0.67064  1.0000
  Hf  Hf91      1.0  0.58779  0.60895  0.17039  1.0000
  Hf  Hf92      1.0  0.59508  0.61649  0.65800  1.0000
  Hf  Hf93      1.0  0.83950  0.11098  0.16534  1.0000
  Hf  Hf94      1.0  0.83778  0.10752  0.66932  1.0000
  Hf  Hf95      1.0  0.84313  0.61351  0.16213  1.0000
  Hf  Hf96      1.0  0.84058  0.61377  0.66329  1.0000
  F   F1        1.0  0.08404  0.13041  0.30367  1.0000
  F   F2        1.0  0.07936  0.14900  0.79198  1.0000
  F   F3        1.0  0.08308  0.63682  0.29899  1.0000
  F   F4        1.0  0.08121  0.62791  0.79770  1.0000
  F   F5        1.0  0.33047  0.12397  0.30989  1.0000
  F   F6        1.0  0.32218  0.11610  0.81846  1.0000
  F   F7        1.0  0.33524  0.63126  0.29654  1.0000
  F   F8        1.0  0.32859  0.64266  0.79746  1.0000
  F   F9        1.0  0.58100  0.11944  0.31314  1.0000
  F   F10       1.0  0.58228  0.11910  0.81620  1.0000
  F   F11       1.0  0.57385  0.62418  0.30677  1.0000
  F   F12       1.0  0.58388  0.64852  0.79042  1.0000
  F   F13       1.0  0.83590  0.14082  0.30056  1.0000
  F   F14       1.0  0.82858  0.13084  0.80033  1.0000
  F   F15       1.0  0.82935  0.61447  0.30850  1.0000
  F   F16       1.0  0.83421  0.63819  0.79668  1.0000
  F   F17       1.0  0.19827  0.35572  0.43024  1.0000
  F   F18       1.0  0.18849  0.34122  0.94185  1.0000
  F   F19       1.0  0.18772  0.84067  0.44666  1.0000
  F   F20       1.0  0.18822  0.84324  0.93888  1.0000
  F   F21       1.0  0.43235  0.35223  0.45382  1.0000
  F   F22       1.0  0.43197  0.33689  0.95341  1.0000
  F   F23       1.0  0.43299  0.84149  0.44207  1.0000
  F   F24       1.0  0.43993  0.85612  0.93461  1.0000
  F   F25       1.0  0.68932  0.34787  0.44482  1.0000
  F   F26       1.0  0.68345  0.32860  0.95969  1.0000
  F   F27       1.0  0.69613  0.84566  0.43499  1.0000
  F   F28       1.0  0.67991  0.83503  0.95539  1.0000
  F   F29       1.0  0.93095  0.32888  0.45199  1.0000
  F   F30       1.0  0.94083  0.33991  0.93909  1.0000
  F   F31       1.0  0.93721  0.84592  0.44026  1.0000
  F   F32       1.0  0.93859  0.83459  0.93648  1.0000
  F   F33       1.0  0.16945  0.37744  0.19868  1.0000
  F   F34       1.0  0.17383  0.36636  0.69429  1.0000
  F   F35       1.0  0.16571  0.85903  0.20081  1.0000
  F   F36       1.0  0.16801  0.87962  0.69392  1.0000
  F   F37       1.0  0.42356  0.35000  0.20811  1.0000
  F   F38       1.0  0.41437  0.37233  0.70890  1.0000
  F   F39       1.0  0.42211  0.87198  0.19118  1.0000
  F   F40       1.0  0.41593  0.85425  0.70449  1.0000
  F   F41       1.0  0.66865  0.36418  0.20786  1.0000
  F   F42       1.0  0.66643  0.38125  0.69177  1.0000
  F   F43       1.0  0.67293  0.86544  0.20234  1.0000
  F   F44       1.0  0.67247  0.86608  0.70537  1.0000
  F   F45       1.0  0.92554  0.37100  0.19340  1.0000
  F   F46       1.0  0.91832  0.36397  0.69543  1.0000
  F   F47       1.0  0.91717  0.86392  0.19281  1.0000
  F   F48       1.0  0.92169  0.88080  0.69279  1.0000
  F   F49       1.0  0.06398  0.16921  0.05529  1.0000
  F   F50       1.0  0.05804  0.14553  0.57196  1.0000
  F   F51       1.0  0.05932  0.64832  0.06840  1.0000
  F   F52       1.0  0.06219  0.65061  0.56208  1.0000
  F   F53       1.0  0.31484  0.16883  0.04982  1.0000
  F   F54       1.0  0.31692  0.16121  0.55294  1.0000
  F   F55       1.0  0.30674  0.64480  0.06404  1.0000
  F   F56       1.0  0.32148  0.66172  0.54377  1.0000
  F   F57       1.0  0.55910  0.16134  0.05880  1.0000
  F   F58       1.0  0.57105  0.16751  0.54078  1.0000
  F   F59       1.0  0.56275  0.64862  0.05878  1.0000
  F   F60       1.0  0.55709  0.65913  0.56429  1.0000
  F   F61       1.0  0.82043  0.16896  0.04502  1.0000
  F   F62       1.0  0.80568  0.14324  0.56961  1.0000
  F   F63       1.0  0.81866  0.67097  0.04265  1.0000
  F   F64       1.0  0.81432  0.65663  0.55118  1.0000
  F   F65       1.0  0.20628  0.19718  0.22676  1.0000
  F   F66       1.0  0.20304  0.19641  0.70546  1.0000
  F   F67       1.0  0.20542  0.71182  0.21445  1.0000
  F   F68       1.0  0.20688  0.69984  0.70360  1.0000
  F   F69       1.0  0.46111  0.20158  0.21860  1.0000
  F   F70       1.0  0.44201  0.20072  0.72315  1.0000
  F   F71       1.0  0.45122  0.69496  0.21885  1.0000
  F   F72       1.0  0.45700  0.69785  0.71532  1.0000
  F   F73       1.0  0.71773  0.21550  0.21789  1.0000
  F   F74       1.0  0.70157  0.19979  0.72440  1.0000
  F   F75       1.0  0.71089  0.70987  0.21183  1.0000
  F   F76       1.0  0.70428  0.70837  0.71481  1.0000
  F   F77       1.0  0.95565  0.19816  0.21458  1.0000
  F   F78       1.0  0.96315  0.21250  0.71367  1.0000
  F   F79       1.0  0.96481  0.70961  0.20096  1.0000
  F   F80       1.0  0.95309  0.70491  0.69719  1.0000
  F   F81       1.0  0.14987  0.08114  0.04291  1.0000
  F   F82       1.0  0.14351  0.08322  0.54820  1.0000
  F   F83       1.0  0.14506  0.61880  0.03393  1.0000
  F   F84       1.0  0.14498  0.59301  0.53782  1.0000
  F   F85       1.0  0.40153  0.08879  0.03890  1.0000
  F   F86       1.0  0.40006  0.09188  0.53968  1.0000
  F   F87       1.0  0.39497  0.60223  0.03065  1.0000
  F   F88       1.0  0.39753  0.59973  0.53918  1.0000
  F   F89       1.0  0.64910  0.09062  0.04343  1.0000
  F   F90       1.0  0.64722  0.09169  0.54480  1.0000
  F   F91       1.0  0.65622  0.60105  0.03696  1.0000
  F   F92       1.0  0.64526  0.59945  0.53168  1.0000
  F   F93       1.0  0.90275  0.08373  0.03295  1.0000
  F   F94       1.0  0.89755  0.10487  0.54176  1.0000
  F   F95       1.0  0.90157  0.58937  0.03940  1.0000
  F   F96       1.0  0.89319  0.58401  0.53527  1.0000
  F   F97       1.0  0.15359  0.19646  0.13801  1.0000
  F   F98       1.0  0.14907  0.19547  0.61700  1.0000
  F   F99       1.0  0.14991  0.70169  0.11862  1.0000
  F   F100      1.0  0.15295  0.69160  0.61875  1.0000
  F   F101      1.0  0.39955  0.18910  0.13667  1.0000
  F   F102      1.0  0.39959  0.19531  0.62721  1.0000
  F   F103      1.0  0.40007  0.69477  0.11905  1.0000
  F   F104      1.0  0.40927  0.69644  0.62270  1.0000
  F   F105      1.0  0.65453  0.19268  0.14257  1.0000
  F   F106      1.0  0.65241  0.20749  0.61786  1.0000
  F   F107      1.0  0.65598  0.69707  0.13864  1.0000
  F   F108      1.0  0.65426  0.69523  0.63158  1.0000
  F   F109      1.0  0.89950  0.19882  0.11599  1.0000
  F   F110      1.0  0.90593  0.18681  0.65288  1.0000
  F   F111      1.0  0.90537  0.69732  0.12724  1.0000
  F   F112      1.0  0.90285  0.69539  0.60298  1.0000
  F   F113      1.0  0.10123  0.29733  0.38991  1.0000
  F   F114      1.0  0.09828  0.30271  0.87015  1.0000
  F   F115      1.0  0.09298  0.80726  0.37788  1.0000
  F   F116      1.0  0.09239  0.80224  0.88647  1.0000
  F   F117      1.0  0.34453  0.30303  0.37903  1.0000
  F   F118      1.0  0.34384  0.30725  0.89599  1.0000
  F   F119      1.0  0.35051  0.79822  0.35447  1.0000
  F   F120      1.0  0.34531  0.79205  0.89356  1.0000
  F   F121      1.0  0.59591  0.31268  0.38637  1.0000
  F   F122      1.0  0.59794  0.29738  0.88725  1.0000
  F   F123      1.0  0.59510  0.81161  0.38351  1.0000
  F   F124      1.0  0.59741  0.80171  0.88082  1.0000
  F   F125      1.0  0.84981  0.29919  0.37230  1.0000
  F   F126      1.0  0.84396  0.31353  0.85192  1.0000
  F   F127      1.0  0.84465  0.80467  0.37738  1.0000
  F   F128      1.0  0.85261  0.80730  0.86138  1.0000
  F   F129      1.0  0.06902  0.25337  0.14621  1.0000
  F   F130      1.0  0.06555  0.25832  0.62888  1.0000
  F   F131      1.0  0.06544  0.75439  0.14266  1.0000
  F   F132      1.0  0.05451  0.74618  0.65540  1.0000
  F   F133      1.0  0.31442  0.25310  0.14993  1.0000
  F   F134      1.0  0.30690  0.25410  0.65320  1.0000
  F   F135      1.0  0.32489  0.75407  0.12415  1.0000
  F   F136      1.0  0.30896  0.74205  0.65284  1.0000
  F   F137      1.0  0.56663  0.25427  0.14454  1.0000
  F   F138      1.0  0.56214  0.24947  0.64713  1.0000
  F   F139      1.0  0.57395  0.74985  0.12663  1.0000
  F   F140      1.0  0.57131  0.75714  0.63819  1.0000
  F   F141      1.0  0.81574  0.24764  0.15245  1.0000
  F   F142      1.0  0.82754  0.24874  0.62213  1.0000
  F   F143      1.0  0.82036  0.75946  0.12912  1.0000
  F   F144      1.0  0.81340  0.74459  0.65103  1.0000
  F   F145      1.0  0.12425  0.36778  0.12303  1.0000
  F   F146      1.0  0.12525  0.37341  0.60282  1.0000
  F   F147      1.0  0.12626  0.87697  0.10034  1.0000
  F   F148      1.0  0.12480  0.85286  0.62026  1.0000
  F   F149      1.0  0.37446  0.37023  0.11114  1.0000
  F   F150      1.0  0.37626  0.36862  0.60066  1.0000
  F   F151      1.0  0.37678  0.86757  0.10463  1.0000
  F   F152      1.0  0.37939  0.87531  0.58647  1.0000
  F   F153      1.0  0.62487  0.38663  0.09777  1.0000
  F   F154      1.0  0.62232  0.36397  0.60945  1.0000
  F   F155      1.0  0.62286  0.87874  0.11110  1.0000
  F   F156      1.0  0.62709  0.87102  0.61137  1.0000
  F   F157      1.0  0.87702  0.37257  0.10384  1.0000
  F   F158      1.0  0.87253  0.38163  0.60148  1.0000
  F   F159      1.0  0.87781  0.88348  0.08297  1.0000
  F   F160      1.0  0.87435  0.85164  0.62328  1.0000
  F   F161      1.0  0.18341  0.24271  0.37784  1.0000
  F   F162      1.0  0.18450  0.23879  0.86200  1.0000
  F   F163      1.0  0.17422  0.74940  0.36896  1.0000
  F   F164      1.0  0.18407  0.74624  0.85725  1.0000
  F   F165      1.0  0.42780  0.24359  0.38695  1.0000
  F   F166      1.0  0.43275  0.25037  0.86748  1.0000
  F   F167      1.0  0.43469  0.74599  0.35919  1.0000
  F   F168      1.0  0.43013  0.74825  0.86536  1.0000
  F   F169      1.0  0.68117  0.24964  0.38224  1.0000
  F   F170      1.0  0.68034  0.25376  0.86024  1.0000
  F   F171      1.0  0.68026  0.74910  0.36820  1.0000
  F   F172      1.0  0.68581  0.75302  0.85413  1.0000
  F   F173      1.0  0.94119  0.25033  0.35178  1.0000
  F   F174      1.0  0.92324  0.24221  0.87325  1.0000
  F   F175      1.0  0.93073  0.74607  0.36744  1.0000
  F   F176      1.0  0.94009  0.73733  0.85078  1.0000
  F   F177      1.0  0.12280  0.13071  0.40141  1.0000
  F   F178      1.0  0.12440  0.12445  0.89770  1.0000
  F   F179      1.0  0.12198  0.61965  0.39721  1.0000
  F   F180      1.0  0.12644  0.63343  0.88234  1.0000
  F   F181      1.0  0.37737  0.13448  0.39201  1.0000
  F   F182      1.0  0.37322  0.13175  0.89379  1.0000
  F   F183      1.0  0.37299  0.62504  0.40138  1.0000
  F   F184      1.0  0.37409  0.62011  0.89266  1.0000
  F   F185      1.0  0.63585  0.15234  0.36440  1.0000
  F   F186      1.0  0.62591  0.09951  0.91742  1.0000
  F   F187      1.0  0.62305  0.64772  0.39466  1.0000
  F   F188      1.0  0.62553  0.62212  0.90837  1.0000
  F   F189      1.0  0.87445  0.13621  0.40078  1.0000
  F   F190      1.0  0.87426  0.12455  0.88858  1.0000
  F   F191      1.0  0.87785  0.65339  0.36669  1.0000
  F   F192      1.0  0.87615  0.61798  0.89306  1.0000
  F   F193      1.0  0.01059  0.35374  0.07534  1.0000
  F   F194      1.0  0.00878  0.37940  0.54867  1.0000
  F   F195      1.0  0.01091  0.86051  0.06873  1.0000
  F   F196      1.0  0.00963  0.87095  0.56025  1.0000
  F   F197      1.0  0.26125  0.34765  0.07402  1.0000
  F   F198      1.0  0.25553  0.36125  0.56795  1.0000
  F   F199      1.0  0.25840  0.85924  0.07604  1.0000
  F   F200      1.0  0.25915  0.85319  0.57359  1.0000
  F   F201      1.0  0.50507  0.36247  0.07703  1.0000
  F   F202      1.0  0.50995  0.36373  0.56012  1.0000
  F   F203      1.0  0.50870  0.84356  0.07990  1.0000
  F   F204      1.0  0.51167  0.86979  0.57347  1.0000
  F   F205      1.0  0.75893  0.36380  0.07523  1.0000
  F   F206      1.0  0.75512  0.36828  0.57295  1.0000
  F   F207      1.0  0.76304  0.87233  0.06478  1.0000
  F   F208      1.0  0.75650  0.86448  0.56919  1.0000
  F   F209      1.0  0.07019  0.48746  0.17503  1.0000
  F   F210      1.0  0.06819  0.47556  0.68462  1.0000
  F   F211      1.0  0.07137  0.98744  0.17801  1.0000
  F   F212      1.0  0.07174  0.97421  0.67185  1.0000
  F   F213      1.0  0.31414  0.48493  0.18184  1.0000
  F   F214      1.0  0.31323  0.48507  0.67110  1.0000
  F   F215      1.0  0.31869  0.98308  0.17306  1.0000
  F   F216      1.0  0.32296  0.98470  0.67806  1.0000
  F   F217      1.0  0.56487  0.48687  0.17231  1.0000
  F   F218      1.0  0.57052  0.48957  0.66420  1.0000
  F   F219      1.0  0.56629  0.98182  0.17928  1.0000
  F   F220      1.0  0.56169  0.98491  0.68972  1.0000
  F   F221      1.0  0.81591  0.48832  0.17828  1.0000
  F   F222      1.0  0.81154  0.48527  0.67980  1.0000
  F   F223      1.0  0.81930  0.98090  0.17704  1.0000
  F   F224      1.0  0.82470  0.98259  0.66323  1.0000
  F   F225      1.0  0.24206  0.11916  0.44096  1.0000
  F   F226      1.0  0.23862  0.13196  0.93353  1.0000
  F   F227      1.0  0.23861  0.65320  0.42291  1.0000
  F   F228      1.0  0.24355  0.64282  0.91684  1.0000
  F   F229      1.0  0.49414  0.14230  0.42333  1.0000
  F   F230      1.0  0.49402  0.13283  0.93021  1.0000
  F   F231      1.0  0.49288  0.64449  0.42343  1.0000
  F   F232      1.0  0.49243  0.64242  0.92182  1.0000
  F   F233      1.0  0.74618  0.14562  0.42414  1.0000
  F   F234      1.0  0.73556  0.14507  0.93351  1.0000
  F   F235      1.0  0.74086  0.63958  0.43065  1.0000
  F   F236      1.0  0.74294  0.63468  0.93509  1.0000
  F   F237      1.0  0.99446  0.13804  0.43631  1.0000
  F   F238      1.0  0.99129  0.12606  0.92969  1.0000
  F   F239      1.0  0.99438  0.62975  0.43218  1.0000
  F   F240      1.0  0.99357  0.63570  0.92885  1.0000
  F   F241      1.0  0.18089  0.01821  0.32761  1.0000
  F   F242      1.0  0.17864  0.01413  0.82043  1.0000
  F   F243      1.0  0.18494  0.52133  0.31766  1.0000
  F   F244      1.0  0.18465  0.52377  0.81563  1.0000
  F   F245      1.0  0.42693  0.02729  0.31372  1.0000
  F   F246      1.0  0.43276  0.02257  0.81621  1.0000
  F   F247      1.0  0.43086  0.51688  0.31956  1.0000
  F   F248      1.0  0.43255  0.51104  0.82097  1.0000
  F   F249      1.0  0.68238  0.02028  0.33199  1.0000
  F   F250      1.0  0.68741  0.01830  0.81014  1.0000
  F   F251      1.0  0.68002  0.52479  0.31504  1.0000
  F   F252      1.0  0.67827  0.50926  0.84541  1.0000
  F   F253      1.0  0.92674  0.01914  0.32591  1.0000
  F   F254      1.0  0.93656  0.01314  0.82669  1.0000
  F   F255      1.0  0.92674  0.51973  0.32509  1.0000
  F   F256      1.0  0.93178  0.50863  0.81393  1.0000
  F   F257      1.0  0.99825  0.24359  0.00455  1.0000
  F   F258      1.0  0.99867  0.24958  0.49751  1.0000
  F   F259      1.0  0.99454  0.73360  0.00038  1.0000
  F   F260      1.0  0.99800  0.75222  0.49697  1.0000
  F   F261      1.0  0.24493  0.24317  0.01001  1.0000
  F   F262      1.0  0.24597  0.23876  0.50583  1.0000
  F   F263      1.0  0.25072  0.75132  0.99514  1.0000
  F   F264      1.0  0.25445  0.74777  0.48939  1.0000
  F   F265      1.0  0.49953  0.26165  0.99345  1.0000
  F   F266      1.0  0.49677  0.23781  0.50983  1.0000
  F   F267      1.0  0.49965  0.74923  0.99423  1.0000
  F   F268      1.0  0.50537  0.76570  0.49466  1.0000
  F   F269      1.0  0.75115  0.25358  0.99117  1.0000
  F   F270      1.0  0.75265  0.25403  0.51537  1.0000
  F   F271      1.0  0.75172  0.75478  0.99867  1.0000
  F   F272      1.0  0.75366  0.75073  0.49586  1.0000
  F   F273      1.0  0.12485  0.99875  0.25526  1.0000
  F   F274      1.0  0.12168  0.00117  0.77036  1.0000
  F   F275      1.0  0.12043  0.50542  0.25077  1.0000
  F   F276      1.0  0.12973  0.49894  0.74530  1.0000
  F   F277      1.0  0.37423  0.00321  0.23857  1.0000
  F   F278      1.0  0.37990  0.99826  0.74136  1.0000
  F   F279      1.0  0.38190  0.50115  0.23009  1.0000
  F   F280      1.0  0.37490  0.50245  0.74858  1.0000
  F   F281      1.0  0.62681  0.00417  0.24073  1.0000
  F   F282      1.0  0.62035  0.99840  0.75329  1.0000
  F   F283      1.0  0.62741  0.51004  0.24154  1.0000
  F   F284      1.0  0.62465  0.51620  0.74730  1.0000
  F   F285      1.0  0.87005  0.99224  0.26193  1.0000
  F   F286      1.0  0.87708  0.00599  0.74067  1.0000
  F   F287      1.0  0.87564  0.49551  0.23619  1.0000
  F   F288      1.0  0.86701  0.49072  0.76697  1.0000
  F   F289      1.0  0.04216  0.04009  0.02488  1.0000
  F   F290      1.0  0.04225  0.02541  0.52206  1.0000
  F   F291      1.0  0.05332  0.53160  0.01007  1.0000
  F   F292      1.0  0.04473  0.53361  0.52090  1.0000
  F   F293      1.0  0.28964  0.02688  0.03102  1.0000
  F   F294      1.0  0.29690  0.03434  0.53190  1.0000
  F   F295      1.0  0.28286  0.53206  0.03677  1.0000
  F   F296      1.0  0.29299  0.53476  0.52139  1.0000
  F   F297      1.0  0.54089  0.02916  0.02827  1.0000
  F   F298      1.0  0.55511  0.02587  0.51178  1.0000
  F   F299      1.0  0.54446  0.52131  0.01525  1.0000
  F   F300      1.0  0.54100  0.53575  0.51826  1.0000
  F   F301      1.0  0.79169  0.04412  0.02244  1.0000
  F   F302      1.0  0.79395  0.02227  0.52491  1.0000
  F   F303      1.0  0.79499  0.53421  0.01384  1.0000
  F   F304      1.0  0.79389  0.53305  0.51340  1.0000
  F   F305      1.0  0.23169  0.40129  0.22288  1.0000
  F   F306      1.0  0.23665  0.40049  0.72647  1.0000
  F   F307      1.0  0.22774  0.90624  0.23389  1.0000
  F   F308      1.0  0.23774  0.90709  0.72178  1.0000
  F   F309      1.0  0.48456  0.41345  0.23041  1.0000
  F   F310      1.0  0.48466  0.41260  0.71292  1.0000
  F   F311      1.0  0.48249  0.92268  0.21844  1.0000
  F   F312      1.0  0.48445  0.91754  0.71916  1.0000
  F   F313      1.0  0.73102  0.42729  0.21967  1.0000
  F   F314      1.0  0.73170  0.42287  0.73082  1.0000
  F   F315      1.0  0.73858  0.91625  0.22199  1.0000
  F   F316      1.0  0.73747  0.90507  0.72480  1.0000
  F   F317      1.0  0.98833  0.41219  0.22589  1.0000
  F   F318      1.0  0.98321  0.40298  0.71758  1.0000
  F   F319      1.0  0.98430  0.91793  0.21929  1.0000
  F   F320      1.0  0.98539  0.90817  0.72818  1.0000
  F   F321      1.0  0.20691  0.48159  0.46822  1.0000
  F   F322      1.0  0.19675  0.47183  0.98578  1.0000
  F   F323      1.0  0.20835  0.96796  0.48246  1.0000
  F   F324      1.0  0.20890  0.96096  0.97177  1.0000
  F   F325      1.0  0.45347  0.47157  0.47965  1.0000
  F   F326      1.0  0.45827  0.46713  0.97042  1.0000
  F   F327      1.0  0.45686  0.97112  0.47043  1.0000
  F   F328      1.0  0.46189  0.97384  0.97832  1.0000
  F   F329      1.0  0.70313  0.47666  0.47794  1.0000
  F   F330      1.0  0.70887  0.45715  0.98432  1.0000
  F   F331      1.0  0.70577  0.98243  0.48864  1.0000
  F   F332      1.0  0.70344  0.96600  0.97824  1.0000
  F   F333      1.0  0.94721  0.47222  0.47956  1.0000
  F   F334      1.0  0.96187  0.46554  0.96492  1.0000
  F   F335      1.0  0.94953  0.97492  0.48593  1.0000
  F   F336      1.0  0.95908  0.96107  0.97068  1.0000
  F   F337      1.0  0.01937  0.08615  0.27157  1.0000
  F   F338      1.0  0.01937  0.08157  0.77415  1.0000
  F   F339      1.0  0.01361  0.58979  0.27791  1.0000
  F   F340      1.0  0.01035  0.58479  0.77686  1.0000
  F   F341      1.0  0.26568  0.08488  0.27956  1.0000
  F   F342      1.0  0.26539  0.08536  0.76476  1.0000
  F   F343      1.0  0.26862  0.59841  0.27567  1.0000
  F   F344      1.0  0.26862  0.57303  0.78387  1.0000
  F   F345      1.0  0.51700  0.07264  0.27504  1.0000
  F   F346      1.0  0.51450  0.09085  0.77835  1.0000
  F   F347      1.0  0.51601  0.57066  0.28222  1.0000
  F   F348      1.0  0.52270  0.58736  0.77742  1.0000
  F   F349      1.0  0.77538  0.07452  0.28570  1.0000
  F   F350      1.0  0.76932  0.07417  0.78619  1.0000
  F   F351      1.0  0.76335  0.59074  0.27771  1.0000
  F   F352      1.0  0.76487  0.60036  0.76840  1.0000
  F   F353      1.0  0.09991  0.42547  0.44797  1.0000
  F   F354      1.0  0.10596  0.40560  0.96627  1.0000
  F   F355      1.0  0.10756  0.91182  0.46440  1.0000
  F   F356      1.0  0.10138  0.89929  0.97552  1.0000
  F   F357      1.0  0.34787  0.40892  0.45585  1.0000
  F   F358      1.0  0.34756  0.42181  0.96161  1.0000
  F   F359      1.0  0.34682  0.89731  0.46801  1.0000
  F   F360      1.0  0.35409  0.92462  0.94984  1.0000
  F   F361      1.0  0.60205  0.41769  0.46406  1.0000
  F   F362      1.0  0.59886  0.40261  0.95718  1.0000
  F   F363      1.0  0.60950  0.91140  0.45635  1.0000
  F   F364      1.0  0.60252  0.90632  0.95395  1.0000
  F   F365      1.0  0.85299  0.40521  0.44682  1.0000
  F   F366      1.0  0.85404  0.39708  0.96565  1.0000
  F   F367      1.0  0.85357  0.89901  0.46194  1.0000
  F   F368      1.0  0.85256  0.91668  0.94945  1.0000
  F   F369      1.0  0.04348  0.29500  0.29126  1.0000
  F   F370      1.0  0.04116  0.30434  0.79379  1.0000
  F   F371      1.0  0.04614  0.79982  0.28063  1.0000
  F   F372      1.0  0.05154  0.79166  0.78720  1.0000
  F   F373      1.0  0.29324  0.30033  0.28944  1.0000
  F   F374      1.0  0.30152  0.30746  0.79288  1.0000
  F   F375      1.0  0.28957  0.80378  0.27930  1.0000
  F   F376      1.0  0.29939  0.80731  0.78316  1.0000
  F   F377      1.0  0.55583  0.29898  0.28421  1.0000
  F   F378      1.0  0.54274  0.30641  0.79103  1.0000
  F   F379      1.0  0.54490  0.79251  0.28933  1.0000
  F   F380      1.0  0.54414  0.80801  0.78802  1.0000
  F   F381      1.0  0.79236  0.30862  0.29574  1.0000
  F   F382      1.0  0.79672  0.30462  0.77680  1.0000
  F   F383      1.0  0.81115  0.78731  0.27317  1.0000
  F   F384      1.0  0.79868  0.80201  0.78381  1.0000
