data_image0
_chemical_formula_structural       Hf96F384
_chemical_formula_sum              "Hf96 F384"
_cell_length_a       31.0282
_cell_length_b       15.521
_cell_length_c       15.5087
_cell_angle_alpha    63.342
_cell_angle_beta     63.342
_cell_angle_gamma    80.1625

_space_group_name_H-M_alt    "P 1"
_space_group_IT_number       1

loop_
  _space_group_symop_operation_xyz
  'x, y, z'

loop_
  _atom_site_type_symbol
  _atom_site_label
  _atom_site_symmetry_multiplicity
  _atom_site_fract_x
  _atom_site_fract_y
  _atom_site_fract_z
  _atom_site_occupancy
  Hf  Hf1       1.0  0.19737  0.10974  0.37424  1.0000
  Hf  Hf2       1.0  0.19295  0.09689  0.88146  1.0000
  Hf  Hf3       1.0  0.19803  0.61074  0.37259  1.0000
  Hf  Hf4       1.0  0.20188  0.61061  0.86235  1.0000
  Hf  Hf5       1.0  0.44691  0.11828  0.37813  1.0000
  Hf  Hf6       1.0  0.44591  0.11482  0.87416  1.0000
  Hf  Hf7       1.0  0.44199  0.60622  0.37783  1.0000
  Hf  Hf8       1.0  0.44571  0.60645  0.87618  1.0000
  Hf  Hf9       1.0  0.69457  0.10870  0.37122  1.0000
  Hf  Hf10      1.0  0.69378  0.10529  0.88098  1.0000
  Hf  Hf11      1.0  0.69754  0.60867  0.37086  1.0000
  Hf  Hf12      1.0  0.69900  0.60852  0.86873  1.0000
  Hf  Hf13      1.0  0.94679  0.10500  0.38109  1.0000
  Hf  Hf14      1.0  0.94735  0.10500  0.86891  1.0000
  Hf  Hf15      1.0  0.95176  0.60684  0.36409  1.0000
  Hf  Hf16      1.0  0.95076  0.60406  0.88067  1.0000
  Hf  Hf17      1.0  0.05167  0.38787  0.12031  1.0000
  Hf  Hf18      1.0  0.05671  0.39635  0.62341  1.0000
  Hf  Hf19      1.0  0.05330  0.89069  0.12388  1.0000
  Hf  Hf20      1.0  0.05257  0.89320  0.62334  1.0000
  Hf  Hf21      1.0  0.30269  0.39658  0.12724  1.0000
  Hf  Hf22      1.0  0.30235  0.39418  0.62753  1.0000
  Hf  Hf23      1.0  0.30378  0.89331  0.12363  1.0000
  Hf  Hf24      1.0  0.30254  0.89014  0.62541  1.0000
  Hf  Hf25      1.0  0.55134  0.39833  0.12559  1.0000
  Hf  Hf26      1.0  0.55512  0.39321  0.61791  1.0000
  Hf  Hf27      1.0  0.55200  0.89784  0.12705  1.0000
  Hf  Hf28      1.0  0.55280  0.88738  0.62357  1.0000
  Hf  Hf29      1.0  0.80204  0.38479  0.12953  1.0000
  Hf  Hf30      1.0  0.79932  0.39018  0.63318  1.0000
  Hf  Hf31      1.0  0.80505  0.89560  0.12544  1.0000
  Hf  Hf32      1.0  0.80100  0.88796  0.63476  1.0000
  Hf  Hf33      1.0  0.05757  0.19630  0.40503  1.0000
  Hf  Hf34      1.0  0.05605  0.17721  0.91592  1.0000
  Hf  Hf35      1.0  0.05749  0.68429  0.40966  1.0000
  Hf  Hf36      1.0  0.06006  0.67771  0.90732  1.0000
  Hf  Hf37      1.0  0.30681  0.18520  0.41346  1.0000
  Hf  Hf38      1.0  0.30534  0.18296  0.92150  1.0000
  Hf  Hf39      1.0  0.30614  0.69397  0.41645  1.0000
  Hf  Hf40      1.0  0.30826  0.68123  0.91780  1.0000
  Hf  Hf41      1.0  0.55688  0.18297  0.41056  1.0000
  Hf  Hf42      1.0  0.55439  0.17141  0.91926  1.0000
  Hf  Hf43      1.0  0.55619  0.68311  0.41789  1.0000
  Hf  Hf44      1.0  0.56025  0.67664  0.91487  1.0000
  Hf  Hf45      1.0  0.80166  0.17941  0.42319  1.0000
  Hf  Hf46      1.0  0.80741  0.18531  0.91299  1.0000
  Hf  Hf47      1.0  0.80586  0.67436  0.42756  1.0000
  Hf  Hf48      1.0  0.80791  0.67669  0.92288  1.0000
  Hf  Hf49      1.0  0.16314  0.39263  0.32775  1.0000
  Hf  Hf50      1.0  0.15700  0.37978  0.83349  1.0000
  Hf  Hf51      1.0  0.16025  0.89781  0.32484  1.0000
  Hf  Hf52      1.0  0.15861  0.88930  0.83115  1.0000
  Hf  Hf53      1.0  0.40674  0.38986  0.34056  1.0000
  Hf  Hf54      1.0  0.40577  0.39006  0.84169  1.0000
  Hf  Hf55      1.0  0.40673  0.89706  0.33074  1.0000
  Hf  Hf56      1.0  0.41078  0.88238  0.83340  1.0000
  Hf  Hf57      1.0  0.65783  0.38475  0.33539  1.0000
  Hf  Hf58      1.0  0.65177  0.38486  0.83927  1.0000
  Hf  Hf59      1.0  0.65862  0.88739  0.33358  1.0000
  Hf  Hf60      1.0  0.66079  0.89002  0.83542  1.0000
  Hf  Hf61      1.0  0.90834  0.39309  0.33059  1.0000
  Hf  Hf62      1.0  0.91089  0.38734  0.83274  1.0000
  Hf  Hf63      1.0  0.90889  0.88945  0.32780  1.0000
  Hf  Hf64      1.0  0.90959  0.88142  0.83461  1.0000
  Hf  Hf65      1.0  0.19198  0.31841  0.08253  1.0000
  Hf  Hf66      1.0  0.19389  0.31297  0.58290  1.0000
  Hf  Hf67      1.0  0.18943  0.80851  0.09849  1.0000
  Hf  Hf68      1.0  0.19341  0.82208  0.57332  1.0000
  Hf  Hf69      1.0  0.44347  0.32353  0.08458  1.0000
  Hf  Hf70      1.0  0.44241  0.30810  0.59225  1.0000
  Hf  Hf71      1.0  0.44513  0.82671  0.07797  1.0000
  Hf  Hf72      1.0  0.44387  0.82313  0.57873  1.0000
  Hf  Hf73      1.0  0.69401  0.31913  0.07907  1.0000
  Hf  Hf74      1.0  0.69252  0.32139  0.58474  1.0000
  Hf  Hf75      1.0  0.69398  0.81798  0.08809  1.0000
  Hf  Hf76      1.0  0.69472  0.81587  0.58367  1.0000
  Hf  Hf77      1.0  0.94206  0.31859  0.08130  1.0000
  Hf  Hf78      1.0  0.94260  0.31765  0.58083  1.0000
  Hf  Hf79      1.0  0.94832  0.81521  0.07610  1.0000
  Hf  Hf80      1.0  0.94335  0.82147  0.58113  1.0000
  Hf  Hf81      1.0  0.09388  0.11153  0.16438  1.0000
  Hf  Hf82      1.0  0.09324  0.10542  0.66506  1.0000
  Hf  Hf83      1.0  0.09507  0.61398  0.15853  1.0000
  Hf  Hf84      1.0  0.09442  0.61405  0.65833  1.0000
  Hf  Hf85      1.0  0.34105  0.11492  0.16361  1.0000
  Hf  Hf86      1.0  0.33920  0.11272  0.67205  1.0000
  Hf  Hf87      1.0  0.34618  0.61798  0.16529  1.0000
  Hf  Hf88      1.0  0.34359  0.61908  0.66611  1.0000
  Hf  Hf89      1.0  0.58962  0.11560  0.16736  1.0000
  Hf  Hf90      1.0  0.59351  0.10899  0.66802  1.0000
  Hf  Hf91      1.0  0.58719  0.60645  0.17316  1.0000
  Hf  Hf92      1.0  0.59348  0.61089  0.65955  1.0000
  Hf  Hf93      1.0  0.84147  0.11188  0.16862  1.0000
  Hf  Hf94      1.0  0.84115  0.11009  0.66578  1.0000
  Hf  Hf95      1.0  0.83941  0.61199  0.17458  1.0000
  Hf  Hf96      1.0  0.84445  0.61427  0.66507  1.0000
  F   F1        1.0  0.07896  0.13663  0.30223  1.0000
  F   F2        1.0  0.07745  0.12569  0.79594  1.0000
  F   F3        1.0  0.08205  0.64485  0.28683  1.0000
  F   F4        1.0  0.07788  0.62245  0.80195  1.0000
  F   F5        1.0  0.32940  0.13209  0.30382  1.0000
  F   F6        1.0  0.32454  0.13115  0.80190  1.0000
  F   F7        1.0  0.32917  0.63664  0.31052  1.0000
  F   F8        1.0  0.32935  0.60872  0.81599  1.0000
  F   F9        1.0  0.57880  0.11772  0.30765  1.0000
  F   F10       1.0  0.58221  0.11923  0.81348  1.0000
  F   F11       1.0  0.57562  0.63108  0.30680  1.0000
  F   F12       1.0  0.57873  0.62220  0.80598  1.0000
  F   F13       1.0  0.82457  0.12543  0.30957  1.0000
  F   F14       1.0  0.82966  0.12736  0.81250  1.0000
  F   F15       1.0  0.82783  0.61874  0.31345  1.0000
  F   F16       1.0  0.83505  0.64242  0.79985  1.0000
  F   F17       1.0  0.19462  0.34310  0.43932  1.0000
  F   F18       1.0  0.18215  0.33720  0.94911  1.0000
  F   F19       1.0  0.19434  0.84060  0.43643  1.0000
  F   F20       1.0  0.18124  0.85365  0.95694  1.0000
  F   F21       1.0  0.42974  0.34125  0.45968  1.0000
  F   F22       1.0  0.43179  0.34604  0.94855  1.0000
  F   F23       1.0  0.43289  0.84538  0.44996  1.0000
  F   F24       1.0  0.43527  0.84158  0.95205  1.0000
  F   F25       1.0  0.68229  0.33738  0.44753  1.0000
  F   F26       1.0  0.67770  0.32578  0.96017  1.0000
  F   F27       1.0  0.69366  0.84970  0.44264  1.0000
  F   F28       1.0  0.68634  0.84143  0.94680  1.0000
  F   F29       1.0  0.93635  0.34335  0.44275  1.0000
  F   F30       1.0  0.94167  0.33988  0.93747  1.0000
  F   F31       1.0  0.94059  0.83984  0.44561  1.0000
  F   F32       1.0  0.94113  0.84645  0.94679  1.0000
  F   F33       1.0  0.16459  0.37304  0.20683  1.0000
  F   F34       1.0  0.17287  0.37669  0.69035  1.0000
  F   F35       1.0  0.17449  0.87866  0.19502  1.0000
  F   F36       1.0  0.16404  0.85754  0.71041  1.0000
  F   F37       1.0  0.41493  0.36610  0.20139  1.0000
  F   F38       1.0  0.41942  0.35317  0.70988  1.0000
  F   F39       1.0  0.42699  0.88710  0.18679  1.0000
  F   F40       1.0  0.42239  0.88821  0.69174  1.0000
  F   F41       1.0  0.67531  0.38365  0.17924  1.0000
  F   F42       1.0  0.66471  0.36915  0.70509  1.0000
  F   F43       1.0  0.66295  0.85970  0.21079  1.0000
  F   F44       1.0  0.66784  0.86459  0.70605  1.0000
  F   F45       1.0  0.91815  0.37636  0.19057  1.0000
  F   F46       1.0  0.92879  0.37970  0.68555  1.0000
  F   F47       1.0  0.92292  0.88391  0.18786  1.0000
  F   F48       1.0  0.92565  0.87241  0.69651  1.0000
  F   F49       1.0  0.05867  0.15491  0.05830  1.0000
  F   F50       1.0  0.06009  0.15746  0.55287  1.0000
  F   F51       1.0  0.06017  0.63942  0.05665  1.0000
  F   F52       1.0  0.06966  0.67051  0.54623  1.0000
  F   F53       1.0  0.30558  0.15992  0.06606  1.0000
  F   F54       1.0  0.30702  0.14829  0.56700  1.0000
  F   F55       1.0  0.31952  0.65161  0.05435  1.0000
  F   F56       1.0  0.31454  0.65751  0.55928  1.0000
  F   F57       1.0  0.56108  0.14492  0.06355  1.0000
  F   F58       1.0  0.56398  0.16139  0.54086  1.0000
  F   F59       1.0  0.56825  0.66493  0.05395  1.0000
  F   F60       1.0  0.56693  0.66168  0.54277  1.0000
  F   F61       1.0  0.80628  0.15139  0.06318  1.0000
  F   F62       1.0  0.81160  0.14834  0.56366  1.0000
  F   F63       1.0  0.81581  0.66690  0.05130  1.0000
  F   F64       1.0  0.80908  0.64536  0.56629  1.0000
  F   F65       1.0  0.20556  0.20519  0.21517  1.0000
  F   F66       1.0  0.20088  0.19276  0.72336  1.0000
  F   F67       1.0  0.20526  0.70368  0.21707  1.0000
  F   F68       1.0  0.20535  0.70174  0.71033  1.0000
  F   F69       1.0  0.44793  0.20475  0.21615  1.0000
  F   F70       1.0  0.45797  0.19385  0.71104  1.0000
  F   F71       1.0  0.44850  0.71827  0.22308  1.0000
  F   F72       1.0  0.44744  0.71739  0.71409  1.0000
  F   F73       1.0  0.70607  0.20355  0.20502  1.0000
  F   F74       1.0  0.70178  0.20887  0.71794  1.0000
  F   F75       1.0  0.70929  0.71063  0.21189  1.0000
  F   F76       1.0  0.70657  0.69012  0.70623  1.0000
  F   F77       1.0  0.95388  0.17725  0.22948  1.0000
  F   F78       1.0  0.94687  0.20383  0.71002  1.0000
  F   F79       1.0  0.96758  0.69646  0.20095  1.0000
  F   F80       1.0  0.95006  0.68927  0.72395  1.0000
  F   F81       1.0  0.14947  0.09043  0.04134  1.0000
  F   F82       1.0  0.14593  0.08658  0.53993  1.0000
  F   F83       1.0  0.15468  0.59393  0.02361  1.0000
  F   F84       1.0  0.14996  0.59624  0.53520  1.0000
  F   F85       1.0  0.39355  0.09804  0.03008  1.0000
  F   F86       1.0  0.40085  0.10215  0.53352  1.0000
  F   F87       1.0  0.39954  0.61164  0.03533  1.0000
  F   F88       1.0  0.39888  0.59101  0.54103  1.0000
  F   F89       1.0  0.64427  0.09621  0.03036  1.0000
  F   F90       1.0  0.65052  0.08836  0.54391  1.0000
  F   F91       1.0  0.64591  0.57990  0.06311  1.0000
  F   F92       1.0  0.64656  0.58960  0.53515  1.0000
  F   F93       1.0  0.89836  0.08409  0.05089  1.0000
  F   F94       1.0  0.89548  0.09624  0.53055  1.0000
  F   F95       1.0  0.89701  0.59858  0.05538  1.0000
  F   F96       1.0  0.89656  0.60335  0.53493  1.0000
  F   F97       1.0  0.15296  0.18367  0.12774  1.0000
  F   F98       1.0  0.15665  0.17809  0.61393  1.0000
  F   F99       1.0  0.15357  0.69476  0.12183  1.0000
  F   F100      1.0  0.15344  0.69720  0.61755  1.0000
  F   F101      1.0  0.39649  0.20608  0.12821  1.0000
  F   F102      1.0  0.40249  0.18457  0.62980  1.0000
  F   F103      1.0  0.40067  0.70832  0.13064  1.0000
  F   F104      1.0  0.39769  0.70379  0.62625  1.0000
  F   F105      1.0  0.64617  0.19382  0.14219  1.0000
  F   F106      1.0  0.64441  0.20060  0.64530  1.0000
  F   F107      1.0  0.64777  0.70439  0.14013  1.0000
  F   F108      1.0  0.64732  0.69372  0.61507  1.0000
  F   F109      1.0  0.89522  0.20524  0.13969  1.0000
  F   F110      1.0  0.90247  0.18865  0.61991  1.0000
  F   F111      1.0  0.90033  0.70018  0.13917  1.0000
  F   F112      1.0  0.90324  0.70984  0.60983  1.0000
  F   F113      1.0  0.09510  0.30759  0.38146  1.0000
  F   F114      1.0  0.09456  0.29433  0.86501  1.0000
  F   F115      1.0  0.09606  0.80636  0.35098  1.0000
  F   F116      1.0  0.10302  0.78734  0.90358  1.0000
  F   F117      1.0  0.34735  0.29801  0.38552  1.0000
  F   F118      1.0  0.34147  0.30196  0.90443  1.0000
  F   F119      1.0  0.34015  0.82323  0.36312  1.0000
  F   F120      1.0  0.35818  0.79468  0.87228  1.0000
  F   F121      1.0  0.60304  0.29725  0.35555  1.0000
  F   F122      1.0  0.59515  0.28560  0.88373  1.0000
  F   F123      1.0  0.59491  0.79583  0.38247  1.0000
  F   F124      1.0  0.60240  0.79436  0.88290  1.0000
  F   F125      1.0  0.84357  0.29372  0.40244  1.0000
  F   F126      1.0  0.84707  0.30421  0.86722  1.0000
  F   F127      1.0  0.85090  0.79917  0.38954  1.0000
  F   F128      1.0  0.85371  0.79845  0.86346  1.0000
  F   F129      1.0  0.06506  0.24526  0.14691  1.0000
  F   F130      1.0  0.08077  0.24790  0.61591  1.0000
  F   F131      1.0  0.06926  0.74801  0.12623  1.0000
  F   F132      1.0  0.06235  0.75387  0.65641  1.0000
  F   F133      1.0  0.31456  0.25334  0.14860  1.0000
  F   F134      1.0  0.30806  0.24921  0.64691  1.0000
  F   F135      1.0  0.31764  0.75095  0.14001  1.0000
  F   F136      1.0  0.30895  0.74401  0.66368  1.0000
  F   F137      1.0  0.56911  0.25817  0.11986  1.0000
  F   F138      1.0  0.56869  0.25307  0.63113  1.0000
  F   F139      1.0  0.56213  0.75787  0.13823  1.0000
  F   F140      1.0  0.55984  0.74156  0.64428  1.0000
  F   F141      1.0  0.80634  0.24109  0.15360  1.0000
  F   F142      1.0  0.81560  0.26215  0.63191  1.0000
  F   F143      1.0  0.81958  0.75441  0.14599  1.0000
  F   F144      1.0  0.81296  0.75094  0.63356  1.0000
  F   F145      1.0  0.12564  0.35862  0.09377  1.0000
  F   F146      1.0  0.12841  0.36203  0.61695  1.0000
  F   F147      1.0  0.12216  0.85283  0.12608  1.0000
  F   F148      1.0  0.12710  0.87789  0.59014  1.0000
  F   F149      1.0  0.37805  0.38675  0.09527  1.0000
  F   F150      1.0  0.37726  0.35320  0.61463  1.0000
  F   F151      1.0  0.37490  0.88147  0.10030  1.0000
  F   F152      1.0  0.37505  0.87011  0.60964  1.0000
  F   F153      1.0  0.62004  0.36823  0.11431  1.0000
  F   F154      1.0  0.62663  0.37442  0.60478  1.0000
  F   F155      1.0  0.62599  0.87850  0.09829  1.0000
  F   F156      1.0  0.62199  0.85284  0.62576  1.0000
  F   F157      1.0  0.87341  0.38391  0.08647  1.0000
  F   F158      1.0  0.87693  0.36280  0.61139  1.0000
  F   F159      1.0  0.87672  0.87720  0.10339  1.0000
  F   F160      1.0  0.87385  0.87278  0.60272  1.0000
  F   F161      1.0  0.19524  0.25233  0.35093  1.0000
  F   F162      1.0  0.18361  0.24017  0.86286  1.0000
  F   F163      1.0  0.18061  0.75802  0.35895  1.0000
  F   F164      1.0  0.18950  0.75003  0.85172  1.0000
  F   F165      1.0  0.44261  0.26005  0.34457  1.0000
  F   F166      1.0  0.43697  0.25375  0.85699  1.0000
  F   F167      1.0  0.41962  0.75294  0.37455  1.0000
  F   F168      1.0  0.44513  0.74896  0.85159  1.0000
  F   F169      1.0  0.68646  0.24790  0.35215  1.0000
  F   F170      1.0  0.68415  0.25051  0.86040  1.0000
  F   F171      1.0  0.67879  0.75033  0.37315  1.0000
  F   F172      1.0  0.68786  0.73634  0.85707  1.0000
  F   F173      1.0  0.93308  0.24036  0.36073  1.0000
  F   F174      1.0  0.92729  0.24257  0.87667  1.0000
  F   F175      1.0  0.93958  0.74259  0.35074  1.0000
  F   F176      1.0  0.93471  0.74601  0.87282  1.0000
  F   F177      1.0  0.12830  0.14271  0.37843  1.0000
  F   F178      1.0  0.12243  0.11186  0.90558  1.0000
  F   F179      1.0  0.13116  0.63583  0.37675  1.0000
  F   F180      1.0  0.12685  0.62172  0.88928  1.0000
  F   F181      1.0  0.37651  0.12479  0.39868  1.0000
  F   F182      1.0  0.37477  0.15249  0.87445  1.0000
  F   F183      1.0  0.37265  0.63430  0.39389  1.0000
  F   F184      1.0  0.37559  0.62742  0.89668  1.0000
  F   F185      1.0  0.62788  0.13145  0.38672  1.0000
  F   F186      1.0  0.62778  0.13127  0.88482  1.0000
  F   F187      1.0  0.62607  0.64340  0.37708  1.0000
  F   F188      1.0  0.62714  0.62247  0.90534  1.0000
  F   F189      1.0  0.87094  0.14115  0.38153  1.0000
  F   F190      1.0  0.87568  0.13181  0.91014  1.0000
  F   F191      1.0  0.88090  0.62230  0.38210  1.0000
  F   F192      1.0  0.88011  0.63367  0.89617  1.0000
  F   F193      1.0  0.00558  0.33163  0.09150  1.0000
  F   F194      1.0  0.01161  0.34840  0.59144  1.0000
  F   F195      1.0  0.00731  0.86327  0.07707  1.0000
  F   F196      1.0  0.00414  0.85812  0.57322  1.0000
  F   F197      1.0  0.25167  0.37222  0.07703  1.0000
  F   F198      1.0  0.25872  0.36732  0.57237  1.0000
  F   F199      1.0  0.25143  0.86438  0.08542  1.0000
  F   F200      1.0  0.25438  0.87423  0.57718  1.0000
  F   F201      1.0  0.51074  0.36230  0.06986  1.0000
  F   F202      1.0  0.50817  0.35168  0.58394  1.0000
  F   F203      1.0  0.50767  0.86550  0.06742  1.0000
  F   F204      1.0  0.51000  0.86864  0.55345  1.0000
  F   F205      1.0  0.75900  0.36040  0.07851  1.0000
  F   F206      1.0  0.75590  0.37873  0.56433  1.0000
  F   F207      1.0  0.75810  0.87549  0.07005  1.0000
  F   F208      1.0  0.75638  0.85515  0.57012  1.0000
  F   F209      1.0  0.07952  0.47581  0.16097  1.0000
  F   F210      1.0  0.07439  0.49656  0.66072  1.0000
  F   F211      1.0  0.06864  0.98229  0.17077  1.0000
  F   F212      1.0  0.07287  0.97475  0.68210  1.0000
  F   F213      1.0  0.31788  0.48404  0.18132  1.0000
  F   F214      1.0  0.32033  0.48249  0.67308  1.0000
  F   F215      1.0  0.31926  0.99090  0.16929  1.0000
  F   F216      1.0  0.31951  0.99197  0.66497  1.0000
  F   F217      1.0  0.56258  0.48621  0.18159  1.0000
  F   F218      1.0  0.57197  0.48577  0.67895  1.0000
  F   F219      1.0  0.56156  0.98330  0.18958  1.0000
  F   F220      1.0  0.57525  0.98015  0.67088  1.0000
  F   F221      1.0  0.81915  0.48196  0.19224  1.0000
  F   F222      1.0  0.81639  0.46622  0.68824  1.0000
  F   F223      1.0  0.81383  0.98326  0.17921  1.0000
  F   F224      1.0  0.81916  0.98438  0.68355  1.0000
  F   F225      1.0  0.24110  0.13012  0.43334  1.0000
  F   F226      1.0  0.24490  0.14719  0.92823  1.0000
  F   F227      1.0  0.23901  0.64423  0.43419  1.0000
  F   F228      1.0  0.24335  0.64109  0.91696  1.0000
  F   F229      1.0  0.49257  0.13230  0.44605  1.0000
  F   F230      1.0  0.49162  0.13364  0.92778  1.0000
  F   F231      1.0  0.49055  0.64974  0.40684  1.0000
  F   F232      1.0  0.49043  0.62473  0.92757  1.0000
  F   F233      1.0  0.74002  0.13146  0.43324  1.0000
  F   F234      1.0  0.73705  0.14178  0.93794  1.0000
  F   F235      1.0  0.74012  0.64238  0.42035  1.0000
  F   F236      1.0  0.74759  0.63080  0.93438  1.0000
  F   F237      1.0  0.99484  0.13337  0.43811  1.0000
  F   F238      1.0  0.99373  0.14016  0.91840  1.0000
  F   F239      1.0  0.99581  0.63851  0.41055  1.0000
  F   F240      1.0  0.99151  0.62660  0.93795  1.0000
  F   F241      1.0  0.18290  0.01349  0.33048  1.0000
  F   F242      1.0  0.18681  0.01131  0.81940  1.0000
  F   F243      1.0  0.18976  0.51451  0.30940  1.0000
  F   F244      1.0  0.17945  0.50088  0.82800  1.0000
  F   F245      1.0  0.43135  0.01479  0.31914  1.0000
  F   F246      1.0  0.43351  0.00997  0.82814  1.0000
  F   F247      1.0  0.42664  0.52302  0.32626  1.0000
  F   F248      1.0  0.42628  0.52265  0.81676  1.0000
  F   F249      1.0  0.67586  0.01798  0.32271  1.0000
  F   F250      1.0  0.68686  0.02520  0.81182  1.0000
  F   F251      1.0  0.67593  0.51066  0.32976  1.0000
  F   F252      1.0  0.67727  0.50748  0.83396  1.0000
  F   F253      1.0  0.92895  0.01038  0.34358  1.0000
  F   F254      1.0  0.92711  0.02294  0.82111  1.0000
  F   F255      1.0  0.94124  0.51101  0.31001  1.0000
  F   F256      1.0  0.92562  0.51264  0.83411  1.0000
  F   F257      1.0  0.99501  0.23402  0.01403  1.0000
  F   F258      1.0  0.00492  0.27500  0.47845  1.0000
  F   F259      1.0  0.99555  0.73346  0.00947  1.0000
  F   F260      1.0  0.99967  0.74532  0.49683  1.0000
  F   F261      1.0  0.24886  0.25931  0.00001  1.0000
  F   F262      1.0  0.24698  0.24307  0.50880  1.0000
  F   F263      1.0  0.24986  0.74385  0.01267  1.0000
  F   F264      1.0  0.25410  0.75666  0.50616  1.0000
  F   F265      1.0  0.49350  0.25316  0.00412  1.0000
  F   F266      1.0  0.50078  0.26437  0.47779  1.0000
  F   F267      1.0  0.50059  0.74559  0.99848  1.0000
  F   F268      1.0  0.49466  0.74201  0.51122  1.0000
  F   F269      1.0  0.74796  0.25784  0.99781  1.0000
  F   F270      1.0  0.74747  0.24932  0.49826  1.0000
  F   F271      1.0  0.75212  0.75447  0.00129  1.0000
  F   F272      1.0  0.74745  0.73822  0.50543  1.0000
  F   F273      1.0  0.11753  0.99535  0.26300  1.0000
  F   F274      1.0  0.12985  0.00288  0.75077  1.0000
  F   F275      1.0  0.12995  0.52276  0.24355  1.0000
  F   F276      1.0  0.11837  0.48966  0.75556  1.0000
  F   F277      1.0  0.36970  0.00488  0.26109  1.0000
  F   F278      1.0  0.37647  0.99559  0.75138  1.0000
  F   F279      1.0  0.37213  0.49697  0.25981  1.0000
  F   F280      1.0  0.37408  0.49573  0.75041  1.0000
  F   F281      1.0  0.62066  0.98423  0.25079  1.0000
  F   F282      1.0  0.62369  0.99604  0.75688  1.0000
  F   F283      1.0  0.61715  0.49615  0.25870  1.0000
  F   F284      1.0  0.62867  0.50193  0.73995  1.0000
  F   F285      1.0  0.86974  0.99717  0.25164  1.0000
  F   F286      1.0  0.87840  0.00457  0.74247  1.0000
  F   F287      1.0  0.88213  0.50387  0.24179  1.0000
  F   F288      1.0  0.86962  0.49956  0.75756  1.0000
  F   F289      1.0  0.04087  0.02613  0.00903  1.0000
  F   F290      1.0  0.05514  0.01675  0.50934  1.0000
  F   F291      1.0  0.03847  0.51724  0.02573  1.0000
  F   F292      1.0  0.04132  0.53723  0.52400  1.0000
  F   F293      1.0  0.30283  0.03689  0.01482  1.0000
  F   F294      1.0  0.29493  0.02311  0.52057  1.0000
  F   F295      1.0  0.28495  0.54418  0.03164  1.0000
  F   F296      1.0  0.28796  0.54441  0.52216  1.0000
  F   F297      1.0  0.54026  0.01947  0.01778  1.0000
  F   F298      1.0  0.53818  0.01807  0.52128  1.0000
  F   F299      1.0  0.53333  0.53782  0.04098  1.0000
  F   F300      1.0  0.54326  0.52462  0.52676  1.0000
  F   F301      1.0  0.79609  0.02898  0.01089  1.0000
  F   F302      1.0  0.78690  0.02391  0.53490  1.0000
  F   F303      1.0  0.80350  0.52850  0.01284  1.0000
  F   F304      1.0  0.79497  0.53043  0.52216  1.0000
  F   F305      1.0  0.23746  0.41160  0.22793  1.0000
  F   F306      1.0  0.23130  0.40392  0.73178  1.0000
  F   F307      1.0  0.23434  0.94011  0.20878  1.0000
  F   F308      1.0  0.23119  0.91882  0.72343  1.0000
  F   F309      1.0  0.47845  0.42025  0.23504  1.0000
  F   F310      1.0  0.48541  0.41463  0.72582  1.0000
  F   F311      1.0  0.48554  0.89882  0.23935  1.0000
  F   F312      1.0  0.49117  0.91116  0.72292  1.0000
  F   F313      1.0  0.73425  0.41829  0.22584  1.0000
  F   F314      1.0  0.73066  0.41838  0.72270  1.0000
  F   F315      1.0  0.73610  0.88085  0.24711  1.0000
  F   F316      1.0  0.73216  0.90135  0.72295  1.0000
  F   F317      1.0  0.98471  0.41774  0.21240  1.0000
  F   F318      1.0  0.98822  0.42879  0.72126  1.0000
  F   F319      1.0  0.98633  0.91709  0.22553  1.0000
  F   F320      1.0  0.98646  0.90825  0.73992  1.0000
  F   F321      1.0  0.20241  0.47100  0.47693  1.0000
  F   F322      1.0  0.20731  0.47154  0.97391  1.0000
  F   F323      1.0  0.20819  0.96733  0.47615  1.0000
  F   F324      1.0  0.20261  0.96879  0.99954  1.0000
  F   F325      1.0  0.46049  0.47343  0.47222  1.0000
  F   F326      1.0  0.45886  0.46853  0.96868  1.0000
  F   F327      1.0  0.45812  0.97810  0.47000  1.0000
  F   F328      1.0  0.45680  0.97149  0.98464  1.0000
  F   F329      1.0  0.70465  0.46929  0.47145  1.0000
  F   F330      1.0  0.70634  0.47057  0.96461  1.0000
  F   F331      1.0  0.70136  0.97457  0.48994  1.0000
  F   F332      1.0  0.70516  0.96999  0.99820  1.0000
  F   F333      1.0  0.95619  0.47059  0.48260  1.0000
  F   F334      1.0  0.96133  0.46611  0.97081  1.0000
  F   F335      1.0  0.95605  0.97702  0.48699  1.0000
  F   F336      1.0  0.95825  0.97476  0.97227  1.0000
  F   F337      1.0  0.01680  0.07433  0.28742  1.0000
  F   F338      1.0  0.01541  0.09216  0.75958  1.0000
  F   F339      1.0  0.02371  0.56435  0.27353  1.0000
  F   F340      1.0  0.01211  0.59174  0.77254  1.0000
  F   F341      1.0  0.26665  0.09203  0.26377  1.0000
  F   F342      1.0  0.26448  0.07398  0.78744  1.0000
  F   F343      1.0  0.26763  0.58763  0.27733  1.0000
  F   F344      1.0  0.26736  0.57295  0.76477  1.0000
  F   F345      1.0  0.51481  0.10950  0.26724  1.0000
  F   F346      1.0  0.51634  0.09638  0.77049  1.0000
  F   F347      1.0  0.51235  0.57990  0.25643  1.0000
  F   F348      1.0  0.51133  0.59079  0.76518  1.0000
  F   F349      1.0  0.76100  0.08061  0.28355  1.0000
  F   F350      1.0  0.76441  0.08296  0.78476  1.0000
  F   F351      1.0  0.76479  0.58732  0.26957  1.0000
  F   F352      1.0  0.77005  0.58136  0.77220  1.0000
  F   F353      1.0  0.10787  0.42455  0.44960  1.0000
  F   F354      1.0  0.09530  0.39864  0.96149  1.0000
  F   F355      1.0  0.09746  0.87829  0.46664  1.0000
  F   F356      1.0  0.10193  0.90912  0.96818  1.0000
  F   F357      1.0  0.34999  0.41469  0.45990  1.0000
  F   F358      1.0  0.34201  0.42108  0.96486  1.0000
  F   F359      1.0  0.35008  0.88650  0.47357  1.0000
  F   F360      1.0  0.34986  0.90867  0.95616  1.0000
  F   F361      1.0  0.59835  0.39376  0.47190  1.0000
  F   F362      1.0  0.59462  0.41834  0.95902  1.0000
  F   F363      1.0  0.60502  0.89589  0.46858  1.0000
  F   F364      1.0  0.60397  0.91323  0.94904  1.0000
  F   F365      1.0  0.85256  0.41365  0.46815  1.0000
  F   F366      1.0  0.85179  0.38414  0.95747  1.0000
  F   F367      1.0  0.85234  0.91486  0.45267  1.0000
  F   F368      1.0  0.85557  0.89968  0.96432  1.0000
  F   F369      1.0  0.04210  0.30691  0.28805  1.0000
  F   F370      1.0  0.04493  0.28525  0.78222  1.0000
  F   F371      1.0  0.04571  0.80246  0.27641  1.0000
  F   F372      1.0  0.04648  0.80474  0.80165  1.0000
  F   F373      1.0  0.29722  0.30373  0.29636  1.0000
  F   F374      1.0  0.30133  0.31177  0.78419  1.0000
  F   F375      1.0  0.29159  0.80715  0.27704  1.0000
  F   F376      1.0  0.29784  0.79859  0.79244  1.0000
  F   F377      1.0  0.54087  0.29929  0.27788  1.0000
  F   F378      1.0  0.54325  0.29730  0.78539  1.0000
  F   F379      1.0  0.54933  0.79775  0.28357  1.0000
  F   F380      1.0  0.54929  0.78708  0.79582  1.0000
  F   F381      1.0  0.80142  0.30079  0.27797  1.0000
  F   F382      1.0  0.78975  0.30214  0.79694  1.0000
  F   F383      1.0  0.79934  0.79644  0.31191  1.0000
  F   F384      1.0  0.79260  0.80468  0.78371  1.0000
