data_image0
_chemical_formula_structural       Hf96F384
_chemical_formula_sum              "Hf96 F384"
_cell_length_a       31.046
_cell_length_b       15.524
_cell_length_c       15.514
_cell_angle_alpha    63.342
_cell_angle_beta     63.342
_cell_angle_gamma    80.1625

_space_group_name_H-M_alt    "P 1"
_space_group_IT_number       1

loop_
  _space_group_symop_operation_xyz
  'x, y, z'

loop_
  _atom_site_type_symbol
  _atom_site_label
  _atom_site_symmetry_multiplicity
  _atom_site_fract_x
  _atom_site_fract_y
  _atom_site_fract_z
  _atom_site_occupancy
  Hf  Hf1       1.0  0.19957  0.10999  0.37488  1.0000
  Hf  Hf2       1.0  0.19893  0.10791  0.87172  1.0000
  Hf  Hf3       1.0  0.19564  0.61722  0.36965  1.0000
  Hf  Hf4       1.0  0.19328  0.60957  0.86921  1.0000
  Hf  Hf5       1.0  0.45100  0.10892  0.37107  1.0000
  Hf  Hf6       1.0  0.44688  0.10412  0.87501  1.0000
  Hf  Hf7       1.0  0.44666  0.60685  0.37884  1.0000
  Hf  Hf8       1.0  0.44985  0.60973  0.86954  1.0000
  Hf  Hf9       1.0  0.69682  0.09678  0.38585  1.0000
  Hf  Hf10      1.0  0.69838  0.10466  0.87908  1.0000
  Hf  Hf11      1.0  0.69472  0.59447  0.38764  1.0000
  Hf  Hf12      1.0  0.69593  0.60666  0.87343  1.0000
  Hf  Hf13      1.0  0.95022  0.10915  0.37687  1.0000
  Hf  Hf14      1.0  0.94631  0.11314  0.87332  1.0000
  Hf  Hf15      1.0  0.94666  0.59744  0.37990  1.0000
  Hf  Hf16      1.0  0.94081  0.59830  0.88968  1.0000
  Hf  Hf17      1.0  0.05252  0.39302  0.12340  1.0000
  Hf  Hf18      1.0  0.04910  0.39783  0.62106  1.0000
  Hf  Hf19      1.0  0.05549  0.89723  0.11563  1.0000
  Hf  Hf20      1.0  0.05495  0.88707  0.62940  1.0000
  Hf  Hf21      1.0  0.30317  0.39494  0.12546  1.0000
  Hf  Hf22      1.0  0.30279  0.38487  0.63568  1.0000
  Hf  Hf23      1.0  0.30284  0.89630  0.11763  1.0000
  Hf  Hf24      1.0  0.30212  0.89128  0.62205  1.0000
  Hf  Hf25      1.0  0.55111  0.39201  0.13553  1.0000
  Hf  Hf26      1.0  0.54932  0.38897  0.63247  1.0000
  Hf  Hf27      1.0  0.55470  0.89301  0.13067  1.0000
  Hf  Hf28      1.0  0.54940  0.89085  0.62747  1.0000
  Hf  Hf29      1.0  0.80388  0.40544  0.11413  1.0000
  Hf  Hf30      1.0  0.80698  0.39419  0.62471  1.0000
  Hf  Hf31      1.0  0.80108  0.88955  0.13100  1.0000
  Hf  Hf32      1.0  0.80748  0.89486  0.61487  1.0000
  Hf  Hf33      1.0  0.06152  0.18219  0.40978  1.0000
  Hf  Hf34      1.0  0.05690  0.19024  0.91482  1.0000
  Hf  Hf35      1.0  0.05625  0.69004  0.41060  1.0000
  Hf  Hf36      1.0  0.05100  0.68372  0.91732  1.0000
  Hf  Hf37      1.0  0.30746  0.18315  0.41128  1.0000
  Hf  Hf38      1.0  0.30352  0.18617  0.91852  1.0000
  Hf  Hf39      1.0  0.30679  0.68890  0.40550  1.0000
  Hf  Hf40      1.0  0.30721  0.67661  0.91352  1.0000
  Hf  Hf41      1.0  0.55411  0.17963  0.42266  1.0000
  Hf  Hf42      1.0  0.55665  0.18386  0.91556  1.0000
  Hf  Hf43      1.0  0.55427  0.66522  0.42261  1.0000
  Hf  Hf44      1.0  0.55609  0.67411  0.91949  1.0000
  Hf  Hf45      1.0  0.81001  0.18487  0.40559  1.0000
  Hf  Hf46      1.0  0.80466  0.18104  0.91921  1.0000
  Hf  Hf47      1.0  0.80233  0.67551  0.42589  1.0000
  Hf  Hf48      1.0  0.80647  0.68957  0.90916  1.0000
  Hf  Hf49      1.0  0.15817  0.38920  0.33295  1.0000
  Hf  Hf50      1.0  0.15522  0.38477  0.84264  1.0000
  Hf  Hf51      1.0  0.16179  0.89251  0.32476  1.0000
  Hf  Hf52      1.0  0.15774  0.88906  0.82646  1.0000
  Hf  Hf53      1.0  0.40736  0.38842  0.33121  1.0000
  Hf  Hf54      1.0  0.40490  0.38575  0.84288  1.0000
  Hf  Hf55      1.0  0.41123  0.89395  0.33026  1.0000
  Hf  Hf56      1.0  0.41246  0.88528  0.83155  1.0000
  Hf  Hf57      1.0  0.65766  0.38571  0.33392  1.0000
  Hf  Hf58      1.0  0.65988  0.38745  0.82901  1.0000
  Hf  Hf59      1.0  0.65592  0.88117  0.33240  1.0000
  Hf  Hf60      1.0  0.65868  0.88388  0.83865  1.0000
  Hf  Hf61      1.0  0.90982  0.38820  0.33033  1.0000
  Hf  Hf62      1.0  0.91044  0.39039  0.83539  1.0000
  Hf  Hf63      1.0  0.91255  0.88016  0.33443  1.0000
  Hf  Hf64      1.0  0.90841  0.88711  0.83574  1.0000
  Hf  Hf65      1.0  0.19618  0.32813  0.07823  1.0000
  Hf  Hf66      1.0  0.18805  0.32518  0.58649  1.0000
  Hf  Hf67      1.0  0.19798  0.81839  0.07120  1.0000
  Hf  Hf68      1.0  0.19805  0.82414  0.57181  1.0000
  Hf  Hf69      1.0  0.44409  0.31591  0.08815  1.0000
  Hf  Hf70      1.0  0.44486  0.31909  0.58356  1.0000
  Hf  Hf71      1.0  0.43899  0.81373  0.08518  1.0000
  Hf  Hf72      1.0  0.44641  0.81315  0.58513  1.0000
  Hf  Hf73      1.0  0.69183  0.31073  0.08515  1.0000
  Hf  Hf74      1.0  0.69629  0.31669  0.58497  1.0000
  Hf  Hf75      1.0  0.69372  0.81184  0.08449  1.0000
  Hf  Hf76      1.0  0.69158  0.81366  0.59162  1.0000
  Hf  Hf77      1.0  0.94284  0.30803  0.09454  1.0000
  Hf  Hf78      1.0  0.94326  0.31258  0.59009  1.0000
  Hf  Hf79      1.0  0.94660  0.83174  0.07501  1.0000
  Hf  Hf80      1.0  0.94591  0.81936  0.58548  1.0000
  Hf  Hf81      1.0  0.09489  0.11137  0.16048  1.0000
  Hf  Hf82      1.0  0.09353  0.11348  0.66171  1.0000
  Hf  Hf83      1.0  0.09198  0.61270  0.16448  1.0000
  Hf  Hf84      1.0  0.08957  0.61208  0.66584  1.0000
  Hf  Hf85      1.0  0.34274  0.11463  0.16727  1.0000
  Hf  Hf86      1.0  0.34327  0.12096  0.66203  1.0000
  Hf  Hf87      1.0  0.33736  0.60774  0.16729  1.0000
  Hf  Hf88      1.0  0.33593  0.61169  0.67182  1.0000
  Hf  Hf89      1.0  0.59171  0.11281  0.16590  1.0000
  Hf  Hf90      1.0  0.59029  0.10966  0.66824  1.0000
  Hf  Hf91      1.0  0.59247  0.61843  0.15977  1.0000
  Hf  Hf92      1.0  0.58948  0.60922  0.67440  1.0000
  Hf  Hf93      1.0  0.84038  0.10990  0.16938  1.0000
  Hf  Hf94      1.0  0.84263  0.11196  0.66469  1.0000
  Hf  Hf95      1.0  0.84134  0.61816  0.17062  1.0000
  Hf  Hf96      1.0  0.84361  0.61407  0.66727  1.0000
  F   F1        1.0  0.08271  0.13683  0.29294  1.0000
  F   F2        1.0  0.07854  0.13799  0.80255  1.0000
  F   F3        1.0  0.08071  0.64458  0.28894  1.0000
  F   F4        1.0  0.07834  0.64819  0.79007  1.0000
  F   F5        1.0  0.32710  0.12574  0.30378  1.0000
  F   F6        1.0  0.32613  0.14300  0.79868  1.0000
  F   F7        1.0  0.33081  0.62025  0.30330  1.0000
  F   F8        1.0  0.32854  0.62838  0.80781  1.0000
  F   F9        1.0  0.57616  0.14672  0.29651  1.0000
  F   F10       1.0  0.57336  0.11628  0.81857  1.0000
  F   F11       1.0  0.58032  0.60712  0.31642  1.0000
  F   F12       1.0  0.57478  0.61242  0.81992  1.0000
  F   F13       1.0  0.83534  0.12087  0.30010  1.0000
  F   F14       1.0  0.83020  0.13154  0.80629  1.0000
  F   F15       1.0  0.83065  0.63637  0.30896  1.0000
  F   F16       1.0  0.83226  0.61671  0.80640  1.0000
  F   F17       1.0  0.18239  0.34044  0.45101  1.0000
  F   F18       1.0  0.18642  0.34020  0.94284  1.0000
  F   F19       1.0  0.19292  0.85709  0.42631  1.0000
  F   F20       1.0  0.18527  0.83522  0.93697  1.0000
  F   F21       1.0  0.44400  0.33515  0.44887  1.0000
  F   F22       1.0  0.43350  0.32242  0.96060  1.0000
  F   F23       1.0  0.44674  0.83971  0.44534  1.0000
  F   F24       1.0  0.43378  0.84298  0.93980  1.0000
  F   F25       1.0  0.68012  0.35050  0.44943  1.0000
  F   F26       1.0  0.68926  0.33444  0.94560  1.0000
  F   F27       1.0  0.68112  0.84731  0.44900  1.0000
  F   F28       1.0  0.68703  0.82737  0.95025  1.0000
  F   F29       1.0  0.93266  0.34194  0.44775  1.0000
  F   F30       1.0  0.92763  0.32907  0.95799  1.0000
  F   F31       1.0  0.94063  0.82934  0.45188  1.0000
  F   F32       1.0  0.94024  0.85802  0.93801  1.0000
  F   F33       1.0  0.17456  0.38252  0.19101  1.0000
  F   F34       1.0  0.15903  0.36481  0.71573  1.0000
  F   F35       1.0  0.17065  0.86405  0.18928  1.0000
  F   F36       1.0  0.17084  0.86756  0.68654  1.0000
  F   F37       1.0  0.42146  0.37152  0.19967  1.0000
  F   F38       1.0  0.41297  0.35815  0.70747  1.0000
  F   F39       1.0  0.42009  0.87528  0.19609  1.0000
  F   F40       1.0  0.42405  0.88195  0.68939  1.0000
  F   F41       1.0  0.66545  0.34870  0.21024  1.0000
  F   F42       1.0  0.68117  0.36759  0.69560  1.0000
  F   F43       1.0  0.66966  0.88454  0.18857  1.0000
  F   F44       1.0  0.66960  0.87695  0.70285  1.0000
  F   F45       1.0  0.92071  0.37160  0.19020  1.0000
  F   F46       1.0  0.92388  0.36666  0.69574  1.0000
  F   F47       1.0  0.92698  0.87535  0.19189  1.0000
  F   F48       1.0  0.92038  0.87925  0.69669  1.0000
  F   F49       1.0  0.06263  0.14712  0.06205  1.0000
  F   F50       1.0  0.06792  0.15846  0.55039  1.0000
  F   F51       1.0  0.06553  0.66142  0.05352  1.0000
  F   F52       1.0  0.05184  0.64793  0.57211  1.0000
  F   F53       1.0  0.30897  0.15323  0.05929  1.0000
  F   F54       1.0  0.31854  0.15052  0.55134  1.0000
  F   F55       1.0  0.31113  0.64345  0.05905  1.0000
  F   F56       1.0  0.30751  0.65727  0.55342  1.0000
  F   F57       1.0  0.57444  0.17159  0.04479  1.0000
  F   F58       1.0  0.56614  0.16231  0.55078  1.0000
  F   F59       1.0  0.55764  0.66149  0.05599  1.0000
  F   F60       1.0  0.56325  0.66204  0.56212  1.0000
  F   F61       1.0  0.81647  0.16803  0.04762  1.0000
  F   F62       1.0  0.82576  0.17340  0.52823  1.0000
  F   F63       1.0  0.82246  0.66444  0.04462  1.0000
  F   F64       1.0  0.81412  0.65206  0.55350  1.0000
  F   F65       1.0  0.20806  0.20140  0.20357  1.0000
  F   F66       1.0  0.19799  0.20997  0.71358  1.0000
  F   F67       1.0  0.20184  0.70022  0.20942  1.0000
  F   F68       1.0  0.19948  0.69844  0.72043  1.0000
  F   F69       1.0  0.45934  0.19565  0.22164  1.0000
  F   F70       1.0  0.46072  0.19932  0.71557  1.0000
  F   F71       1.0  0.45097  0.71433  0.20667  1.0000
  F   F72       1.0  0.46078  0.69680  0.71284  1.0000
  F   F73       1.0  0.69822  0.18807  0.19297  1.0000
  F   F74       1.0  0.69913  0.19938  0.71263  1.0000
  F   F75       1.0  0.69910  0.70700  0.21209  1.0000
  F   F76       1.0  0.70395  0.69932  0.71479  1.0000
  F   F77       1.0  0.96152  0.19567  0.21741  1.0000
  F   F78       1.0  0.94807  0.19865  0.71156  1.0000
  F   F79       1.0  0.95025  0.71702  0.20087  1.0000
  F   F80       1.0  0.94861  0.70492  0.72452  1.0000
  F   F81       1.0  0.14975  0.08047  0.03104  1.0000
  F   F82       1.0  0.15433  0.08106  0.53256  1.0000
  F   F83       1.0  0.14784  0.57087  0.04507  1.0000
  F   F84       1.0  0.14612  0.61401  0.52799  1.0000
  F   F85       1.0  0.40020  0.08610  0.04828  1.0000
  F   F86       1.0  0.39978  0.09077  0.53883  1.0000
  F   F87       1.0  0.39884  0.59227  0.02985  1.0000
  F   F88       1.0  0.39577  0.60720  0.53931  1.0000
  F   F89       1.0  0.65375  0.07783  0.03781  1.0000
  F   F90       1.0  0.64778  0.06997  0.54391  1.0000
  F   F91       1.0  0.64704  0.60809  0.02718  1.0000
  F   F92       1.0  0.65305  0.60185  0.54459  1.0000
  F   F93       1.0  0.90436  0.11813  0.03372  1.0000
  F   F94       1.0  0.90814  0.08555  0.53871  1.0000
  F   F95       1.0  0.89967  0.58525  0.04587  1.0000
  F   F96       1.0  0.90264  0.58806  0.53459  1.0000
  F   F97       1.0  0.15151  0.20321  0.11284  1.0000
  F   F98       1.0  0.15431  0.20225  0.61370  1.0000
  F   F99       1.0  0.15095  0.69245  0.12054  1.0000
  F   F100      1.0  0.15452  0.70631  0.62567  1.0000
  F   F101      1.0  0.40122  0.19507  0.14274  1.0000
  F   F102      1.0  0.39964  0.19820  0.62430  1.0000
  F   F103      1.0  0.40043  0.69903  0.10969  1.0000
  F   F104      1.0  0.40253  0.69369  0.64725  1.0000
  F   F105      1.0  0.64735  0.18876  0.11777  1.0000
  F   F106      1.0  0.64687  0.18924  0.62096  1.0000
  F   F107      1.0  0.64740  0.69656  0.12802  1.0000
  F   F108      1.0  0.64486  0.70750  0.64821  1.0000
  F   F109      1.0  0.90464  0.19327  0.13705  1.0000
  F   F110      1.0  0.90103  0.18647  0.61811  1.0000
  F   F111      1.0  0.90113  0.69563  0.12461  1.0000
  F   F112      1.0  0.90268  0.69468  0.61587  1.0000
  F   F113      1.0  0.10565  0.30007  0.36570  1.0000
  F   F114      1.0  0.09272  0.30004  0.90163  1.0000
  F   F115      1.0  0.09939  0.79841  0.37841  1.0000
  F   F116      1.0  0.09049  0.80831  0.87461  1.0000
  F   F117      1.0  0.34646  0.30872  0.36983  1.0000
  F   F118      1.0  0.34248  0.30713  0.88635  1.0000
  F   F119      1.0  0.34449  0.79610  0.36842  1.0000
  F   F120      1.0  0.35513  0.79338  0.86517  1.0000
  F   F121      1.0  0.59499  0.29956  0.38602  1.0000
  F   F122      1.0  0.60572  0.29901  0.86403  1.0000
  F   F123      1.0  0.60008  0.79492  0.36145  1.0000
  F   F124      1.0  0.60022  0.80211  0.86897  1.0000
  F   F125      1.0  0.84682  0.32464  0.36593  1.0000
  F   F126      1.0  0.85444  0.30327  0.88288  1.0000
  F   F127      1.0  0.85108  0.78544  0.37800  1.0000
  F   F128      1.0  0.84969  0.80694  0.85989  1.0000
  F   F129      1.0  0.05828  0.25338  0.14501  1.0000
  F   F130      1.0  0.06698  0.24793  0.64469  1.0000
  F   F131      1.0  0.06247  0.76223  0.12979  1.0000
  F   F132      1.0  0.08213  0.76125  0.60259  1.0000
  F   F133      1.0  0.32377  0.25286  0.12051  1.0000
  F   F134      1.0  0.30495  0.25286  0.64594  1.0000
  F   F135      1.0  0.31334  0.74300  0.12915  1.0000
  F   F136      1.0  0.31852  0.74740  0.64151  1.0000
  F   F137      1.0  0.55207  0.25964  0.15429  1.0000
  F   F138      1.0  0.55311  0.24470  0.66692  1.0000
  F   F139      1.0  0.57359  0.75409  0.12241  1.0000
  F   F140      1.0  0.55940  0.74066  0.66816  1.0000
  F   F141      1.0  0.81377  0.25982  0.13834  1.0000
  F   F142      1.0  0.80814  0.24439  0.64684  1.0000
  F   F143      1.0  0.80794  0.75126  0.14994  1.0000
  F   F144      1.0  0.81823  0.75355  0.64066  1.0000
  F   F145      1.0  0.12699  0.37282  0.10809  1.0000
  F   F146      1.0  0.12065  0.38021  0.59608  1.0000
  F   F147      1.0  0.13061  0.87375  0.08088  1.0000
  F   F148      1.0  0.13356  0.89494  0.57773  1.0000
  F   F149      1.0  0.37444  0.36580  0.11431  1.0000
  F   F150      1.0  0.37305  0.37352  0.60611  1.0000
  F   F151      1.0  0.37495  0.87232  0.10305  1.0000
  F   F152      1.0  0.37997  0.87704  0.60134  1.0000
  F   F153      1.0  0.62229  0.37381  0.10701  1.0000
  F   F154      1.0  0.62496  0.36564  0.62521  1.0000
  F   F155      1.0  0.62215  0.86540  0.11785  1.0000
  F   F156      1.0  0.62098  0.87935  0.60583  1.0000
  F   F157      1.0  0.87035  0.36972  0.11086  1.0000
  F   F158      1.0  0.87131  0.34492  0.64164  1.0000
  F   F159      1.0  0.87049  0.84785  0.12453  1.0000
  F   F160      1.0  0.87599  0.87369  0.60536  1.0000
  F   F161      1.0  0.18710  0.25035  0.35062  1.0000
  F   F162      1.0  0.18586  0.25326  0.84930  1.0000
  F   F163      1.0  0.18628  0.75440  0.35002  1.0000
  F   F164      1.0  0.17538  0.73568  0.87318  1.0000
  F   F165      1.0  0.42898  0.24318  0.37697  1.0000
  F   F166      1.0  0.43071  0.25590  0.85850  1.0000
  F   F167      1.0  0.43569  0.75216  0.35575  1.0000
  F   F168      1.0  0.43605  0.74846  0.86495  1.0000
  F   F169      1.0  0.68578  0.23550  0.37244  1.0000
  F   F170      1.0  0.68789  0.24652  0.85612  1.0000
  F   F171      1.0  0.69021  0.73827  0.35884  1.0000
  F   F172      1.0  0.68505  0.75266  0.84977  1.0000
  F   F173      1.0  0.93514  0.24783  0.35566  1.0000
  F   F174      1.0  0.95667  0.25741  0.82507  1.0000
  F   F175      1.0  0.93168  0.75027  0.35834  1.0000
  F   F176      1.0  0.92518  0.74136  0.88007  1.0000
  F   F177      1.0  0.12853  0.12716  0.37762  1.0000
  F   F178      1.0  0.12651  0.15275  0.87886  1.0000
  F   F179      1.0  0.11937  0.62914  0.39379  1.0000
  F   F180      1.0  0.11518  0.63415  0.90191  1.0000
  F   F181      1.0  0.37354  0.13407  0.38545  1.0000
  F   F182      1.0  0.37345  0.13775  0.89947  1.0000
  F   F183      1.0  0.37494  0.63097  0.39029  1.0000
  F   F184      1.0  0.37782  0.62466  0.88768  1.0000
  F   F185      1.0  0.62564  0.12805  0.39534  1.0000
  F   F186      1.0  0.62623  0.12063  0.89405  1.0000
  F   F187      1.0  0.62401  0.61852  0.40487  1.0000
  F   F188      1.0  0.62917  0.63067  0.88390  1.0000
  F   F189      1.0  0.87979  0.14545  0.37869  1.0000
  F   F190      1.0  0.87531  0.15196  0.88463  1.0000
  F   F191      1.0  0.88062  0.61504  0.39470  1.0000
  F   F192      1.0  0.87149  0.62208  0.89830  1.0000
  F   F193      1.0  0.00794  0.36501  0.06605  1.0000
  F   F194      1.0  0.00611  0.36860  0.57438  1.0000
  F   F195      1.0  0.01264  0.88065  0.04563  1.0000
  F   F196      1.0  0.00517  0.84072  0.60424  1.0000
  F   F197      1.0  0.25868  0.37047  0.07448  1.0000
  F   F198      1.0  0.24843  0.37186  0.58481  1.0000
  F   F199      1.0  0.25452  0.86462  0.08184  1.0000
  F   F200      1.0  0.26455  0.85760  0.56492  1.0000
  F   F201      1.0  0.50048  0.37141  0.08466  1.0000
  F   F202      1.0  0.50558  0.35481  0.58545  1.0000
  F   F203      1.0  0.50673  0.86956  0.07783  1.0000
  F   F204      1.0  0.50999  0.85105  0.57122  1.0000
  F   F205      1.0  0.75294  0.36676  0.07887  1.0000
  F   F206      1.0  0.75975  0.37624  0.56801  1.0000
  F   F207      1.0  0.75654  0.85686  0.08028  1.0000
  F   F208      1.0  0.75713  0.85487  0.58109  1.0000
  F   F209      1.0  0.06610  0.47602  0.17660  1.0000
  F   F210      1.0  0.06766  0.48866  0.68489  1.0000
  F   F211      1.0  0.07160  0.97091  0.18011  1.0000
  F   F212      1.0  0.06915  0.98368  0.67115  1.0000
  F   F213      1.0  0.32133  0.47704  0.18131  1.0000
  F   F214      1.0  0.31618  0.48372  0.68531  1.0000
  F   F215      1.0  0.32145  0.99355  0.16446  1.0000
  F   F216      1.0  0.31290  0.98509  0.68487  1.0000
  F   F217      1.0  0.57727  0.49830  0.15979  1.0000
  F   F218      1.0  0.56994  0.48470  0.66867  1.0000
  F   F219      1.0  0.56683  0.98902  0.17455  1.0000
  F   F220      1.0  0.56397  0.98216  0.67530  1.0000
  F   F221      1.0  0.81910  0.49689  0.16032  1.0000
  F   F222      1.0  0.82136  0.48562  0.66536  1.0000
  F   F223      1.0  0.81545  0.99426  0.17260  1.0000
  F   F224      1.0  0.81357  0.99250  0.66673  1.0000
  F   F225      1.0  0.24258  0.13879  0.43443  1.0000
  F   F226      1.0  0.24047  0.15282  0.92718  1.0000
  F   F227      1.0  0.23939  0.63743  0.43034  1.0000
  F   F228      1.0  0.23876  0.65388  0.91239  1.0000
  F   F229      1.0  0.49617  0.15816  0.40623  1.0000
  F   F230      1.0  0.49228  0.14373  0.93020  1.0000
  F   F231      1.0  0.49515  0.63064  0.42418  1.0000
  F   F232      1.0  0.49116  0.63951  0.92890  1.0000
  F   F233      1.0  0.74332  0.12491  0.43497  1.0000
  F   F234      1.0  0.74130  0.14258  0.92990  1.0000
  F   F235      1.0  0.74703  0.62315  0.42324  1.0000
  F   F236      1.0  0.74241  0.64960  0.91922  1.0000
  F   F237      1.0  0.99558  0.15412  0.42036  1.0000
  F   F238      1.0  0.99370  0.13658  0.92803  1.0000
  F   F239      1.0  0.99204  0.64787  0.43151  1.0000
  F   F240      1.0  0.99222  0.63955  0.92946  1.0000
  F   F241      1.0  0.19027  0.02294  0.30745  1.0000
  F   F242      1.0  0.17575  0.00731  0.83944  1.0000
  F   F243      1.0  0.17678  0.52220  0.31450  1.0000
  F   F244      1.0  0.17356  0.50672  0.83842  1.0000
  F   F245      1.0  0.43288  0.02062  0.32567  1.0000
  F   F246      1.0  0.42683  0.02161  0.82790  1.0000
  F   F247      1.0  0.42901  0.51428  0.33145  1.0000
  F   F248      1.0  0.42849  0.51113  0.83229  1.0000
  F   F249      1.0  0.68033  0.01094  0.32780  1.0000
  F   F250      1.0  0.68784  0.00383  0.82186  1.0000
  F   F251      1.0  0.68913  0.51163  0.31876  1.0000
  F   F252      1.0  0.68579  0.51508  0.81371  1.0000
  F   F253      1.0  0.92678  0.00515  0.34874  1.0000
  F   F254      1.0  0.92361  0.02096  0.83050  1.0000
  F   F255      1.0  0.93510  0.51240  0.31531  1.0000
  F   F256      1.0  0.93300  0.51167  0.82811  1.0000
  F   F257      1.0  0.99665  0.25187  0.99399  1.0000
  F   F258      1.0  0.00646  0.25973  0.49517  1.0000
  F   F259      1.0  0.99716  0.74557  0.00839  1.0000
  F   F260      1.0  0.00499  0.77108  0.48838  1.0000
  F   F261      1.0  0.25313  0.26778  0.99069  1.0000
  F   F262      1.0  0.24860  0.24550  0.51377  1.0000
  F   F263      1.0  0.25169  0.74480  0.00338  1.0000
  F   F264      1.0  0.25231  0.75983  0.48549  1.0000
  F   F265      1.0  0.50420  0.25617  0.00504  1.0000
  F   F266      1.0  0.49569  0.22114  0.52239  1.0000
  F   F267      1.0  0.49652  0.75935  0.99334  1.0000
  F   F268      1.0  0.50362  0.73569  0.50600  1.0000
  F   F269      1.0  0.75336  0.25462  0.00676  1.0000
  F   F270      1.0  0.75287  0.24690  0.50272  1.0000
  F   F271      1.0  0.75331  0.74728  0.00081  1.0000
  F   F272      1.0  0.74089  0.74870  0.49485  1.0000
  F   F273      1.0  0.13086  0.01337  0.23885  1.0000
  F   F274      1.0  0.13173  0.00024  0.73186  1.0000
  F   F275      1.0  0.11578  0.48759  0.25833  1.0000
  F   F276      1.0  0.12150  0.50541  0.75726  1.0000
  F   F277      1.0  0.37528  0.00127  0.25669  1.0000
  F   F278      1.0  0.38030  0.00389  0.74739  1.0000
  F   F279      1.0  0.37446  0.50214  0.24757  1.0000
  F   F280      1.0  0.37905  0.50870  0.74352  1.0000
  F   F281      1.0  0.61732  0.99390  0.26492  1.0000
  F   F282      1.0  0.62232  0.99567  0.75499  1.0000
  F   F283      1.0  0.63045  0.50270  0.25205  1.0000
  F   F284      1.0  0.62572  0.49384  0.74748  1.0000
  F   F285      1.0  0.87869  0.99159  0.24553  1.0000
  F   F286      1.0  0.86858  0.00200  0.74940  1.0000
  F   F287      1.0  0.87231  0.49927  0.24644  1.0000
  F   F288      1.0  0.87521  0.49168  0.74933  1.0000
  F   F289      1.0  0.05091  0.03332  0.01889  1.0000
  F   F290      1.0  0.04788  0.02345  0.51840  1.0000
  F   F291      1.0  0.03360  0.54088  0.02911  1.0000
  F   F292      1.0  0.04580  0.52857  0.51344  1.0000
  F   F293      1.0  0.29598  0.03571  0.00112  1.0000
  F   F294      1.0  0.29692  0.02282  0.51759  1.0000
  F   F295      1.0  0.28687  0.52916  0.02011  1.0000
  F   F296      1.0  0.29474  0.51609  0.52419  1.0000
  F   F297      1.0  0.54791  0.02856  0.02364  1.0000
  F   F298      1.0  0.53391  0.03013  0.52853  1.0000
  F   F299      1.0  0.54862  0.52380  0.02553  1.0000
  F   F300      1.0  0.53987  0.52751  0.52848  1.0000
  F   F301      1.0  0.78443  0.03214  0.03247  1.0000
  F   F302      1.0  0.79283  0.03228  0.52175  1.0000
  F   F303      1.0  0.78214  0.54419  0.03685  1.0000
  F   F304      1.0  0.79646  0.52714  0.52486  1.0000
  F   F305      1.0  0.23784  0.41968  0.22804  1.0000
  F   F306      1.0  0.22808  0.41825  0.73947  1.0000
  F   F307      1.0  0.23564  0.92022  0.22554  1.0000
  F   F308      1.0  0.23268  0.91204  0.73081  1.0000
  F   F309      1.0  0.48343  0.43450  0.22526  1.0000
  F   F310      1.0  0.47795  0.41146  0.72892  1.0000
  F   F311      1.0  0.48367  0.91931  0.23564  1.0000
  F   F312      1.0  0.48092  0.91485  0.72429  1.0000
  F   F313      1.0  0.73062  0.41687  0.22530  1.0000
  F   F314      1.0  0.73957  0.42669  0.71705  1.0000
  F   F315      1.0  0.73362  0.92276  0.22675  1.0000
  F   F316      1.0  0.73822  0.91368  0.71957  1.0000
  F   F317      1.0  0.98321  0.41888  0.21478  1.0000
  F   F318      1.0  0.98800  0.42849  0.72238  1.0000
  F   F319      1.0  0.98679  0.91046  0.23931  1.0000
  F   F320      1.0  0.98153  0.93225  0.73164  1.0000
  F   F321      1.0  0.19882  0.47715  0.48501  1.0000
  F   F322      1.0  0.21527  0.47516  0.97155  1.0000
  F   F323      1.0  0.21567  0.96461  0.47136  1.0000
  F   F324      1.0  0.21364  0.96203  0.96973  1.0000
  F   F325      1.0  0.46182  0.46348  0.47714  1.0000
  F   F326      1.0  0.45231  0.45694  0.98162  1.0000
  F   F327      1.0  0.46322  0.97731  0.46839  1.0000
  F   F328      1.0  0.45726  0.96998  0.97258  1.0000
  F   F329      1.0  0.70164  0.46498  0.49590  1.0000
  F   F330      1.0  0.70725  0.47126  0.97298  1.0000
  F   F331      1.0  0.70517  0.96340  0.46536  1.0000
  F   F332      1.0  0.70870  0.96820  0.97069  1.0000
  F   F333      1.0  0.95988  0.46551  0.47621  1.0000
  F   F334      1.0  0.95476  0.45515  0.98277  1.0000
  F   F335      1.0  0.96461  0.96515  0.48259  1.0000
  F   F336      1.0  0.94212  0.98481  0.99258  1.0000
  F   F337      1.0  0.01820  0.07537  0.27432  1.0000
  F   F338      1.0  0.01090  0.08835  0.77869  1.0000
  F   F339      1.0  0.01343  0.58122  0.28603  1.0000
  F   F340      1.0  0.01236  0.60814  0.77576  1.0000
  F   F341      1.0  0.26885  0.08543  0.27726  1.0000
  F   F342      1.0  0.26376  0.09552  0.76836  1.0000
  F   F343      1.0  0.26215  0.57339  0.28650  1.0000
  F   F344      1.0  0.26335  0.57190  0.77798  1.0000
  F   F345      1.0  0.51721  0.08015  0.26695  1.0000
  F   F346      1.0  0.51335  0.08027  0.77683  1.0000
  F   F347      1.0  0.51538  0.59344  0.27006  1.0000
  F   F348      1.0  0.51786  0.57099  0.76754  1.0000
  F   F349      1.0  0.76551  0.10393  0.26287  1.0000
  F   F350      1.0  0.76741  0.08350  0.77238  1.0000
  F   F351      1.0  0.76200  0.59740  0.26763  1.0000
  F   F352      1.0  0.76731  0.58989  0.77032  1.0000
  F   F353      1.0  0.09792  0.40405  0.46146  1.0000
  F   F354      1.0  0.09953  0.42259  0.96484  1.0000
  F   F355      1.0  0.10372  0.91787  0.44156  1.0000
  F   F356      1.0  0.09776  0.90718  0.94716  1.0000
  F   F357      1.0  0.34986  0.39325  0.46950  1.0000
  F   F358      1.0  0.35150  0.42930  0.95919  1.0000
  F   F359      1.0  0.36095  0.89899  0.45568  1.0000
  F   F360      1.0  0.34768  0.89902  0.96734  1.0000
  F   F361      1.0  0.59848  0.39635  0.47260  1.0000
  F   F362      1.0  0.60423  0.39237  0.96274  1.0000
  F   F363      1.0  0.59754  0.90930  0.45766  1.0000
  F   F364      1.0  0.60595  0.91044  0.96918  1.0000
  F   F365      1.0  0.85453  0.39795  0.47275  1.0000
  F   F366      1.0  0.84751  0.42303  0.96647  1.0000
  F   F367      1.0  0.84888  0.89784  0.46377  1.0000
  F   F368      1.0  0.85450  0.91076  0.96181  1.0000
  F   F369      1.0  0.04725  0.29283  0.29100  1.0000
  F   F370      1.0  0.05376  0.31500  0.78842  1.0000
  F   F371      1.0  0.04984  0.80739  0.28637  1.0000
  F   F372      1.0  0.04027  0.79918  0.78008  1.0000
  F   F373      1.0  0.29074  0.28846  0.28235  1.0000
  F   F374      1.0  0.29448  0.30995  0.78625  1.0000
  F   F375      1.0  0.29503  0.78827  0.27758  1.0000
  F   F376      1.0  0.29812  0.80440  0.77944  1.0000
  F   F377      1.0  0.54458  0.31791  0.29360  1.0000
  F   F378      1.0  0.54422  0.30446  0.80112  1.0000
  F   F379      1.0  0.54688  0.79098  0.27868  1.0000
  F   F380      1.0  0.54633  0.79627  0.79578  1.0000
  F   F381      1.0  0.79011  0.29343  0.29435  1.0000
  F   F382      1.0  0.79629  0.28612  0.79170  1.0000
  F   F383      1.0  0.79130  0.81111  0.29664  1.0000
  F   F384      1.0  0.80307  0.80153  0.77522  1.0000
