data_image0
_chemical_formula_structural       Hf96F384
_chemical_formula_sum              "Hf96 F384"
_cell_length_a       31.0108
_cell_length_b       15.5086
_cell_length_c       15.4994
_cell_angle_alpha    63.342
_cell_angle_beta     63.342
_cell_angle_gamma    80.1625

_space_group_name_H-M_alt    "P 1"
_space_group_IT_number       1

loop_
  _space_group_symop_operation_xyz
  'x, y, z'

loop_
  _atom_site_type_symbol
  _atom_site_label
  _atom_site_symmetry_multiplicity
  _atom_site_fract_x
  _atom_site_fract_y
  _atom_site_fract_z
  _atom_site_occupancy
  Hf  Hf1       1.0  0.19892  0.10957  0.38011  1.0000
  Hf  Hf2       1.0  0.19578  0.11091  0.86704  1.0000
  Hf  Hf3       1.0  0.19488  0.61311  0.37725  1.0000
  Hf  Hf4       1.0  0.19474  0.60651  0.87618  1.0000
  Hf  Hf5       1.0  0.44539  0.09970  0.38207  1.0000
  Hf  Hf6       1.0  0.45020  0.10266  0.86507  1.0000
  Hf  Hf7       1.0  0.44653  0.60536  0.37134  1.0000
  Hf  Hf8       1.0  0.44864  0.60610  0.87225  1.0000
  Hf  Hf9       1.0  0.70072  0.10826  0.37243  1.0000
  Hf  Hf10      1.0  0.69843  0.10822  0.86958  1.0000
  Hf  Hf11      1.0  0.70071  0.60652  0.37192  1.0000
  Hf  Hf12      1.0  0.69694  0.60435  0.87448  1.0000
  Hf  Hf13      1.0  0.94906  0.10737  0.37447  1.0000
  Hf  Hf14      1.0  0.94645  0.11364  0.86587  1.0000
  Hf  Hf15      1.0  0.94690  0.60903  0.37082  1.0000
  Hf  Hf16      1.0  0.94724  0.60550  0.87430  1.0000
  Hf  Hf17      1.0  0.05133  0.39044  0.13171  1.0000
  Hf  Hf18      1.0  0.05479  0.39736  0.61887  1.0000
  Hf  Hf19      1.0  0.05287  0.89430  0.12443  1.0000
  Hf  Hf20      1.0  0.05654  0.90154  0.61597  1.0000
  Hf  Hf21      1.0  0.30510  0.39352  0.12381  1.0000
  Hf  Hf22      1.0  0.30072  0.38961  0.63363  1.0000
  Hf  Hf23      1.0  0.30267  0.88718  0.13040  1.0000
  Hf  Hf24      1.0  0.29996  0.89735  0.62963  1.0000
  Hf  Hf25      1.0  0.55353  0.38518  0.13516  1.0000
  Hf  Hf26      1.0  0.55087  0.38204  0.63101  1.0000
  Hf  Hf27      1.0  0.54932  0.88838  0.12825  1.0000
  Hf  Hf28      1.0  0.55491  0.88408  0.62659  1.0000
  Hf  Hf29      1.0  0.80432  0.39820  0.12528  1.0000
  Hf  Hf30      1.0  0.79955  0.39221  0.62855  1.0000
  Hf  Hf31      1.0  0.80338  0.88550  0.12690  1.0000
  Hf  Hf32      1.0  0.80262  0.89172  0.62564  1.0000
  Hf  Hf33      1.0  0.05769  0.18765  0.41396  1.0000
  Hf  Hf34      1.0  0.05576  0.18952  0.90990  1.0000
  Hf  Hf35      1.0  0.05277  0.68844  0.42393  1.0000
  Hf  Hf36      1.0  0.05759  0.68708  0.91135  1.0000
  Hf  Hf37      1.0  0.30685  0.18830  0.42056  1.0000
  Hf  Hf38      1.0  0.30708  0.18110  0.91521  1.0000
  Hf  Hf39      1.0  0.30637  0.67857  0.42158  1.0000
  Hf  Hf40      1.0  0.30756  0.68451  0.91327  1.0000
  Hf  Hf41      1.0  0.55697  0.18081  0.41658  1.0000
  Hf  Hf42      1.0  0.55771  0.17164  0.93041  1.0000
  Hf  Hf43      1.0  0.55567  0.67485  0.41701  1.0000
  Hf  Hf44      1.0  0.55803  0.68387  0.91251  1.0000
  Hf  Hf45      1.0  0.80557  0.17821  0.41916  1.0000
  Hf  Hf46      1.0  0.80457  0.17477  0.92304  1.0000
  Hf  Hf47      1.0  0.80714  0.68195  0.41977  1.0000
  Hf  Hf48      1.0  0.80806  0.68536  0.90961  1.0000
  Hf  Hf49      1.0  0.15934  0.39632  0.33026  1.0000
  Hf  Hf50      1.0  0.15607  0.39000  0.84180  1.0000
  Hf  Hf51      1.0  0.16136  0.89083  0.33232  1.0000
  Hf  Hf52      1.0  0.15485  0.88933  0.83329  1.0000
  Hf  Hf53      1.0  0.40937  0.38208  0.33351  1.0000
  Hf  Hf54      1.0  0.40614  0.38132  0.84462  1.0000
  Hf  Hf55      1.0  0.40651  0.89040  0.33292  1.0000
  Hf  Hf56      1.0  0.40902  0.88724  0.83231  1.0000
  Hf  Hf57      1.0  0.65777  0.38339  0.33486  1.0000
  Hf  Hf58      1.0  0.65701  0.38777  0.83201  1.0000
  Hf  Hf59      1.0  0.66195  0.88652  0.32744  1.0000
  Hf  Hf60      1.0  0.65914  0.88500  0.83279  1.0000
  Hf  Hf61      1.0  0.90688  0.39316  0.33152  1.0000
  Hf  Hf62      1.0  0.90843  0.38055  0.83184  1.0000
  Hf  Hf63      1.0  0.90620  0.88892  0.33614  1.0000
  Hf  Hf64      1.0  0.90723  0.89139  0.83553  1.0000
  Hf  Hf65      1.0  0.19438  0.31534  0.09027  1.0000
  Hf  Hf66      1.0  0.19112  0.32704  0.58086  1.0000
  Hf  Hf67      1.0  0.19537  0.81605  0.08121  1.0000
  Hf  Hf68      1.0  0.19417  0.82342  0.58018  1.0000
  Hf  Hf69      1.0  0.44706  0.31715  0.08158  1.0000
  Hf  Hf70      1.0  0.44635  0.31555  0.58171  1.0000
  Hf  Hf71      1.0  0.44250  0.81499  0.08113  1.0000
  Hf  Hf72      1.0  0.44172  0.81124  0.58878  1.0000
  Hf  Hf73      1.0  0.69576  0.30922  0.08767  1.0000
  Hf  Hf74      1.0  0.69184  0.32572  0.57716  1.0000
  Hf  Hf75      1.0  0.69493  0.81854  0.07982  1.0000
  Hf  Hf76      1.0  0.69478  0.81479  0.57997  1.0000
  Hf  Hf77      1.0  0.94561  0.31687  0.08122  1.0000
  Hf  Hf78      1.0  0.93978  0.32146  0.57920  1.0000
  Hf  Hf79      1.0  0.94340  0.81638  0.07933  1.0000
  Hf  Hf80      1.0  0.94194  0.82077  0.58844  1.0000
  Hf  Hf81      1.0  0.09079  0.11211  0.16744  1.0000
  Hf  Hf82      1.0  0.09142  0.12066  0.66149  1.0000
  Hf  Hf83      1.0  0.09014  0.61511  0.16864  1.0000
  Hf  Hf84      1.0  0.09316  0.62139  0.65895  1.0000
  Hf  Hf85      1.0  0.34300  0.11786  0.16450  1.0000
  Hf  Hf86      1.0  0.34052  0.11156  0.66876  1.0000
  Hf  Hf87      1.0  0.34018  0.60571  0.17078  1.0000
  Hf  Hf88      1.0  0.33749  0.61226  0.66737  1.0000
  Hf  Hf89      1.0  0.59339  0.10957  0.17204  1.0000
  Hf  Hf90      1.0  0.59083  0.10827  0.67134  1.0000
  Hf  Hf91      1.0  0.59188  0.61404  0.16276  1.0000
  Hf  Hf92      1.0  0.59242  0.60494  0.66739  1.0000
  Hf  Hf93      1.0  0.84237  0.11478  0.16346  1.0000
  Hf  Hf94      1.0  0.83952  0.11469  0.66889  1.0000
  Hf  Hf95      1.0  0.84412  0.61581  0.15933  1.0000
  Hf  Hf96      1.0  0.84445  0.60933  0.66743  1.0000
  F   F1        1.0  0.08011  0.13911  0.30040  1.0000
  F   F2        1.0  0.08323  0.13674  0.79789  1.0000
  F   F3        1.0  0.08363  0.62416  0.30639  1.0000
  F   F4        1.0  0.08795  0.64178  0.79338  1.0000
  F   F5        1.0  0.33290  0.14133  0.30792  1.0000
  F   F6        1.0  0.32552  0.11863  0.81447  1.0000
  F   F7        1.0  0.32490  0.61264  0.31604  1.0000
  F   F8        1.0  0.33097  0.63514  0.79606  1.0000
  F   F9        1.0  0.58537  0.12973  0.30525  1.0000
  F   F10       1.0  0.57618  0.11807  0.81304  1.0000
  F   F11       1.0  0.58132  0.62488  0.29446  1.0000
  F   F12       1.0  0.58454  0.64620  0.78154  1.0000
  F   F13       1.0  0.82445  0.12194  0.31756  1.0000
  F   F14       1.0  0.82689  0.12206  0.81226  1.0000
  F   F15       1.0  0.84006  0.65098  0.28214  1.0000
  F   F16       1.0  0.82895  0.61794  0.80708  1.0000
  F   F17       1.0  0.18096  0.34775  0.45140  1.0000
  F   F18       1.0  0.18337  0.34376  0.94690  1.0000
  F   F19       1.0  0.18460  0.84227  0.44404  1.0000
  F   F20       1.0  0.18402  0.83735  0.95241  1.0000
  F   F21       1.0  0.44001  0.32943  0.44425  1.0000
  F   F22       1.0  0.43539  0.34295  0.95296  1.0000
  F   F23       1.0  0.42790  0.84533  0.45109  1.0000
  F   F24       1.0  0.44350  0.84775  0.93209  1.0000
  F   F25       1.0  0.69205  0.34523  0.43792  1.0000
  F   F26       1.0  0.68027  0.34198  0.94886  1.0000
  F   F27       1.0  0.69193  0.83380  0.44888  1.0000
  F   F28       1.0  0.68602  0.84281  0.94699  1.0000
  F   F29       1.0  0.93490  0.34309  0.44018  1.0000
  F   F30       1.0  0.93577  0.33981  0.94937  1.0000
  F   F31       1.0  0.92996  0.83209  0.45303  1.0000
  F   F32       1.0  0.94374  0.85196  0.92745  1.0000
  F   F33       1.0  0.17436  0.37654  0.19788  1.0000
  F   F34       1.0  0.16717  0.37554  0.69545  1.0000
  F   F35       1.0  0.17293  0.87933  0.19303  1.0000
  F   F36       1.0  0.16962  0.87692  0.69249  1.0000
  F   F37       1.0  0.42708  0.37867  0.18710  1.0000
  F   F38       1.0  0.41721  0.36001  0.70647  1.0000
  F   F39       1.0  0.41654  0.87871  0.19799  1.0000
  F   F40       1.0  0.42390  0.87504  0.68748  1.0000
  F   F41       1.0  0.67637  0.36221  0.20090  1.0000
  F   F42       1.0  0.66585  0.35722  0.70926  1.0000
  F   F43       1.0  0.66799  0.85728  0.21014  1.0000
  F   F44       1.0  0.67001  0.87489  0.69606  1.0000
  F   F45       1.0  0.92275  0.38306  0.18484  1.0000
  F   F46       1.0  0.91336  0.37443  0.69878  1.0000
  F   F47       1.0  0.91574  0.86385  0.20133  1.0000
  F   F48       1.0  0.92188  0.88645  0.69197  1.0000
  F   F49       1.0  0.05665  0.15553  0.05477  1.0000
  F   F50       1.0  0.07579  0.17810  0.53020  1.0000
  F   F51       1.0  0.06538  0.67675  0.04359  1.0000
  F   F52       1.0  0.06104  0.67118  0.55216  1.0000
  F   F53       1.0  0.31133  0.14748  0.06014  1.0000
  F   F54       1.0  0.31205  0.16147  0.55442  1.0000
  F   F55       1.0  0.31942  0.66849  0.04581  1.0000
  F   F56       1.0  0.29941  0.64989  0.56920  1.0000
  F   F57       1.0  0.55523  0.14557  0.07008  1.0000
  F   F58       1.0  0.56068  0.16406  0.56110  1.0000
  F   F59       1.0  0.56779  0.66047  0.04592  1.0000
  F   F60       1.0  0.56644  0.64907  0.55053  1.0000
  F   F61       1.0  0.80373  0.14965  0.06455  1.0000
  F   F62       1.0  0.81515  0.15471  0.56021  1.0000
  F   F63       1.0  0.81089  0.65639  0.05824  1.0000
  F   F64       1.0  0.82489  0.67239  0.54127  1.0000
  F   F65       1.0  0.20053  0.19775  0.22321  1.0000
  F   F66       1.0  0.20300  0.20739  0.69800  1.0000
  F   F67       1.0  0.20053  0.72335  0.21776  1.0000
  F   F68       1.0  0.20598  0.69457  0.70525  1.0000
  F   F69       1.0  0.45971  0.19580  0.20969  1.0000
  F   F70       1.0  0.45626  0.20022  0.71392  1.0000
  F   F71       1.0  0.45685  0.70298  0.19477  1.0000
  F   F72       1.0  0.45853  0.70019  0.70883  1.0000
  F   F73       1.0  0.71026  0.19804  0.21417  1.0000
  F   F74       1.0  0.70331  0.20015  0.70114  1.0000
  F   F75       1.0  0.71095  0.70267  0.20641  1.0000
  F   F76       1.0  0.69993  0.70909  0.71895  1.0000
  F   F77       1.0  0.95966  0.18948  0.21184  1.0000
  F   F78       1.0  0.95157  0.21250  0.70422  1.0000
  F   F79       1.0  0.95071  0.69974  0.21303  1.0000
  F   F80       1.0  0.95176  0.70661  0.71360  1.0000
  F   F81       1.0  0.14233  0.09479  0.03533  1.0000
  F   F82       1.0  0.14916  0.09093  0.54040  1.0000
  F   F83       1.0  0.15392  0.59613  0.03562  1.0000
  F   F84       1.0  0.14809  0.59009  0.53946  1.0000
  F   F85       1.0  0.39887  0.08543  0.03797  1.0000
  F   F86       1.0  0.39663  0.08533  0.55478  1.0000
  F   F87       1.0  0.40174  0.59911  0.03230  1.0000
  F   F88       1.0  0.39441  0.60526  0.54023  1.0000
  F   F89       1.0  0.64696  0.11325  0.03545  1.0000
  F   F90       1.0  0.64735  0.08649  0.54950  1.0000
  F   F91       1.0  0.64605  0.57796  0.04186  1.0000
  F   F92       1.0  0.64827  0.58843  0.53724  1.0000
  F   F93       1.0  0.89728  0.10466  0.03501  1.0000
  F   F94       1.0  0.89730  0.09903  0.55100  1.0000
  F   F95       1.0  0.89845  0.59308  0.03635  1.0000
  F   F96       1.0  0.90410  0.59204  0.54631  1.0000
  F   F97       1.0  0.15838  0.19258  0.12299  1.0000
  F   F98       1.0  0.15064  0.20609  0.61606  1.0000
  F   F99       1.0  0.14991  0.69984  0.13145  1.0000
  F   F100      1.0  0.15349  0.70317  0.62353  1.0000
  F   F101      1.0  0.40672  0.20080  0.12252  1.0000
  F   F102      1.0  0.40385  0.19020  0.63247  1.0000
  F   F103      1.0  0.39662  0.69791  0.13420  1.0000
  F   F104      1.0  0.39902  0.70192  0.63576  1.0000
  F   F105      1.0  0.65919  0.18991  0.12808  1.0000
  F   F106      1.0  0.64451  0.19543  0.62735  1.0000
  F   F107      1.0  0.65239  0.69221  0.12259  1.0000
  F   F108      1.0  0.65247  0.69363  0.62372  1.0000
  F   F109      1.0  0.89913  0.19451  0.13043  1.0000
  F   F110      1.0  0.89650  0.20141  0.63126  1.0000
  F   F111      1.0  0.90454  0.69162  0.12253  1.0000
  F   F112      1.0  0.89943  0.69584  0.62889  1.0000
  F   F113      1.0  0.09476  0.31164  0.36376  1.0000
  F   F114      1.0  0.09482  0.31115  0.88100  1.0000
  F   F115      1.0  0.09686  0.80547  0.38202  1.0000
  F   F116      1.0  0.09917  0.80832  0.86399  1.0000
  F   F117      1.0  0.34940  0.31085  0.35926  1.0000
  F   F118      1.0  0.34760  0.30672  0.87020  1.0000
  F   F119      1.0  0.34773  0.79598  0.38984  1.0000
  F   F120      1.0  0.34555  0.80486  0.86974  1.0000
  F   F121      1.0  0.59905  0.29655  0.36778  1.0000
  F   F122      1.0  0.59910  0.28937  0.90263  1.0000
  F   F123      1.0  0.60349  0.79958  0.38860  1.0000
  F   F124      1.0  0.59627  0.79982  0.86804  1.0000
  F   F125      1.0  0.84719  0.30622  0.37659  1.0000
  F   F126      1.0  0.85033  0.29330  0.89303  1.0000
  F   F127      1.0  0.84552  0.81143  0.36448  1.0000
  F   F128      1.0  0.85276  0.79909  0.87257  1.0000
  F   F129      1.0  0.06301  0.24947  0.13127  1.0000
  F   F130      1.0  0.06047  0.25948  0.64088  1.0000
  F   F131      1.0  0.05941  0.75393  0.15018  1.0000
  F   F132      1.0  0.06311  0.75800  0.64176  1.0000
  F   F133      1.0  0.31969  0.24754  0.13535  1.0000
  F   F134      1.0  0.32049  0.24512  0.64133  1.0000
  F   F135      1.0  0.31226  0.74465  0.15524  1.0000
  F   F136      1.0  0.31550  0.74299  0.64134  1.0000
  F   F137      1.0  0.56936  0.25418  0.13819  1.0000
  F   F138      1.0  0.55295  0.24163  0.66922  1.0000
  F   F139      1.0  0.55994  0.74740  0.15418  1.0000
  F   F140      1.0  0.56721  0.75212  0.62630  1.0000
  F   F141      1.0  0.81712  0.25601  0.13702  1.0000
  F   F142      1.0  0.81142  0.25465  0.64176  1.0000
  F   F143      1.0  0.82142  0.75230  0.11804  1.0000
  F   F144      1.0  0.81029  0.75019  0.64726  1.0000
  F   F145      1.0  0.12467  0.36257  0.12065  1.0000
  F   F146      1.0  0.12247  0.38847  0.60805  1.0000
  F   F147      1.0  0.12344  0.87075  0.09983  1.0000
  F   F148      1.0  0.12678  0.88383  0.59388  1.0000
  F   F149      1.0  0.38055  0.37915  0.09312  1.0000
  F   F150      1.0  0.37427  0.38199  0.59234  1.0000
  F   F151      1.0  0.37308  0.87104  0.10908  1.0000
  F   F152      1.0  0.36797  0.87472  0.61538  1.0000
  F   F153      1.0  0.62341  0.35957  0.12584  1.0000
  F   F154      1.0  0.62316  0.37376  0.59439  1.0000
  F   F155      1.0  0.62482  0.86379  0.11177  1.0000
  F   F156      1.0  0.62576  0.84685  0.62159  1.0000
  F   F157      1.0  0.87433  0.36673  0.11216  1.0000
  F   F158      1.0  0.87243  0.36171  0.60800  1.0000
  F   F159      1.0  0.87335  0.84334  0.11795  1.0000
  F   F160      1.0  0.87344  0.86213  0.61444  1.0000
  F   F161      1.0  0.18613  0.24897  0.36264  1.0000
  F   F162      1.0  0.19158  0.25113  0.84463  1.0000
  F   F163      1.0  0.18222  0.74759  0.37163  1.0000
  F   F164      1.0  0.18576  0.74904  0.84575  1.0000
  F   F165      1.0  0.43682  0.24430  0.35739  1.0000
  F   F166      1.0  0.43343  0.24937  0.85834  1.0000
  F   F167      1.0  0.43823  0.74984  0.34092  1.0000
  F   F168      1.0  0.43073  0.75075  0.85556  1.0000
  F   F169      1.0  0.68511  0.24569  0.36183  1.0000
  F   F170      1.0  0.69360  0.24319  0.85144  1.0000
  F   F171      1.0  0.69112  0.74094  0.36520  1.0000
  F   F172      1.0  0.67516  0.73909  0.87545  1.0000
  F   F173      1.0  0.93380  0.24914  0.34645  1.0000
  F   F174      1.0  0.94535  0.24889  0.85002  1.0000
  F   F175      1.0  0.92817  0.74817  0.35509  1.0000
  F   F176      1.0  0.93352  0.74492  0.86561  1.0000
  F   F177      1.0  0.13034  0.12983  0.38326  1.0000
  F   F178      1.0  0.12662  0.16196  0.87425  1.0000
  F   F179      1.0  0.12623  0.62588  0.40270  1.0000
  F   F180      1.0  0.12492  0.63119  0.89396  1.0000
  F   F181      1.0  0.37289  0.12735  0.40427  1.0000
  F   F182      1.0  0.37155  0.13244  0.89135  1.0000
  F   F183      1.0  0.37463  0.63159  0.39104  1.0000
  F   F184      1.0  0.38115  0.64547  0.86688  1.0000
  F   F185      1.0  0.63039  0.13712  0.39047  1.0000
  F   F186      1.0  0.62680  0.11504  0.91203  1.0000
  F   F187      1.0  0.62737  0.64237  0.37435  1.0000
  F   F188      1.0  0.62464  0.61692  0.88905  1.0000
  F   F189      1.0  0.87363  0.10343  0.40251  1.0000
  F   F190      1.0  0.87443  0.13998  0.88123  1.0000
  F   F191      1.0  0.87485  0.62024  0.40758  1.0000
  F   F192      1.0  0.87626  0.63021  0.88537  1.0000
  F   F193      1.0  0.00726  0.36891  0.06843  1.0000
  F   F194      1.0  0.00256  0.37527  0.56572  1.0000
  F   F195      1.0  0.00423  0.86091  0.07426  1.0000
  F   F196      1.0  0.00626  0.86267  0.56995  1.0000
  F   F197      1.0  0.25834  0.36389  0.07674  1.0000
  F   F198      1.0  0.25489  0.35696  0.58899  1.0000
  F   F199      1.0  0.25970  0.85322  0.07503  1.0000
  F   F200      1.0  0.26002  0.86580  0.57078  1.0000
  F   F201      1.0  0.51210  0.36382  0.07252  1.0000
  F   F202      1.0  0.51043  0.36879  0.56566  1.0000
  F   F203      1.0  0.50528  0.86166  0.07064  1.0000
  F   F204      1.0  0.51083  0.86874  0.55994  1.0000
  F   F205      1.0  0.76150  0.37468  0.06518  1.0000
  F   F206      1.0  0.75479  0.37008  0.56849  1.0000
  F   F207      1.0  0.75615  0.85864  0.07706  1.0000
  F   F208      1.0  0.75561  0.85976  0.57539  1.0000
  F   F209      1.0  0.07445  0.49711  0.16443  1.0000
  F   F210      1.0  0.06531  0.49825  0.66871  1.0000
  F   F211      1.0  0.06727  0.98378  0.17431  1.0000
  F   F212      1.0  0.06837  0.99606  0.66970  1.0000
  F   F213      1.0  0.32439  0.48599  0.16572  1.0000
  F   F214      1.0  0.31646  0.48178  0.67452  1.0000
  F   F215      1.0  0.31303  0.99103  0.18183  1.0000
  F   F216      1.0  0.31161  0.98992  0.67706  1.0000
  F   F217      1.0  0.56928  0.48654  0.17813  1.0000
  F   F218      1.0  0.56803  0.47631  0.68133  1.0000
  F   F219      1.0  0.57374  0.98465  0.17323  1.0000
  F   F220      1.0  0.57124  0.98995  0.66609  1.0000
  F   F221      1.0  0.82330  0.48460  0.16728  1.0000
  F   F222      1.0  0.81745  0.47773  0.68245  1.0000
  F   F223      1.0  0.82104  0.97240  0.17674  1.0000
  F   F224      1.0  0.81865  0.96878  0.68532  1.0000
  F   F225      1.0  0.24196  0.15404  0.42186  1.0000
  F   F226      1.0  0.24360  0.13924  0.92408  1.0000
  F   F227      1.0  0.24006  0.63903  0.43451  1.0000
  F   F228      1.0  0.24375  0.63364  0.91702  1.0000
  F   F229      1.0  0.49104  0.14000  0.42369  1.0000
  F   F230      1.0  0.49565  0.13818  0.91194  1.0000
  F   F231      1.0  0.49392  0.62036  0.43257  1.0000
  F   F232      1.0  0.49613  0.63097  0.91976  1.0000
  F   F233      1.0  0.73995  0.13026  0.44812  1.0000
  F   F234      1.0  0.74273  0.13153  0.93053  1.0000
  F   F235      1.0  0.74383  0.64238  0.42138  1.0000
  F   F236      1.0  0.74395  0.64448  0.91165  1.0000
  F   F237      1.0  0.99530  0.13725  0.41925  1.0000
  F   F238      1.0  0.99316  0.12743  0.92674  1.0000
  F   F239      1.0  0.99161  0.64693  0.41990  1.0000
  F   F240      1.0  0.99407  0.62953  0.93223  1.0000
  F   F241      1.0  0.18404  0.01656  0.31467  1.0000
  F   F242      1.0  0.17175  0.01524  0.83510  1.0000
  F   F243      1.0  0.17945  0.51065  0.32796  1.0000
  F   F244      1.0  0.17221  0.51318  0.83624  1.0000
  F   F245      1.0  0.43313  0.01557  0.33008  1.0000
  F   F246      1.0  0.43078  0.01241  0.81697  1.0000
  F   F247      1.0  0.42807  0.51190  0.32459  1.0000
  F   F248      1.0  0.43448  0.51224  0.82759  1.0000
  F   F249      1.0  0.68372  0.00682  0.33686  1.0000
  F   F250      1.0  0.68415  0.01012  0.83054  1.0000
  F   F251      1.0  0.67723  0.51120  0.34043  1.0000
  F   F252      1.0  0.68164  0.51001  0.81855  1.0000
  F   F253      1.0  0.93633  0.00431  0.32243  1.0000
  F   F254      1.0  0.93020  0.02159  0.81689  1.0000
  F   F255      1.0  0.93347  0.51608  0.32143  1.0000
  F   F256      1.0  0.93927  0.51533  0.81451  1.0000
  F   F257      1.0  0.99756  0.25490  0.99476  1.0000
  F   F258      1.0  0.00001  0.24992  0.49921  1.0000
  F   F259      1.0  0.99800  0.75473  0.99114  1.0000
  F   F260      1.0  0.99423  0.74953  0.50705  1.0000
  F   F261      1.0  0.25363  0.26102  0.98934  1.0000
  F   F262      1.0  0.25323  0.27537  0.47265  1.0000
  F   F263      1.0  0.25284  0.75763  0.99223  1.0000
  F   F264      1.0  0.25001  0.76304  0.48973  1.0000
  F   F265      1.0  0.50014  0.24486  0.00203  1.0000
  F   F266      1.0  0.50305  0.25244  0.49547  1.0000
  F   F267      1.0  0.50281  0.74871  0.00220  1.0000
  F   F268      1.0  0.49526  0.74933  0.50023  1.0000
  F   F269      1.0  0.74773  0.24693  0.00196  1.0000
  F   F270      1.0  0.75222  0.25891  0.49551  1.0000
  F   F271      1.0  0.75076  0.75482  0.98905  1.0000
  F   F272      1.0  0.75359  0.74401  0.49714  1.0000
  F   F273      1.0  0.12502  0.99329  0.24961  1.0000
  F   F274      1.0  0.12264  0.00995  0.74394  1.0000
  F   F275      1.0  0.12217  0.49853  0.26344  1.0000
  F   F276      1.0  0.12342  0.49997  0.74803  1.0000
  F   F277      1.0  0.37235  0.00528  0.25524  1.0000
  F   F278      1.0  0.37034  0.99551  0.75754  1.0000
  F   F279      1.0  0.37913  0.50656  0.24054  1.0000
  F   F280      1.0  0.37953  0.50428  0.74453  1.0000
  F   F281      1.0  0.63159  0.00085  0.24383  1.0000
  F   F282      1.0  0.62434  0.99549  0.75713  1.0000
  F   F283      1.0  0.62857  0.49951  0.24199  1.0000
  F   F284      1.0  0.62216  0.49557  0.75871  1.0000
  F   F285      1.0  0.87268  0.00265  0.24488  1.0000
  F   F286      1.0  0.86261  0.99524  0.77657  1.0000
  F   F287      1.0  0.87465  0.50698  0.24869  1.0000
  F   F288      1.0  0.87764  0.50089  0.75905  1.0000
  F   F289      1.0  0.04542  0.02779  0.01473  1.0000
  F   F290      1.0  0.04115  0.03949  0.52683  1.0000
  F   F291      1.0  0.04356  0.53307  0.03246  1.0000
  F   F292      1.0  0.03849  0.54000  0.52284  1.0000
  F   F293      1.0  0.28842  0.02691  0.02940  1.0000
  F   F294      1.0  0.28581  0.03514  0.52158  1.0000
  F   F295      1.0  0.29834  0.53372  0.01958  1.0000
  F   F296      1.0  0.29659  0.52022  0.52403  1.0000
  F   F297      1.0  0.54091  0.02719  0.02224  1.0000
  F   F298      1.0  0.54698  0.03098  0.52021  1.0000
  F   F299      1.0  0.54683  0.53343  0.02577  1.0000
  F   F300      1.0  0.54474  0.52526  0.52089  1.0000
  F   F301      1.0  0.79245  0.02421  0.01973  1.0000
  F   F302      1.0  0.78207  0.02901  0.55036  1.0000
  F   F303      1.0  0.78550  0.54084  0.03032  1.0000
  F   F304      1.0  0.79496  0.53749  0.52596  1.0000
  F   F305      1.0  0.24020  0.42945  0.21847  1.0000
  F   F306      1.0  0.22944  0.41850  0.73433  1.0000
  F   F307      1.0  0.23425  0.90262  0.22905  1.0000
  F   F308      1.0  0.23034  0.92777  0.73444  1.0000
  F   F309      1.0  0.48298  0.41817  0.22958  1.0000
  F   F310      1.0  0.48292  0.40575  0.74068  1.0000
  F   F311      1.0  0.48379  0.92863  0.21771  1.0000
  F   F312      1.0  0.48308  0.90628  0.72564  1.0000
  F   F313      1.0  0.73549  0.41494  0.23695  1.0000
  F   F314      1.0  0.73194  0.41911  0.71446  1.0000
  F   F315      1.0  0.73399  0.91589  0.22668  1.0000
  F   F316      1.0  0.73310  0.89213  0.73897  1.0000
  F   F317      1.0  0.98554  0.40966  0.22022  1.0000
  F   F318      1.0  0.98117  0.40283  0.72582  1.0000
  F   F319      1.0  0.98719  0.92668  0.21403  1.0000
  F   F320      1.0  0.98753  0.92785  0.71314  1.0000
  F   F321      1.0  0.20839  0.47579  0.47604  1.0000
  F   F322      1.0  0.21086  0.47265  0.97578  1.0000
  F   F323      1.0  0.21414  0.97078  0.46239  1.0000
  F   F324      1.0  0.20934  0.96981  0.97086  1.0000
  F   F325      1.0  0.45342  0.46993  0.47753  1.0000
  F   F326      1.0  0.46285  0.47300  0.97661  1.0000
  F   F327      1.0  0.45791  0.96185  0.47897  1.0000
  F   F328      1.0  0.45719  0.96903  0.97239  1.0000
  F   F329      1.0  0.70462  0.47594  0.49127  1.0000
  F   F330      1.0  0.70767  0.46297  0.97534  1.0000
  F   F331      1.0  0.70305  0.96835  0.48570  1.0000
  F   F332      1.0  0.70865  0.96957  0.97903  1.0000
  F   F333      1.0  0.95282  0.47421  0.47571  1.0000
  F   F334      1.0  0.95908  0.46951  0.97604  1.0000
  F   F335      1.0  0.95084  0.96543  0.47890  1.0000
  F   F336      1.0  0.94400  0.97441  0.98123  1.0000
  F   F337      1.0  0.01620  0.07399  0.28330  1.0000
  F   F338      1.0  0.01360  0.08912  0.77361  1.0000
  F   F339      1.0  0.01662  0.58589  0.27086  1.0000
  F   F340      1.0  0.01537  0.59196  0.77952  1.0000
  F   F341      1.0  0.26629  0.09859  0.28335  1.0000
  F   F342      1.0  0.26235  0.08938  0.77002  1.0000
  F   F343      1.0  0.25951  0.58431  0.27737  1.0000
  F   F344      1.0  0.26460  0.57999  0.77620  1.0000
  F   F345      1.0  0.51720  0.08956  0.27522  1.0000
  F   F346      1.0  0.51477  0.05702  0.78695  1.0000
  F   F347      1.0  0.51414  0.57918  0.27410  1.0000
  F   F348      1.0  0.52072  0.58432  0.76657  1.0000
  F   F349      1.0  0.76817  0.08371  0.28013  1.0000
  F   F350      1.0  0.76776  0.07509  0.77207  1.0000
  F   F351      1.0  0.77338  0.57892  0.27047  1.0000
  F   F352      1.0  0.76265  0.59335  0.76135  1.0000
  F   F353      1.0  0.09811  0.41671  0.46403  1.0000
  F   F354      1.0  0.09806  0.40156  0.97437  1.0000
  F   F355      1.0  0.10208  0.92245  0.45272  1.0000
  F   F356      1.0  0.09620  0.89842  0.96276  1.0000
  F   F357      1.0  0.35259  0.39282  0.45993  1.0000
  F   F358      1.0  0.34984  0.39858  0.96923  1.0000
  F   F359      1.0  0.35170  0.91448  0.46787  1.0000
  F   F360      1.0  0.35187  0.89608  0.96808  1.0000
  F   F361      1.0  0.59997  0.38657  0.45948  1.0000
  F   F362      1.0  0.59992  0.41017  0.96975  1.0000
  F   F363      1.0  0.60702  0.91005  0.45655  1.0000
  F   F364      1.0  0.59854  0.90117  0.96176  1.0000
  F   F365      1.0  0.85311  0.41562  0.46914  1.0000
  F   F366      1.0  0.85187  0.40985  0.96292  1.0000
  F   F367      1.0  0.84855  0.91110  0.46034  1.0000
  F   F368      1.0  0.85395  0.91224  0.96570  1.0000
  F   F369      1.0  0.04111  0.29729  0.29320  1.0000
  F   F370      1.0  0.04617  0.30822  0.78067  1.0000
  F   F371      1.0  0.04282  0.80404  0.30109  1.0000
  F   F372      1.0  0.04791  0.80885  0.77824  1.0000
  F   F373      1.0  0.29917  0.30250  0.27194  1.0000
  F   F374      1.0  0.29980  0.30077  0.77856  1.0000
  F   F375      1.0  0.30368  0.79161  0.29446  1.0000
  F   F376      1.0  0.28755  0.80311  0.78548  1.0000
  F   F377      1.0  0.53954  0.29931  0.29114  1.0000
  F   F378      1.0  0.55312  0.29162  0.80186  1.0000
  F   F379      1.0  0.54987  0.79683  0.29141  1.0000
  F   F380      1.0  0.54162  0.79679  0.78129  1.0000
  F   F381      1.0  0.79604  0.29264  0.28755  1.0000
  F   F382      1.0  0.79152  0.29416  0.79436  1.0000
  F   F383      1.0  0.79714  0.79552  0.28214  1.0000
  F   F384      1.0  0.79746  0.79832  0.78988  1.0000
