data_image0
_chemical_formula_structural       Hf96F384
_chemical_formula_sum              "Hf96 F384"
_cell_length_a       31.0594
_cell_length_b       15.531
_cell_length_c       15.5125
_cell_angle_alpha    63.342
_cell_angle_beta     63.342
_cell_angle_gamma    80.1625

_space_group_name_H-M_alt    "P 1"
_space_group_IT_number       1

loop_
  _space_group_symop_operation_xyz
  'x, y, z'

loop_
  _atom_site_type_symbol
  _atom_site_label
  _atom_site_symmetry_multiplicity
  _atom_site_fract_x
  _atom_site_fract_y
  _atom_site_fract_z
  _atom_site_occupancy
  Hf  Hf1       1.0  0.20087  0.11337  0.36200  1.0000
  Hf  Hf2       1.0  0.19609  0.10884  0.86812  1.0000
  Hf  Hf3       1.0  0.19412  0.61078  0.36881  1.0000
  Hf  Hf4       1.0  0.19085  0.60583  0.87875  1.0000
  Hf  Hf5       1.0  0.44738  0.10883  0.37341  1.0000
  Hf  Hf6       1.0  0.44508  0.10809  0.86619  1.0000
  Hf  Hf7       1.0  0.44513  0.60753  0.38317  1.0000
  Hf  Hf8       1.0  0.44549  0.60927  0.88813  1.0000
  Hf  Hf9       1.0  0.69679  0.10822  0.37688  1.0000
  Hf  Hf10      1.0  0.69273  0.10541  0.88112  1.0000
  Hf  Hf11      1.0  0.69584  0.60675  0.38132  1.0000
  Hf  Hf12      1.0  0.69491  0.61256  0.87057  1.0000
  Hf  Hf13      1.0  0.94701  0.10944  0.37674  1.0000
  Hf  Hf14      1.0  0.94549  0.10907  0.87442  1.0000
  Hf  Hf15      1.0  0.94002  0.60043  0.39000  1.0000
  Hf  Hf16      1.0  0.94515  0.61239  0.87532  1.0000
  Hf  Hf17      1.0  0.05588  0.39813  0.11448  1.0000
  Hf  Hf18      1.0  0.05359  0.38890  0.62715  1.0000
  Hf  Hf19      1.0  0.05463  0.88058  0.12056  1.0000
  Hf  Hf20      1.0  0.05421  0.89718  0.62041  1.0000
  Hf  Hf21      1.0  0.30409  0.38800  0.12292  1.0000
  Hf  Hf22      1.0  0.30292  0.39775  0.62284  1.0000
  Hf  Hf23      1.0  0.30471  0.89045  0.12416  1.0000
  Hf  Hf24      1.0  0.30433  0.89382  0.62348  1.0000
  Hf  Hf25      1.0  0.55573  0.39572  0.12484  1.0000
  Hf  Hf26      1.0  0.55539  0.39149  0.62505  1.0000
  Hf  Hf27      1.0  0.55249  0.88931  0.12604  1.0000
  Hf  Hf28      1.0  0.55686  0.89024  0.62234  1.0000
  Hf  Hf29      1.0  0.79841  0.39524  0.13235  1.0000
  Hf  Hf30      1.0  0.80444  0.38951  0.63277  1.0000
  Hf  Hf31      1.0  0.80270  0.89368  0.12895  1.0000
  Hf  Hf32      1.0  0.80308  0.89313  0.62352  1.0000
  Hf  Hf33      1.0  0.06027  0.18957  0.40552  1.0000
  Hf  Hf34      1.0  0.05462  0.17714  0.91194  1.0000
  Hf  Hf35      1.0  0.05547  0.68827  0.41481  1.0000
  Hf  Hf36      1.0  0.05652  0.68628  0.91901  1.0000
  Hf  Hf37      1.0  0.30663  0.17624  0.41093  1.0000
  Hf  Hf38      1.0  0.31046  0.18233  0.90965  1.0000
  Hf  Hf39      1.0  0.30372  0.68743  0.41740  1.0000
  Hf  Hf40      1.0  0.30870  0.68454  0.91150  1.0000
  Hf  Hf41      1.0  0.55410  0.17562  0.42653  1.0000
  Hf  Hf42      1.0  0.55297  0.17807  0.92271  1.0000
  Hf  Hf43      1.0  0.55831  0.67766  0.42583  1.0000
  Hf  Hf44      1.0  0.55597  0.68048  0.92525  1.0000
  Hf  Hf45      1.0  0.80482  0.18544  0.41604  1.0000
  Hf  Hf46      1.0  0.80855  0.18137  0.91626  1.0000
  Hf  Hf47      1.0  0.80431  0.67007  0.42771  1.0000
  Hf  Hf48      1.0  0.80749  0.68385  0.91975  1.0000
  Hf  Hf49      1.0  0.15720  0.38156  0.32997  1.0000
  Hf  Hf50      1.0  0.15262  0.38020  0.83664  1.0000
  Hf  Hf51      1.0  0.16124  0.89010  0.32953  1.0000
  Hf  Hf52      1.0  0.16272  0.88967  0.83053  1.0000
  Hf  Hf53      1.0  0.40883  0.39491  0.32864  1.0000
  Hf  Hf54      1.0  0.40976  0.39395  0.83092  1.0000
  Hf  Hf55      1.0  0.40690  0.88644  0.33554  1.0000
  Hf  Hf56      1.0  0.40696  0.88453  0.83780  1.0000
  Hf  Hf57      1.0  0.65669  0.37886  0.34524  1.0000
  Hf  Hf58      1.0  0.65477  0.38761  0.83891  1.0000
  Hf  Hf59      1.0  0.65861  0.89121  0.33469  1.0000
  Hf  Hf60      1.0  0.66006  0.88657  0.83416  1.0000
  Hf  Hf61      1.0  0.91014  0.38645  0.33961  1.0000
  Hf  Hf62      1.0  0.91038  0.38808  0.83009  1.0000
  Hf  Hf63      1.0  0.90945  0.88631  0.33991  1.0000
  Hf  Hf64      1.0  0.90980  0.88515  0.84047  1.0000
  Hf  Hf65      1.0  0.20184  0.32459  0.06496  1.0000
  Hf  Hf66      1.0  0.19914  0.31937  0.56895  1.0000
  Hf  Hf67      1.0  0.19271  0.82117  0.07682  1.0000
  Hf  Hf68      1.0  0.19596  0.82156  0.57306  1.0000
  Hf  Hf69      1.0  0.44423  0.31684  0.08484  1.0000
  Hf  Hf70      1.0  0.44155  0.32597  0.57741  1.0000
  Hf  Hf71      1.0  0.44650  0.81482  0.08114  1.0000
  Hf  Hf72      1.0  0.44988  0.82172  0.57320  1.0000
  Hf  Hf73      1.0  0.69402  0.31502  0.08575  1.0000
  Hf  Hf74      1.0  0.69597  0.31574  0.58620  1.0000
  Hf  Hf75      1.0  0.69081  0.81219  0.09551  1.0000
  Hf  Hf76      1.0  0.69544  0.81936  0.58716  1.0000
  Hf  Hf77      1.0  0.94397  0.32063  0.07816  1.0000
  Hf  Hf78      1.0  0.94184  0.30701  0.59079  1.0000
  Hf  Hf79      1.0  0.94220  0.81364  0.09326  1.0000
  Hf  Hf80      1.0  0.94449  0.81356  0.58352  1.0000
  Hf  Hf81      1.0  0.08685  0.10704  0.16979  1.0000
  Hf  Hf82      1.0  0.09445  0.11544  0.65983  1.0000
  Hf  Hf83      1.0  0.08441  0.60139  0.18458  1.0000
  Hf  Hf84      1.0  0.08939  0.60898  0.66773  1.0000
  Hf  Hf85      1.0  0.34458  0.11567  0.15899  1.0000
  Hf  Hf86      1.0  0.34552  0.11471  0.65768  1.0000
  Hf  Hf87      1.0  0.34014  0.61420  0.16747  1.0000
  Hf  Hf88      1.0  0.34049  0.61118  0.66742  1.0000
  Hf  Hf89      1.0  0.59129  0.11444  0.16577  1.0000
  Hf  Hf90      1.0  0.59155  0.10777  0.67293  1.0000
  Hf  Hf91      1.0  0.59088  0.61178  0.17578  1.0000
  Hf  Hf92      1.0  0.58801  0.60738  0.67330  1.0000
  Hf  Hf93      1.0  0.84079  0.12056  0.16583  1.0000
  Hf  Hf94      1.0  0.83794  0.10315  0.67215  1.0000
  Hf  Hf95      1.0  0.84507  0.61900  0.16495  1.0000
  Hf  Hf96      1.0  0.83420  0.60738  0.67521  1.0000
  F   F1        1.0  0.07641  0.13725  0.29311  1.0000
  F   F2        1.0  0.07650  0.11157  0.81385  1.0000
  F   F3        1.0  0.07977  0.61475  0.30984  1.0000
  F   F4        1.0  0.08831  0.65852  0.78656  1.0000
  F   F5        1.0  0.33550  0.12799  0.29973  1.0000
  F   F6        1.0  0.33454  0.13739  0.79614  1.0000
  F   F7        1.0  0.32453  0.63912  0.29707  1.0000
  F   F8        1.0  0.33630  0.63360  0.79371  1.0000
  F   F9        1.0  0.58273  0.14213  0.30107  1.0000
  F   F10       1.0  0.57204  0.11634  0.81994  1.0000
  F   F11       1.0  0.57503  0.60689  0.32254  1.0000
  F   F12       1.0  0.57835  0.61918  0.80466  1.0000
  F   F13       1.0  0.83505  0.15315  0.29099  1.0000
  F   F14       1.0  0.83034  0.11726  0.81252  1.0000
  F   F15       1.0  0.83067  0.63901  0.30217  1.0000
  F   F16       1.0  0.82799  0.61238  0.81098  1.0000
  F   F17       1.0  0.19370  0.33904  0.43303  1.0000
  F   F18       1.0  0.18557  0.34860  0.93090  1.0000
  F   F19       1.0  0.19651  0.85393  0.43005  1.0000
  F   F20       1.0  0.20017  0.85850  0.92135  1.0000
  F   F21       1.0  0.43560  0.35868  0.44176  1.0000
  F   F22       1.0  0.43907  0.33677  0.94104  1.0000
  F   F23       1.0  0.44382  0.85564  0.43556  1.0000
  F   F24       1.0  0.44294  0.85935  0.92802  1.0000
  F   F25       1.0  0.68059  0.33594  0.46077  1.0000
  F   F26       1.0  0.69024  0.35855  0.94070  1.0000
  F   F27       1.0  0.68298  0.84062  0.44690  1.0000
  F   F28       1.0  0.69121  0.84562  0.94025  1.0000
  F   F29       1.0  0.94266  0.35533  0.43309  1.0000
  F   F30       1.0  0.93528  0.33839  0.94158  1.0000
  F   F31       1.0  0.94087  0.83391  0.44197  1.0000
  F   F32       1.0  0.93307  0.84211  0.95340  1.0000
  F   F33       1.0  0.17365  0.36303  0.18548  1.0000
  F   F34       1.0  0.17225  0.36135  0.68891  1.0000
  F   F35       1.0  0.16959  0.87807  0.18766  1.0000
  F   F36       1.0  0.17423  0.87204  0.69269  1.0000
  F   F37       1.0  0.42518  0.38118  0.18591  1.0000
  F   F38       1.0  0.42408  0.38263  0.68514  1.0000
  F   F39       1.0  0.42112  0.87422  0.20059  1.0000
  F   F40       1.0  0.41745  0.86239  0.69958  1.0000
  F   F41       1.0  0.66694  0.35945  0.20003  1.0000
  F   F42       1.0  0.67468  0.38298  0.68871  1.0000
  F   F43       1.0  0.66030  0.84995  0.21973  1.0000
  F   F44       1.0  0.66712  0.87796  0.69952  1.0000
  F   F45       1.0  0.91702  0.35590  0.19435  1.0000
  F   F46       1.0  0.92407  0.36391  0.69774  1.0000
  F   F47       1.0  0.92405  0.88052  0.19546  1.0000
  F   F48       1.0  0.91515  0.85772  0.70872  1.0000
  F   F49       1.0  0.06109  0.15869  0.05044  1.0000
  F   F50       1.0  0.06845  0.17025  0.54077  1.0000
  F   F51       1.0  0.06164  0.65576  0.06133  1.0000
  F   F52       1.0  0.05733  0.66494  0.56204  1.0000
  F   F53       1.0  0.32011  0.16393  0.04412  1.0000
  F   F54       1.0  0.31305  0.15502  0.55389  1.0000
  F   F55       1.0  0.32730  0.66901  0.04116  1.0000
  F   F56       1.0  0.31372  0.66084  0.55595  1.0000
  F   F57       1.0  0.56127  0.15365  0.05938  1.0000
  F   F58       1.0  0.56315  0.15501  0.55777  1.0000
  F   F59       1.0  0.55876  0.65465  0.05892  1.0000
  F   F60       1.0  0.55754  0.64509  0.56489  1.0000
  F   F61       1.0  0.81329  0.16336  0.04994  1.0000
  F   F62       1.0  0.81172  0.15182  0.55084  1.0000
  F   F63       1.0  0.80882  0.66178  0.06277  1.0000
  F   F64       1.0  0.80508  0.66130  0.56563  1.0000
  F   F65       1.0  0.21730  0.21314  0.19484  1.0000
  F   F66       1.0  0.21631  0.19619  0.69281  1.0000
  F   F67       1.0  0.20335  0.70269  0.21786  1.0000
  F   F68       1.0  0.20056  0.70514  0.71924  1.0000
  F   F69       1.0  0.45842  0.20570  0.20968  1.0000
  F   F70       1.0  0.44833  0.20974  0.70210  1.0000
  F   F71       1.0  0.45536  0.71101  0.21101  1.0000
  F   F72       1.0  0.45422  0.69532  0.69825  1.0000
  F   F73       1.0  0.70985  0.19453  0.21617  1.0000
  F   F74       1.0  0.69842  0.21266  0.72087  1.0000
  F   F75       1.0  0.71044  0.69637  0.21350  1.0000
  F   F76       1.0  0.69939  0.70183  0.71342  1.0000
  F   F77       1.0  0.94766  0.19123  0.22147  1.0000
  F   F78       1.0  0.94973  0.19915  0.70757  1.0000
  F   F79       1.0  0.95539  0.71026  0.21519  1.0000
  F   F80       1.0  0.95599  0.69920  0.71363  1.0000
  F   F81       1.0  0.14766  0.13016  0.02659  1.0000
  F   F82       1.0  0.14721  0.07665  0.53668  1.0000
  F   F83       1.0  0.14602  0.59477  0.04671  1.0000
  F   F84       1.0  0.14763  0.58761  0.53589  1.0000
  F   F85       1.0  0.39910  0.09725  0.03152  1.0000
  F   F86       1.0  0.40417  0.09282  0.53484  1.0000
  F   F87       1.0  0.39879  0.56580  0.05354  1.0000
  F   F88       1.0  0.39540  0.56693  0.53742  1.0000
  F   F89       1.0  0.65077  0.10942  0.03735  1.0000
  F   F90       1.0  0.65371  0.10641  0.54112  1.0000
  F   F91       1.0  0.64638  0.60547  0.05350  1.0000
  F   F92       1.0  0.65483  0.57924  0.53499  1.0000
  F   F93       1.0  0.89708  0.11322  0.03304  1.0000
  F   F94       1.0  0.90399  0.09506  0.53951  1.0000
  F   F95       1.0  0.90030  0.60449  0.03154  1.0000
  F   F96       1.0  0.88987  0.59878  0.53744  1.0000
  F   F97       1.0  0.16442  0.20320  0.12028  1.0000
  F   F98       1.0  0.15152  0.20467  0.62842  1.0000
  F   F99       1.0  0.14860  0.70170  0.13413  1.0000
  F   F100      1.0  0.15119  0.69815  0.60294  1.0000
  F   F101      1.0  0.40396  0.19964  0.13088  1.0000
  F   F102      1.0  0.39739  0.21163  0.61472  1.0000
  F   F103      1.0  0.40254  0.69152  0.12179  1.0000
  F   F104      1.0  0.40591  0.67705  0.60273  1.0000
  F   F105      1.0  0.65443  0.20078  0.12819  1.0000
  F   F106      1.0  0.64825  0.19114  0.64513  1.0000
  F   F107      1.0  0.65075  0.69747  0.13796  1.0000
  F   F108      1.0  0.64859  0.68793  0.62998  1.0000
  F   F109      1.0  0.89950  0.21995  0.11890  1.0000
  F   F110      1.0  0.89949  0.19419  0.62565  1.0000
  F   F111      1.0  0.90722  0.69646  0.12702  1.0000
  F   F112      1.0  0.89982  0.69319  0.62931  1.0000
  F   F113      1.0  0.10098  0.30256  0.36022  1.0000
  F   F114      1.0  0.09761  0.29903  0.87134  1.0000
  F   F115      1.0  0.09751  0.81033  0.35574  1.0000
  F   F116      1.0  0.10247  0.79821  0.87560  1.0000
  F   F117      1.0  0.34691  0.29094  0.35376  1.0000
  F   F118      1.0  0.35064  0.30544  0.87051  1.0000
  F   F119      1.0  0.34622  0.80389  0.39253  1.0000
  F   F120      1.0  0.34553  0.81940  0.87488  1.0000
  F   F121      1.0  0.59822  0.29157  0.38380  1.0000
  F   F122      1.0  0.60083  0.29772  0.87839  1.0000
  F   F123      1.0  0.59589  0.79828  0.39956  1.0000
  F   F124      1.0  0.60189  0.79121  0.87654  1.0000
  F   F125      1.0  0.84296  0.30993  0.37371  1.0000
  F   F126      1.0  0.85277  0.30219  0.86198  1.0000
  F   F127      1.0  0.84621  0.79114  0.36916  1.0000
  F   F128      1.0  0.84701  0.80656  0.88764  1.0000
  F   F129      1.0  0.07456  0.25878  0.13100  1.0000
  F   F130      1.0  0.07006  0.24810  0.63787  1.0000
  F   F131      1.0  0.05866  0.74181  0.15488  1.0000
  F   F132      1.0  0.06884  0.76233  0.62901  1.0000
  F   F133      1.0  0.31825  0.25352  0.12877  1.0000
  F   F134      1.0  0.30771  0.24266  0.66228  1.0000
  F   F135      1.0  0.30485  0.74558  0.16171  1.0000
  F   F136      1.0  0.31562  0.74403  0.64812  1.0000
  F   F137      1.0  0.56846  0.24855  0.14526  1.0000
  F   F138      1.0  0.57392  0.25241  0.63067  1.0000
  F   F139      1.0  0.55887  0.75397  0.15360  1.0000
  F   F140      1.0  0.56387  0.75466  0.61831  1.0000
  F   F141      1.0  0.81628  0.24976  0.13280  1.0000
  F   F142      1.0  0.81542  0.23563  0.65367  1.0000
  F   F143      1.0  0.82104  0.75113  0.14337  1.0000
  F   F144      1.0  0.80320  0.74418  0.66727  1.0000
  F   F145      1.0  0.12601  0.39830  0.07898  1.0000
  F   F146      1.0  0.12554  0.38338  0.59503  1.0000
  F   F147      1.0  0.12452  0.86440  0.10552  1.0000
  F   F148      1.0  0.12591  0.87286  0.60810  1.0000
  F   F149      1.0  0.37470  0.35822  0.11300  1.0000
  F   F150      1.0  0.37313  0.39295  0.60336  1.0000
  F   F151      1.0  0.37437  0.84875  0.12800  1.0000
  F   F152      1.0  0.37330  0.85786  0.60928  1.0000
  F   F153      1.0  0.62405  0.37506  0.09115  1.0000
  F   F154      1.0  0.62370  0.37095  0.60810  1.0000
  F   F155      1.0  0.62481  0.86879  0.10208  1.0000
  F   F156      1.0  0.62322  0.84992  0.61602  1.0000
  F   F157      1.0  0.87178  0.38989  0.09487  1.0000
  F   F158      1.0  0.87383  0.36816  0.61407  1.0000
  F   F159      1.0  0.87187  0.87680  0.11009  1.0000
  F   F160      1.0  0.87495  0.86893  0.59611  1.0000
  F   F161      1.0  0.18793  0.24181  0.36115  1.0000
  F   F162      1.0  0.19636  0.26082  0.82714  1.0000
  F   F163      1.0  0.18170  0.75137  0.36855  1.0000
  F   F164      1.0  0.18167  0.75292  0.87287  1.0000
  F   F165      1.0  0.42956  0.25201  0.36944  1.0000
  F   F166      1.0  0.43163  0.25243  0.84191  1.0000
  F   F167      1.0  0.43536  0.74397  0.37126  1.0000
  F   F168      1.0  0.43486  0.74450  0.86755  1.0000
  F   F169      1.0  0.68988  0.25204  0.34649  1.0000
  F   F170      1.0  0.68573  0.25501  0.86866  1.0000
  F   F171      1.0  0.68462  0.74346  0.36335  1.0000
  F   F172      1.0  0.69050  0.76616  0.83957  1.0000
  F   F173      1.0  0.93269  0.24630  0.35662  1.0000
  F   F174      1.0  0.93877  0.24677  0.85010  1.0000
  F   F175      1.0  0.92899  0.74405  0.36717  1.0000
  F   F176      1.0  0.93827  0.76062  0.84914  1.0000
  F   F177      1.0  0.13415  0.13249  0.37418  1.0000
  F   F178      1.0  0.12655  0.12447  0.89642  1.0000
  F   F179      1.0  0.12222  0.62693  0.39585  1.0000
  F   F180      1.0  0.11837  0.62256  0.91868  1.0000
  F   F181      1.0  0.37647  0.13749  0.39748  1.0000
  F   F182      1.0  0.37487  0.11477  0.90231  1.0000
  F   F183      1.0  0.37536  0.65099  0.37202  1.0000
  F   F184      1.0  0.37480  0.63270  0.89192  1.0000
  F   F185      1.0  0.62448  0.12398  0.40583  1.0000
  F   F186      1.0  0.62517  0.12691  0.89380  1.0000
  F   F187      1.0  0.62452  0.63713  0.39716  1.0000
  F   F188      1.0  0.62730  0.63545  0.89795  1.0000
  F   F189      1.0  0.87274  0.11913  0.40229  1.0000
  F   F190      1.0  0.87206  0.11396  0.91012  1.0000
  F   F191      1.0  0.87308  0.61179  0.40440  1.0000
  F   F192      1.0  0.87509  0.63885  0.89376  1.0000
  F   F193      1.0  0.00592  0.36239  0.08465  1.0000
  F   F194      1.0  0.00754  0.36482  0.57331  1.0000
  F   F195      1.0  0.01676  0.85420  0.04841  1.0000
  F   F196      1.0  0.00460  0.87735  0.56984  1.0000
  F   F197      1.0  0.26437  0.36654  0.06332  1.0000
  F   F198      1.0  0.25858  0.36967  0.55990  1.0000
  F   F199      1.0  0.25961  0.86161  0.06382  1.0000
  F   F200      1.0  0.25700  0.85974  0.57096  1.0000
  F   F201      1.0  0.51092  0.35730  0.08218  1.0000
  F   F202      1.0  0.51684  0.36137  0.56597  1.0000
  F   F203      1.0  0.50950  0.85808  0.07112  1.0000
  F   F204      1.0  0.51120  0.87657  0.55691  1.0000
  F   F205      1.0  0.75763  0.35635  0.08245  1.0000
  F   F206      1.0  0.76459  0.35645  0.57286  1.0000
  F   F207      1.0  0.74886  0.87105  0.08894  1.0000
  F   F208      1.0  0.75676  0.87559  0.57015  1.0000
  F   F209      1.0  0.06014  0.48287  0.18424  1.0000
  F   F210      1.0  0.06577  0.48197  0.67833  1.0000
  F   F211      1.0  0.07643  0.98967  0.15175  1.0000
  F   F212      1.0  0.06367  0.98885  0.68301  1.0000
  F   F213      1.0  0.32128  0.48761  0.16268  1.0000
  F   F214      1.0  0.31383  0.49981  0.67253  1.0000
  F   F215      1.0  0.32195  0.99058  0.16173  1.0000
  F   F216      1.0  0.31893  0.98513  0.66777  1.0000
  F   F217      1.0  0.56645  0.48471  0.18590  1.0000
  F   F218      1.0  0.56755  0.47908  0.68892  1.0000
  F   F219      1.0  0.57403  0.98937  0.15391  1.0000
  F   F220      1.0  0.57351  0.97873  0.66655  1.0000
  F   F221      1.0  0.81248  0.49380  0.17894  1.0000
  F   F222      1.0  0.81561  0.47265  0.70957  1.0000
  F   F223      1.0  0.82078  0.98684  0.17692  1.0000
  F   F224      1.0  0.82003  0.97833  0.66425  1.0000
  F   F225      1.0  0.24028  0.11346  0.43413  1.0000
  F   F226      1.0  0.24350  0.13492  0.92337  1.0000
  F   F227      1.0  0.24226  0.63820  0.41294  1.0000
  F   F228      1.0  0.24138  0.64570  0.92616  1.0000
  F   F229      1.0  0.49388  0.15015  0.40903  1.0000
  F   F230      1.0  0.48990  0.14694  0.91460  1.0000
  F   F231      1.0  0.49175  0.65043  0.42801  1.0000
  F   F232      1.0  0.49254  0.62921  0.93455  1.0000
  F   F233      1.0  0.74604  0.15343  0.40398  1.0000
  F   F234      1.0  0.74642  0.13646  0.90339  1.0000
  F   F235      1.0  0.74214  0.63511  0.43717  1.0000
  F   F236      1.0  0.74105  0.63784  0.92860  1.0000
  F   F237      1.0  0.99360  0.13526  0.41958  1.0000
  F   F238      1.0  0.99127  0.13869  0.92603  1.0000
  F   F239      1.0  0.99015  0.64217  0.42822  1.0000
  F   F240      1.0  0.99398  0.63794  0.92733  1.0000
  F   F241      1.0  0.18740  0.01568  0.30265  1.0000
  F   F242      1.0  0.18310  0.01586  0.81191  1.0000
  F   F243      1.0  0.17978  0.50619  0.32390  1.0000
  F   F244      1.0  0.17147  0.52495  0.82597  1.0000
  F   F245      1.0  0.43409  0.02260  0.32010  1.0000
  F   F246      1.0  0.43539  0.02075  0.81297  1.0000
  F   F247      1.0  0.42422  0.51485  0.33895  1.0000
  F   F248      1.0  0.43007  0.51210  0.83794  1.0000
  F   F249      1.0  0.67595  0.01254  0.32668  1.0000
  F   F250      1.0  0.67856  0.01507  0.82752  1.0000
  F   F251      1.0  0.67773  0.50979  0.34036  1.0000
  F   F252      1.0  0.67524  0.51960  0.83054  1.0000
  F   F253      1.0  0.93428  0.00519  0.33265  1.0000
  F   F254      1.0  0.92846  0.01830  0.82741  1.0000
  F   F255      1.0  0.93477  0.52211  0.31176  1.0000
  F   F256      1.0  0.92837  0.51262  0.83612  1.0000
  F   F257      1.0  0.99886  0.24527  0.99942  1.0000
  F   F258      1.0  0.00013  0.24353  0.50205  1.0000
  F   F259      1.0  0.99547  0.74304  0.00964  1.0000
  F   F260      1.0  0.99895  0.75291  0.49951  1.0000
  F   F261      1.0  0.25601  0.25822  0.98034  1.0000
  F   F262      1.0  0.24860  0.24011  0.50106  1.0000
  F   F263      1.0  0.24961  0.74576  0.00678  1.0000
  F   F264      1.0  0.24626  0.73873  0.51127  1.0000
  F   F265      1.0  0.49993  0.24277  0.00587  1.0000
  F   F266      1.0  0.49569  0.25480  0.49943  1.0000
  F   F267      1.0  0.49950  0.74345  0.99855  1.0000
  F   F268      1.0  0.50286  0.75605  0.48871  1.0000
  F   F269      1.0  0.75268  0.24805  0.98641  1.0000
  F   F270      1.0  0.74674  0.25513  0.48970  1.0000
  F   F271      1.0  0.74898  0.75554  0.98782  1.0000
  F   F272      1.0  0.74319  0.75354  0.50150  1.0000
  F   F273      1.0  0.12217  0.99613  0.25239  1.0000
  F   F274      1.0  0.13312  0.01266  0.73015  1.0000
  F   F275      1.0  0.12354  0.48956  0.25174  1.0000
  F   F276      1.0  0.12635  0.50552  0.73958  1.0000
  F   F277      1.0  0.37120  0.99717  0.26398  1.0000
  F   F278      1.0  0.38080  0.00472  0.74825  1.0000
  F   F279      1.0  0.37252  0.49472  0.25532  1.0000
  F   F280      1.0  0.37105  0.49935  0.76880  1.0000
  F   F281      1.0  0.62345  0.99489  0.26217  1.0000
  F   F282      1.0  0.62739  0.00350  0.75360  1.0000
  F   F283      1.0  0.63347  0.49378  0.25042  1.0000
  F   F284      1.0  0.62024  0.48852  0.75584  1.0000
  F   F285      1.0  0.87893  0.00806  0.25701  1.0000
  F   F286      1.0  0.87105  0.99506  0.75851  1.0000
  F   F287      1.0  0.87982  0.50081  0.24083  1.0000
  F   F288      1.0  0.88096  0.50099  0.74362  1.0000
  F   F289      1.0  0.04010  0.02596  0.02312  1.0000
  F   F290      1.0  0.05243  0.03811  0.51408  1.0000
  F   F291      1.0  0.03782  0.52942  0.02813  1.0000
  F   F292      1.0  0.05530  0.52006  0.50770  1.0000
  F   F293      1.0  0.28807  0.03404  0.01838  1.0000
  F   F294      1.0  0.29329  0.02852  0.51002  1.0000
  F   F295      1.0  0.30085  0.53898  0.00017  1.0000
  F   F296      1.0  0.29131  0.53824  0.51365  1.0000
  F   F297      1.0  0.54177  0.02906  0.01506  1.0000
  F   F298      1.0  0.53242  0.03358  0.53448  1.0000
  F   F299      1.0  0.55141  0.52511  0.01646  1.0000
  F   F300      1.0  0.54500  0.52874  0.52788  1.0000
  F   F301      1.0  0.78366  0.03006  0.03660  1.0000
  F   F302      1.0  0.79074  0.03091  0.51294  1.0000
  F   F303      1.0  0.79701  0.52538  0.01599  1.0000
  F   F304      1.0  0.78652  0.53163  0.54123  1.0000
  F   F305      1.0  0.23155  0.41398  0.21738  1.0000
  F   F306      1.0  0.23587  0.43018  0.71656  1.0000
  F   F307      1.0  0.23917  0.90684  0.22005  1.0000
  F   F308      1.0  0.23637  0.93374  0.70576  1.0000
  F   F309      1.0  0.48371  0.42990  0.22031  1.0000
  F   F310      1.0  0.48890  0.41427  0.73366  1.0000
  F   F311      1.0  0.48860  0.92324  0.21829  1.0000
  F   F312      1.0  0.49043  0.89690  0.72855  1.0000
  F   F313      1.0  0.73031  0.42340  0.22998  1.0000
  F   F314      1.0  0.73777  0.42147  0.71770  1.0000
  F   F315      1.0  0.72627  0.92261  0.22806  1.0000
  F   F316      1.0  0.73832  0.93660  0.71439  1.0000
  F   F317      1.0  0.98228  0.40657  0.23063  1.0000
  F   F318      1.0  0.98777  0.41577  0.71784  1.0000
  F   F319      1.0  0.99050  0.91063  0.21407  1.0000
  F   F320      1.0  0.98194  0.92793  0.71327  1.0000
  F   F321      1.0  0.21014  0.47398  0.46638  1.0000
  F   F322      1.0  0.21700  0.47845  0.96854  1.0000
  F   F323      1.0  0.20400  0.96258  0.48995  1.0000
  F   F324      1.0  0.19436  0.97275  0.98469  1.0000
  F   F325      1.0  0.47117  0.46808  0.45254  1.0000
  F   F326      1.0  0.46424  0.47097  0.97039  1.0000
  F   F327      1.0  0.45660  0.97220  0.48415  1.0000
  F   F328      1.0  0.44940  0.96404  0.99009  1.0000
  F   F329      1.0  0.71485  0.45758  0.47269  1.0000
  F   F330      1.0  0.69617  0.48010  0.99073  1.0000
  F   F331      1.0  0.69519  0.97273  0.49982  1.0000
  F   F332      1.0  0.69698  0.96830  0.99446  1.0000
  F   F333      1.0  0.94765  0.47027  0.48554  1.0000
  F   F334      1.0  0.96028  0.47124  0.95905  1.0000
  F   F335      1.0  0.95957  0.95657  0.47404  1.0000
  F   F336      1.0  0.95989  0.96482  0.97218  1.0000
  F   F337      1.0  0.01171  0.08959  0.26414  1.0000
  F   F338      1.0  0.00907  0.10765  0.75739  1.0000
  F   F339      1.0  0.01009  0.58728  0.29173  1.0000
  F   F340      1.0  0.01716  0.60780  0.76950  1.0000
  F   F341      1.0  0.27110  0.08795  0.26316  1.0000
  F   F342      1.0  0.27127  0.07813  0.77284  1.0000
  F   F343      1.0  0.26897  0.58215  0.25807  1.0000
  F   F344      1.0  0.26257  0.59841  0.77817  1.0000
  F   F345      1.0  0.51684  0.08307  0.27403  1.0000
  F   F346      1.0  0.51418  0.09073  0.76497  1.0000
  F   F347      1.0  0.51567  0.59092  0.27294  1.0000
  F   F348      1.0  0.51104  0.59390  0.77230  1.0000
  F   F349      1.0  0.77109  0.08067  0.27783  1.0000
  F   F350      1.0  0.76892  0.06664  0.77090  1.0000
  F   F351      1.0  0.76640  0.59863  0.27824  1.0000
  F   F352      1.0  0.76273  0.57160  0.78524  1.0000
  F   F353      1.0  0.10115  0.38272  0.45665  1.0000
  F   F354      1.0  0.09575  0.42356  0.93573  1.0000
  F   F355      1.0  0.10117  0.90765  0.45834  1.0000
  F   F356      1.0  0.10049  0.91441  0.95801  1.0000
  F   F357      1.0  0.34749  0.39583  0.45857  1.0000
  F   F358      1.0  0.35621  0.40187  0.95825  1.0000
  F   F359      1.0  0.34746  0.90765  0.46266  1.0000
  F   F360      1.0  0.35487  0.91634  0.96047  1.0000
  F   F361      1.0  0.60326  0.41416  0.46076  1.0000
  F   F362      1.0  0.60067  0.40477  0.95969  1.0000
  F   F363      1.0  0.60159  0.94082  0.45974  1.0000
  F   F364      1.0  0.60348  0.89022  0.96247  1.0000
  F   F365      1.0  0.84944  0.41121  0.45807  1.0000
  F   F366      1.0  0.85374  0.39546  0.95595  1.0000
  F   F367      1.0  0.84708  0.89550  0.46534  1.0000
  F   F368      1.0  0.84493  0.91442  0.97676  1.0000
  F   F369      1.0  0.05020  0.30237  0.26701  1.0000
  F   F370      1.0  0.04988  0.28916  0.78473  1.0000
  F   F371      1.0  0.04745  0.79927  0.28967  1.0000
  F   F372      1.0  0.04409  0.81225  0.79115  1.0000
  F   F373      1.0  0.28873  0.28409  0.28782  1.0000
  F   F374      1.0  0.29817  0.31060  0.78219  1.0000
  F   F375      1.0  0.30251  0.80475  0.28566  1.0000
  F   F376      1.0  0.29582  0.79935  0.78939  1.0000
  F   F377      1.0  0.54592  0.31349  0.28113  1.0000
  F   F378      1.0  0.55223  0.28512  0.78622  1.0000
  F   F379      1.0  0.55340  0.79941  0.28095  1.0000
  F   F380      1.0  0.54825  0.78362  0.79338  1.0000
  F   F381      1.0  0.79308  0.31297  0.28023  1.0000
  F   F382      1.0  0.79076  0.29585  0.78754  1.0000
  F   F383      1.0  0.79095  0.80297  0.28771  1.0000
  F   F384      1.0  0.80471  0.79382  0.78265  1.0000
