data_image0
_chemical_formula_structural       Hf96F384
_chemical_formula_sum              "Hf96 F384"
_cell_length_a       31.0256
_cell_length_b       15.5183
_cell_length_c       15.5064
_cell_angle_alpha    63.342
_cell_angle_beta     63.342
_cell_angle_gamma    80.1625

_space_group_name_H-M_alt    "P 1"
_space_group_IT_number       1

loop_
  _space_group_symop_operation_xyz
  'x, y, z'

loop_
  _atom_site_type_symbol
  _atom_site_label
  _atom_site_symmetry_multiplicity
  _atom_site_fract_x
  _atom_site_fract_y
  _atom_site_fract_z
  _atom_site_occupancy
  Hf  Hf1       1.0  0.19453  0.10060  0.38444  1.0000
  Hf  Hf2       1.0  0.19922  0.09525  0.88418  1.0000
  Hf  Hf3       1.0  0.19548  0.60539  0.37952  1.0000
  Hf  Hf4       1.0  0.19545  0.60733  0.87314  1.0000
  Hf  Hf5       1.0  0.44781  0.11478  0.36802  1.0000
  Hf  Hf6       1.0  0.44456  0.11043  0.88083  1.0000
  Hf  Hf7       1.0  0.44624  0.60372  0.38019  1.0000
  Hf  Hf8       1.0  0.44503  0.60384  0.87646  1.0000
  Hf  Hf9       1.0  0.69524  0.12173  0.37193  1.0000
  Hf  Hf10      1.0  0.69850  0.10637  0.87488  1.0000
  Hf  Hf11      1.0  0.69678  0.61206  0.36526  1.0000
  Hf  Hf12      1.0  0.69523  0.62076  0.87043  1.0000
  Hf  Hf13      1.0  0.94652  0.10447  0.37961  1.0000
  Hf  Hf14      1.0  0.94509  0.11055  0.86836  1.0000
  Hf  Hf15      1.0  0.94281  0.60104  0.37559  1.0000
  Hf  Hf16      1.0  0.94221  0.59923  0.89117  1.0000
  Hf  Hf17      1.0  0.05210  0.38918  0.12404  1.0000
  Hf  Hf18      1.0  0.05421  0.38970  0.62343  1.0000
  Hf  Hf19      1.0  0.05190  0.88311  0.13306  1.0000
  Hf  Hf20      1.0  0.05561  0.89300  0.62013  1.0000
  Hf  Hf21      1.0  0.30504  0.39073  0.11630  1.0000
  Hf  Hf22      1.0  0.30509  0.39113  0.62420  1.0000
  Hf  Hf23      1.0  0.30342  0.89110  0.12211  1.0000
  Hf  Hf24      1.0  0.30228  0.88944  0.62606  1.0000
  Hf  Hf25      1.0  0.55389  0.40016  0.11775  1.0000
  Hf  Hf26      1.0  0.55200  0.39075  0.63086  1.0000
  Hf  Hf27      1.0  0.55168  0.89665  0.12998  1.0000
  Hf  Hf28      1.0  0.55464  0.89402  0.61849  1.0000
  Hf  Hf29      1.0  0.80860  0.39048  0.12227  1.0000
  Hf  Hf30      1.0  0.80238  0.39896  0.62302  1.0000
  Hf  Hf31      1.0  0.80445  0.89419  0.11905  1.0000
  Hf  Hf32      1.0  0.80430  0.89588  0.62270  1.0000
  Hf  Hf33      1.0  0.05785  0.18408  0.41363  1.0000
  Hf  Hf34      1.0  0.05665  0.17108  0.92044  1.0000
  Hf  Hf35      1.0  0.05219  0.67334  0.42807  1.0000
  Hf  Hf36      1.0  0.05338  0.68330  0.92067  1.0000
  Hf  Hf37      1.0  0.30581  0.18377  0.41881  1.0000
  Hf  Hf38      1.0  0.30956  0.17757  0.91845  1.0000
  Hf  Hf39      1.0  0.30579  0.68249  0.41734  1.0000
  Hf  Hf40      1.0  0.30333  0.68650  0.91445  1.0000
  Hf  Hf41      1.0  0.55961  0.19283  0.40625  1.0000
  Hf  Hf42      1.0  0.55743  0.18094  0.91440  1.0000
  Hf  Hf43      1.0  0.55668  0.68804  0.41670  1.0000
  Hf  Hf44      1.0  0.55656  0.68264  0.90998  1.0000
  Hf  Hf45      1.0  0.80810  0.18417  0.42061  1.0000
  Hf  Hf46      1.0  0.80634  0.19152  0.91556  1.0000
  Hf  Hf47      1.0  0.80247  0.68416  0.42055  1.0000
  Hf  Hf48      1.0  0.80716  0.67556  0.91208  1.0000
  Hf  Hf49      1.0  0.16617  0.38585  0.32655  1.0000
  Hf  Hf50      1.0  0.15895  0.38256  0.83248  1.0000
  Hf  Hf51      1.0  0.15834  0.88554  0.33299  1.0000
  Hf  Hf52      1.0  0.15737  0.88151  0.83476  1.0000
  Hf  Hf53      1.0  0.40895  0.39563  0.33242  1.0000
  Hf  Hf54      1.0  0.41155  0.39558  0.82400  1.0000
  Hf  Hf55      1.0  0.40802  0.88503  0.33491  1.0000
  Hf  Hf56      1.0  0.40690  0.89084  0.83715  1.0000
  Hf  Hf57      1.0  0.65988  0.39779  0.33101  1.0000
  Hf  Hf58      1.0  0.65783  0.38448  0.83182  1.0000
  Hf  Hf59      1.0  0.65986  0.89853  0.32687  1.0000
  Hf  Hf60      1.0  0.65779  0.89757  0.83058  1.0000
  Hf  Hf61      1.0  0.90735  0.38363  0.33178  1.0000
  Hf  Hf62      1.0  0.91284  0.39077  0.83201  1.0000
  Hf  Hf63      1.0  0.90933  0.88238  0.33589  1.0000
  Hf  Hf64      1.0  0.90929  0.88435  0.83277  1.0000
  Hf  Hf65      1.0  0.19541  0.31371  0.08172  1.0000
  Hf  Hf66      1.0  0.19317  0.31398  0.58587  1.0000
  Hf  Hf67      1.0  0.19321  0.81667  0.09034  1.0000
  Hf  Hf68      1.0  0.19641  0.81703  0.57752  1.0000
  Hf  Hf69      1.0  0.44093  0.32124  0.08139  1.0000
  Hf  Hf70      1.0  0.44485  0.31368  0.58279  1.0000
  Hf  Hf71      1.0  0.44117  0.81624  0.09142  1.0000
  Hf  Hf72      1.0  0.44281  0.82419  0.58046  1.0000
  Hf  Hf73      1.0  0.69775  0.33295  0.07417  1.0000
  Hf  Hf74      1.0  0.69566  0.32536  0.57733  1.0000
  Hf  Hf75      1.0  0.69322  0.82375  0.08403  1.0000
  Hf  Hf76      1.0  0.69276  0.82682  0.58125  1.0000
  Hf  Hf77      1.0  0.94375  0.30433  0.09142  1.0000
  Hf  Hf78      1.0  0.94230  0.32056  0.58032  1.0000
  Hf  Hf79      1.0  0.94293  0.81764  0.09027  1.0000
  Hf  Hf80      1.0  0.94339  0.81147  0.58741  1.0000
  Hf  Hf81      1.0  0.09119  0.10589  0.16791  1.0000
  Hf  Hf82      1.0  0.09177  0.10743  0.66667  1.0000
  Hf  Hf83      1.0  0.08889  0.60879  0.17054  1.0000
  Hf  Hf84      1.0  0.08579  0.60427  0.67864  1.0000
  Hf  Hf85      1.0  0.34079  0.10974  0.17956  1.0000
  Hf  Hf86      1.0  0.34155  0.10386  0.66667  1.0000
  Hf  Hf87      1.0  0.34076  0.61047  0.17124  1.0000
  Hf  Hf88      1.0  0.34415  0.61160  0.66121  1.0000
  Hf  Hf89      1.0  0.59416  0.11846  0.16274  1.0000
  Hf  Hf90      1.0  0.59088  0.12070  0.66269  1.0000
  Hf  Hf91      1.0  0.58924  0.61628  0.16843  1.0000
  Hf  Hf92      1.0  0.59315  0.61266  0.66515  1.0000
  Hf  Hf93      1.0  0.84222  0.10969  0.16948  1.0000
  Hf  Hf94      1.0  0.83920  0.11819  0.66635  1.0000
  Hf  Hf95      1.0  0.84120  0.61308  0.16585  1.0000
  Hf  Hf96      1.0  0.83872  0.61168  0.66961  1.0000
  F   F1        1.0  0.08347  0.14423  0.29523  1.0000
  F   F2        1.0  0.07913  0.11400  0.80139  1.0000
  F   F3        1.0  0.08038  0.60554  0.31889  1.0000
  F   F4        1.0  0.07288  0.62042  0.81158  1.0000
  F   F5        1.0  0.33331  0.11714  0.30923  1.0000
  F   F6        1.0  0.33510  0.12637  0.80545  1.0000
  F   F7        1.0  0.32575  0.61680  0.31228  1.0000
  F   F8        1.0  0.33701  0.63424  0.80081  1.0000
  F   F9        1.0  0.57482  0.13623  0.30052  1.0000
  F   F10       1.0  0.57961  0.13160  0.80316  1.0000
  F   F11       1.0  0.57654  0.63033  0.31016  1.0000
  F   F12       1.0  0.58103  0.62372  0.80015  1.0000
  F   F13       1.0  0.83411  0.12418  0.30908  1.0000
  F   F14       1.0  0.83001  0.13368  0.80543  1.0000
  F   F15       1.0  0.83160  0.61430  0.30422  1.0000
  F   F16       1.0  0.83813  0.61861  0.80185  1.0000
  F   F17       1.0  0.18094  0.34758  0.45307  1.0000
  F   F18       1.0  0.18462  0.34388  0.94541  1.0000
  F   F19       1.0  0.18432  0.82796  0.44584  1.0000
  F   F20       1.0  0.17925  0.83682  0.95276  1.0000
  F   F21       1.0  0.43037  0.33912  0.45060  1.0000
  F   F22       1.0  0.42443  0.33567  0.96133  1.0000
  F   F23       1.0  0.43306  0.84170  0.45256  1.0000
  F   F24       1.0  0.43009  0.83020  0.96325  1.0000
  F   F25       1.0  0.69443  0.36473  0.42611  1.0000
  F   F26       1.0  0.68408  0.34342  0.95242  1.0000
  F   F27       1.0  0.68331  0.83996  0.44421  1.0000
  F   F28       1.0  0.67977  0.85494  0.95045  1.0000
  F   F29       1.0  0.92423  0.33159  0.45939  1.0000
  F   F30       1.0  0.94262  0.33822  0.94075  1.0000
  F   F31       1.0  0.93650  0.83801  0.44824  1.0000
  F   F32       1.0  0.93194  0.83844  0.94827  1.0000
  F   F33       1.0  0.16935  0.36382  0.20133  1.0000
  F   F34       1.0  0.16586  0.37702  0.69397  1.0000
  F   F35       1.0  0.16981  0.88502  0.19459  1.0000
  F   F36       1.0  0.16758  0.85074  0.70023  1.0000
  F   F37       1.0  0.42138  0.37536  0.18655  1.0000
  F   F38       1.0  0.42403  0.38455  0.69312  1.0000
  F   F39       1.0  0.41701  0.87785  0.19929  1.0000
  F   F40       1.0  0.42645  0.88848  0.68052  1.0000
  F   F41       1.0  0.67591  0.37074  0.19453  1.0000
  F   F42       1.0  0.66993  0.36583  0.70022  1.0000
  F   F43       1.0  0.67332  0.88917  0.18318  1.0000
  F   F44       1.0  0.66827  0.86377  0.70844  1.0000
  F   F45       1.0  0.90943  0.35029  0.21354  1.0000
  F   F46       1.0  0.92185  0.36728  0.69401  1.0000
  F   F47       1.0  0.91804  0.86921  0.19804  1.0000
  F   F48       1.0  0.92216  0.86494  0.70265  1.0000
  F   F49       1.0  0.06523  0.13946  0.05742  1.0000
  F   F50       1.0  0.06376  0.16134  0.54961  1.0000
  F   F51       1.0  0.06469  0.65282  0.05258  1.0000
  F   F52       1.0  0.05501  0.64857  0.56455  1.0000
  F   F53       1.0  0.31159  0.16194  0.05290  1.0000
  F   F54       1.0  0.30673  0.14392  0.56040  1.0000
  F   F55       1.0  0.30425  0.63604  0.06261  1.0000
  F   F56       1.0  0.31301  0.65353  0.55124  1.0000
  F   F57       1.0  0.56754  0.16122  0.04769  1.0000
  F   F58       1.0  0.56516  0.16810  0.54289  1.0000
  F   F59       1.0  0.56756  0.67109  0.03774  1.0000
  F   F60       1.0  0.55732  0.66569  0.55594  1.0000
  F   F61       1.0  0.80933  0.16091  0.06040  1.0000
  F   F62       1.0  0.80851  0.15334  0.56254  1.0000
  F   F63       1.0  0.81263  0.64798  0.05124  1.0000
  F   F64       1.0  0.81221  0.67024  0.54934  1.0000
  F   F65       1.0  0.20171  0.21134  0.21628  1.0000
  F   F66       1.0  0.19944  0.20053  0.70767  1.0000
  F   F67       1.0  0.20142  0.69247  0.19651  1.0000
  F   F68       1.0  0.21097  0.68722  0.71978  1.0000
  F   F69       1.0  0.46037  0.20391  0.19686  1.0000
  F   F70       1.0  0.44724  0.20136  0.71499  1.0000
  F   F71       1.0  0.45271  0.69953  0.21726  1.0000
  F   F72       1.0  0.44761  0.70705  0.71174  1.0000
  F   F73       1.0  0.70829  0.20889  0.20387  1.0000
  F   F74       1.0  0.70591  0.20667  0.69873  1.0000
  F   F75       1.0  0.70212  0.70578  0.20183  1.0000
  F   F76       1.0  0.70879  0.71352  0.70840  1.0000
  F   F77       1.0  0.96138  0.19804  0.21994  1.0000
  F   F78       1.0  0.94848  0.19049  0.71422  1.0000
  F   F79       1.0  0.95320  0.69826  0.21785  1.0000
  F   F80       1.0  0.95440  0.70309  0.70877  1.0000
  F   F81       1.0  0.15533  0.07338  0.04998  1.0000
  F   F82       1.0  0.15794  0.08657  0.53039  1.0000
  F   F83       1.0  0.15020  0.57860  0.04059  1.0000
  F   F84       1.0  0.14606  0.59001  0.54610  1.0000
  F   F85       1.0  0.39876  0.10873  0.03375  1.0000
  F   F86       1.0  0.39541  0.08709  0.53668  1.0000
  F   F87       1.0  0.39820  0.59185  0.05022  1.0000
  F   F88       1.0  0.39597  0.56666  0.54505  1.0000
  F   F89       1.0  0.65154  0.08285  0.03914  1.0000
  F   F90       1.0  0.65127  0.11490  0.52261  1.0000
  F   F91       1.0  0.65156  0.56444  0.02808  1.0000
  F   F92       1.0  0.64576  0.60080  0.53897  1.0000
  F   F93       1.0  0.89937  0.11166  0.03397  1.0000
  F   F94       1.0  0.89796  0.12022  0.54044  1.0000
  F   F95       1.0  0.89965  0.61234  0.03567  1.0000
  F   F96       1.0  0.89169  0.59020  0.53866  1.0000
  F   F97       1.0  0.15264  0.18696  0.12063  1.0000
  F   F98       1.0  0.15429  0.19879  0.61147  1.0000
  F   F99       1.0  0.14347  0.69588  0.12542  1.0000
  F   F100      1.0  0.15138  0.69635  0.63874  1.0000
  F   F101      1.0  0.40338  0.19051  0.14568  1.0000
  F   F102      1.0  0.40249  0.17933  0.64202  1.0000
  F   F103      1.0  0.39549  0.69942  0.14806  1.0000
  F   F104      1.0  0.40010  0.68669  0.61686  1.0000
  F   F105      1.0  0.64965  0.19553  0.12327  1.0000
  F   F106      1.0  0.65648  0.19735  0.61861  1.0000
  F   F107      1.0  0.64957  0.68230  0.12888  1.0000
  F   F108      1.0  0.65438  0.70035  0.63271  1.0000
  F   F109      1.0  0.90781  0.19232  0.12951  1.0000
  F   F110      1.0  0.89536  0.20580  0.63586  1.0000
  F   F111      1.0  0.90507  0.70413  0.11963  1.0000
  F   F112      1.0  0.89919  0.69414  0.62132  1.0000
  F   F113      1.0  0.09798  0.30297  0.37275  1.0000
  F   F114      1.0  0.10299  0.28138  0.89538  1.0000
  F   F115      1.0  0.09844  0.79037  0.38221  1.0000
  F   F116      1.0  0.09353  0.80018  0.89115  1.0000
  F   F117      1.0  0.35127  0.30477  0.38622  1.0000
  F   F118      1.0  0.35534  0.29043  0.86201  1.0000
  F   F119      1.0  0.34425  0.81433  0.36752  1.0000
  F   F120      1.0  0.34694  0.80026  0.87940  1.0000
  F   F121      1.0  0.60055  0.31348  0.37643  1.0000
  F   F122      1.0  0.60031  0.30265  0.86700  1.0000
  F   F123      1.0  0.59996  0.80113  0.37281  1.0000
  F   F124      1.0  0.59600  0.83023  0.85776  1.0000
  F   F125      1.0  0.84286  0.30577  0.39116  1.0000
  F   F126      1.0  0.85220  0.29456  0.86876  1.0000
  F   F127      1.0  0.85128  0.80035  0.36210  1.0000
  F   F128      1.0  0.84628  0.79090  0.88924  1.0000
  F   F129      1.0  0.06326  0.23745  0.13836  1.0000
  F   F130      1.0  0.06175  0.24063  0.65980  1.0000
  F   F131      1.0  0.05856  0.74785  0.15047  1.0000
  F   F132      1.0  0.06068  0.74459  0.64392  1.0000
  F   F133      1.0  0.32022  0.24374  0.13797  1.0000
  F   F134      1.0  0.32461  0.24300  0.62836  1.0000
  F   F135      1.0  0.31733  0.74862  0.12648  1.0000
  F   F136      1.0  0.31029  0.74340  0.64935  1.0000
  F   F137      1.0  0.56914  0.26388  0.13408  1.0000
  F   F138      1.0  0.56045  0.24489  0.65267  1.0000
  F   F139      1.0  0.56511  0.75608  0.14768  1.0000
  F   F140      1.0  0.57008  0.75111  0.63874  1.0000
  F   F141      1.0  0.81891  0.25401  0.14031  1.0000
  F   F142      1.0  0.80743  0.25309  0.65065  1.0000
  F   F143      1.0  0.81339  0.74822  0.13607  1.0000
  F   F144      1.0  0.80958  0.74570  0.65471  1.0000
  F   F145      1.0  0.12099  0.35066  0.11865  1.0000
  F   F146      1.0  0.12235  0.36629  0.61584  1.0000
  F   F147      1.0  0.12768  0.87285  0.10349  1.0000
  F   F148      1.0  0.12808  0.87540  0.59603  1.0000
  F   F149      1.0  0.37089  0.36509  0.10696  1.0000
  F   F150      1.0  0.37694  0.37075  0.60248  1.0000
  F   F151      1.0  0.37306  0.88546  0.10591  1.0000
  F   F152      1.0  0.37067  0.84103  0.63405  1.0000
  F   F153      1.0  0.62721  0.37053  0.11355  1.0000
  F   F154      1.0  0.62208  0.36014  0.61910  1.0000
  F   F155      1.0  0.62216  0.87506  0.11051  1.0000
  F   F156      1.0  0.62406  0.88920  0.58955  1.0000
  F   F157      1.0  0.88086  0.37657  0.08319  1.0000
  F   F158      1.0  0.87164  0.38558  0.60716  1.0000
  F   F159      1.0  0.87821  0.87058  0.10716  1.0000
  F   F160      1.0  0.87975  0.86524  0.60718  1.0000
  F   F161      1.0  0.19418  0.25254  0.34782  1.0000
  F   F162      1.0  0.18840  0.24016  0.84590  1.0000
  F   F163      1.0  0.18400  0.74765  0.33176  1.0000
  F   F164      1.0  0.19188  0.74480  0.84411  1.0000
  F   F165      1.0  0.44093  0.25800  0.33993  1.0000
  F   F166      1.0  0.43763  0.25427  0.84885  1.0000
  F   F167      1.0  0.43388  0.73841  0.36974  1.0000
  F   F168      1.0  0.43097  0.73903  0.87184  1.0000
  F   F169      1.0  0.68431  0.26295  0.35224  1.0000
  F   F170      1.0  0.68854  0.25605  0.85267  1.0000
  F   F171      1.0  0.68789  0.75493  0.34932  1.0000
  F   F172      1.0  0.67536  0.75342  0.87738  1.0000
  F   F173      1.0  0.93504  0.25517  0.35233  1.0000
  F   F174      1.0  0.94169  0.24640  0.85578  1.0000
  F   F175      1.0  0.93405  0.74174  0.36006  1.0000
  F   F176      1.0  0.94664  0.74554  0.84501  1.0000
  F   F177      1.0  0.12722  0.13457  0.39493  1.0000
  F   F178      1.0  0.12980  0.11800  0.89561  1.0000
  F   F179      1.0  0.12813  0.62554  0.39047  1.0000
  F   F180      1.0  0.12718  0.64990  0.87455  1.0000
  F   F181      1.0  0.37701  0.13789  0.38864  1.0000
  F   F182      1.0  0.37378  0.10535  0.91709  1.0000
  F   F183      1.0  0.37431  0.63375  0.39052  1.0000
  F   F184      1.0  0.37531  0.62394  0.91169  1.0000
  F   F185      1.0  0.63135  0.15312  0.35820  1.0000
  F   F186      1.0  0.62831  0.13605  0.88721  1.0000
  F   F187      1.0  0.62427  0.63481  0.39319  1.0000
  F   F188      1.0  0.62576  0.65219  0.87319  1.0000
  F   F189      1.0  0.88021  0.12355  0.38464  1.0000
  F   F190      1.0  0.87365  0.11906  0.90907  1.0000
  F   F191      1.0  0.87543  0.62421  0.38746  1.0000
  F   F192      1.0  0.87521  0.63166  0.89091  1.0000
  F   F193      1.0  0.00781  0.36452  0.06353  1.0000
  F   F194      1.0  0.00889  0.34378  0.58289  1.0000
  F   F195      1.0  0.00639  0.85973  0.08585  1.0000
  F   F196      1.0  0.01023  0.86778  0.56800  1.0000
  F   F197      1.0  0.25726  0.34987  0.08202  1.0000
  F   F198      1.0  0.25746  0.34036  0.58497  1.0000
  F   F199      1.0  0.25689  0.84314  0.09654  1.0000
  F   F200      1.0  0.25255  0.85494  0.58934  1.0000
  F   F201      1.0  0.50837  0.36249  0.07186  1.0000
  F   F202      1.0  0.50944  0.36260  0.57286  1.0000
  F   F203      1.0  0.50237  0.86990  0.07851  1.0000
  F   F204      1.0  0.50945  0.86374  0.56282  1.0000
  F   F205      1.0  0.76194  0.35800  0.08483  1.0000
  F   F206      1.0  0.75681  0.37931  0.56169  1.0000
  F   F207      1.0  0.75382  0.85605  0.08421  1.0000
  F   F208      1.0  0.76002  0.87861  0.56786  1.0000
  F   F209      1.0  0.07301  0.48310  0.17399  1.0000
  F   F210      1.0  0.06489  0.47580  0.68829  1.0000
  F   F211      1.0  0.07012  0.97716  0.17511  1.0000
  F   F212      1.0  0.07533  0.99164  0.66073  1.0000
  F   F213      1.0  0.32647  0.48288  0.16766  1.0000
  F   F214      1.0  0.31170  0.48197  0.68047  1.0000
  F   F215      1.0  0.32145  0.99027  0.18556  1.0000
  F   F216      1.0  0.32332  0.97788  0.66541  1.0000
  F   F217      1.0  0.56378  0.49142  0.16973  1.0000
  F   F218      1.0  0.56622  0.48647  0.67630  1.0000
  F   F219      1.0  0.56965  0.99045  0.17498  1.0000
  F   F220      1.0  0.56634  0.99468  0.67401  1.0000
  F   F221      1.0  0.82939  0.48753  0.15933  1.0000
  F   F222      1.0  0.81554  0.49182  0.67242  1.0000
  F   F223      1.0  0.81668  0.99000  0.17901  1.0000
  F   F224      1.0  0.82404  0.98854  0.66613  1.0000
  F   F225      1.0  0.24514  0.12547  0.44173  1.0000
  F   F226      1.0  0.24874  0.13286  0.92606  1.0000
  F   F227      1.0  0.23838  0.64890  0.42996  1.0000
  F   F228      1.0  0.23873  0.63977  0.93881  1.0000
  F   F229      1.0  0.49015  0.13439  0.43823  1.0000
  F   F230      1.0  0.49108  0.12683  0.94584  1.0000
  F   F231      1.0  0.49049  0.63971  0.43566  1.0000
  F   F232      1.0  0.49200  0.63219  0.92209  1.0000
  F   F233      1.0  0.74699  0.14693  0.41201  1.0000
  F   F234      1.0  0.74442  0.14282  0.92808  1.0000
  F   F235      1.0  0.74121  0.63840  0.41997  1.0000
  F   F236      1.0  0.74479  0.64157  0.91878  1.0000
  F   F237      1.0  0.98919  0.14302  0.42689  1.0000
  F   F238      1.0  0.99971  0.14015  0.91524  1.0000
  F   F239      1.0  0.99131  0.64121  0.42294  1.0000
  F   F240      1.0  0.99345  0.62017  0.93210  1.0000
  F   F241      1.0  0.17759  0.02847  0.32387  1.0000
  F   F242      1.0  0.18329  0.00633  0.83790  1.0000
  F   F243      1.0  0.18497  0.50533  0.32959  1.0000
  F   F244      1.0  0.18128  0.52215  0.81752  1.0000
  F   F245      1.0  0.43619  0.01416  0.32148  1.0000
  F   F246      1.0  0.43112  0.01045  0.82008  1.0000
  F   F247      1.0  0.42417  0.51604  0.33010  1.0000
  F   F248      1.0  0.43172  0.52019  0.81683  1.0000
  F   F249      1.0  0.67238  0.01161  0.34453  1.0000
  F   F250      1.0  0.68185  0.02173  0.82254  1.0000
  F   F251      1.0  0.68284  0.53358  0.30870  1.0000
  F   F252      1.0  0.67926  0.51282  0.83962  1.0000
  F   F253      1.0  0.94142  0.01300  0.31780  1.0000
  F   F254      1.0  0.92959  0.01263  0.82151  1.0000
  F   F255      1.0  0.93377  0.50535  0.33493  1.0000
  F   F256      1.0  0.92644  0.51259  0.83306  1.0000
  F   F257      1.0  0.00010  0.23381  0.01648  1.0000
  F   F258      1.0  0.99685  0.25874  0.49355  1.0000
  F   F259      1.0  0.99897  0.74564  0.00751  1.0000
  F   F260      1.0  0.99542  0.74979  0.49453  1.0000
  F   F261      1.0  0.24776  0.24810  0.99399  1.0000
  F   F262      1.0  0.25163  0.25363  0.49107  1.0000
  F   F263      1.0  0.25091  0.76662  0.99056  1.0000
  F   F264      1.0  0.25604  0.75902  0.48958  1.0000
  F   F265      1.0  0.50150  0.25565  0.98980  1.0000
  F   F266      1.0  0.49682  0.25963  0.49379  1.0000
  F   F267      1.0  0.49741  0.73675  0.00222  1.0000
  F   F268      1.0  0.49674  0.75531  0.49822  1.0000
  F   F269      1.0  0.76167  0.27569  0.98219  1.0000
  F   F270      1.0  0.75209  0.26067  0.49543  1.0000
  F   F271      1.0  0.74649  0.75628  0.00131  1.0000
  F   F272      1.0  0.75169  0.77425  0.48689  1.0000
  F   F273      1.0  0.11826  0.99465  0.26811  1.0000
  F   F274      1.0  0.13187  0.99283  0.73285  1.0000
  F   F275      1.0  0.13796  0.50139  0.22822  1.0000
  F   F276      1.0  0.11649  0.48319  0.76954  1.0000
  F   F277      1.0  0.38433  0.00586  0.24393  1.0000
  F   F278      1.0  0.36592  0.97988  0.75968  1.0000
  F   F279      1.0  0.37525  0.50044  0.24602  1.0000
  F   F280      1.0  0.37211  0.49864  0.74961  1.0000
  F   F281      1.0  0.63330  0.01090  0.23334  1.0000
  F   F282      1.0  0.62954  0.01273  0.73036  1.0000
  F   F283      1.0  0.62885  0.50717  0.23380  1.0000
  F   F284      1.0  0.62407  0.50091  0.74803  1.0000
  F   F285      1.0  0.87723  0.00274  0.26070  1.0000
  F   F286      1.0  0.87397  0.99942  0.75173  1.0000
  F   F287      1.0  0.88367  0.50806  0.23028  1.0000
  F   F288      1.0  0.88104  0.49874  0.74128  1.0000
  F   F289      1.0  0.03560  0.01786  0.04229  1.0000
  F   F290      1.0  0.04266  0.03540  0.51717  1.0000
  F   F291      1.0  0.04623  0.52836  0.01448  1.0000
  F   F292      1.0  0.04052  0.51758  0.53111  1.0000
  F   F293      1.0  0.29009  0.02100  0.02549  1.0000
  F   F294      1.0  0.29112  0.02712  0.52732  1.0000
  F   F295      1.0  0.29158  0.51925  0.00988  1.0000
  F   F296      1.0  0.29425  0.52863  0.52257  1.0000
  F   F297      1.0  0.54291  0.03428  0.02789  1.0000
  F   F298      1.0  0.54830  0.03807  0.51402  1.0000
  F   F299      1.0  0.54033  0.53407  0.02297  1.0000
  F   F300      1.0  0.54138  0.52587  0.53699  1.0000
  F   F301      1.0  0.79292  0.03359  0.01787  1.0000
  F   F302      1.0  0.78826  0.03203  0.52698  1.0000
  F   F303      1.0  0.79142  0.52238  0.02230  1.0000
  F   F304      1.0  0.78799  0.54693  0.52489  1.0000
  F   F305      1.0  0.23429  0.42066  0.22020  1.0000
  F   F306      1.0  0.23374  0.42137  0.72173  1.0000
  F   F307      1.0  0.23376  0.91575  0.22550  1.0000
  F   F308      1.0  0.22866  0.91952  0.72809  1.0000
  F   F309      1.0  0.48700  0.42055  0.21265  1.0000
  F   F310      1.0  0.48508  0.40237  0.74358  1.0000
  F   F311      1.0  0.48157  0.90874  0.23416  1.0000
  F   F312      1.0  0.48683  0.90366  0.72463  1.0000
  F   F313      1.0  0.74290  0.40647  0.23650  1.0000
  F   F314      1.0  0.73191  0.42023  0.72437  1.0000
  F   F315      1.0  0.73896  0.92033  0.22814  1.0000
  F   F316      1.0  0.73667  0.90745  0.72788  1.0000
  F   F317      1.0  0.97911  0.42122  0.21884  1.0000
  F   F318      1.0  0.98696  0.41713  0.71640  1.0000
  F   F319      1.0  0.98389  0.90588  0.23539  1.0000
  F   F320      1.0  0.99374  0.92091  0.72222  1.0000
  F   F321      1.0  0.21628  0.46154  0.47662  1.0000
  F   F322      1.0  0.20634  0.45810  0.97888  1.0000
  F   F323      1.0  0.20717  0.95685  0.47149  1.0000
  F   F324      1.0  0.21702  0.95836  0.98024  1.0000
  F   F325      1.0  0.46240  0.46414  0.47108  1.0000
  F   F326      1.0  0.45639  0.46600  0.97371  1.0000
  F   F327      1.0  0.45073  0.97035  0.48760  1.0000
  F   F328      1.0  0.45405  0.96431  0.98410  1.0000
  F   F329      1.0  0.69784  0.47841  0.48314  1.0000
  F   F330      1.0  0.72189  0.46059  0.96990  1.0000
  F   F331      1.0  0.69827  0.97708  0.48714  1.0000
  F   F332      1.0  0.71699  0.97748  0.96190  1.0000
  F   F333      1.0  0.95933  0.46521  0.47221  1.0000
  F   F334      1.0  0.95341  0.47043  0.98634  1.0000
  F   F335      1.0  0.95419  0.97320  0.49073  1.0000
  F   F336      1.0  0.94850  0.97581  0.98055  1.0000
  F   F337      1.0  0.01977  0.07069  0.29144  1.0000
  F   F338      1.0  0.01537  0.08510  0.77456  1.0000
  F   F339      1.0  0.01270  0.57088  0.28051  1.0000
  F   F340      1.0  0.01044  0.58596  0.77554  1.0000
  F   F341      1.0  0.26782  0.09442  0.27804  1.0000
  F   F342      1.0  0.26739  0.08715  0.76564  1.0000
  F   F343      1.0  0.26342  0.58676  0.26765  1.0000
  F   F344      1.0  0.26778  0.58279  0.79315  1.0000
  F   F345      1.0  0.51930  0.08784  0.27870  1.0000
  F   F346      1.0  0.51167  0.09258  0.77751  1.0000
  F   F347      1.0  0.51481  0.57277  0.27935  1.0000
  F   F348      1.0  0.51588  0.59322  0.76575  1.0000
  F   F349      1.0  0.76586  0.08504  0.27321  1.0000
  F   F350      1.0  0.76729  0.08074  0.77863  1.0000
  F   F351      1.0  0.76564  0.58731  0.26445  1.0000
  F   F352      1.0  0.76511  0.57921  0.77481  1.0000
  F   F353      1.0  0.09860  0.39446  0.46683  1.0000
  F   F354      1.0  0.09768  0.40248  0.95666  1.0000
  F   F355      1.0  0.09748  0.89778  0.46046  1.0000
  F   F356      1.0  0.09690  0.91187  0.95874  1.0000
  F   F357      1.0  0.34799  0.41039  0.46470  1.0000
  F   F358      1.0  0.35237  0.40152  0.95434  1.0000
  F   F359      1.0  0.35316  0.91269  0.46144  1.0000
  F   F360      1.0  0.34939  0.90880  0.96334  1.0000
  F   F361      1.0  0.60454  0.41355  0.46381  1.0000
  F   F362      1.0  0.60202  0.41455  0.95472  1.0000
  F   F363      1.0  0.59868  0.90518  0.45421  1.0000
  F   F364      1.0  0.59489  0.91263  0.95421  1.0000
  F   F365      1.0  0.85146  0.41573  0.45911  1.0000
  F   F366      1.0  0.85054  0.39499  0.96224  1.0000
  F   F367      1.0  0.85403  0.91058  0.45741  1.0000
  F   F368      1.0  0.85283  0.90914  0.95471  1.0000
  F   F369      1.0  0.04133  0.29958  0.27537  1.0000
  F   F370      1.0  0.05269  0.28799  0.79616  1.0000
  F   F371      1.0  0.05121  0.78567  0.28993  1.0000
  F   F372      1.0  0.05602  0.80134  0.78497  1.0000
  F   F373      1.0  0.29896  0.29410  0.28241  1.0000
  F   F374      1.0  0.29586  0.29869  0.78446  1.0000
  F   F375      1.0  0.29758  0.79470  0.28055  1.0000
  F   F376      1.0  0.29137  0.80296  0.79301  1.0000
  F   F377      1.0  0.54503  0.30372  0.28559  1.0000
  F   F378      1.0  0.54466  0.30758  0.79192  1.0000
  F   F379      1.0  0.54386  0.81006  0.28890  1.0000
  F   F380      1.0  0.55322  0.79336  0.77509  1.0000
  F   F381      1.0  0.80507  0.30095  0.28393  1.0000
  F   F382      1.0  0.79223  0.31562  0.78093  1.0000
  F   F383      1.0  0.79516  0.80312  0.28020  1.0000
  F   F384      1.0  0.79833  0.79017  0.79260  1.0000
