data_image0
_chemical_formula_structural       Hf96F384
_chemical_formula_sum              "Hf96 F384"
_cell_length_a       31.0301
_cell_length_b       15.5162
_cell_length_c       15.5085
_cell_angle_alpha    63.342
_cell_angle_beta     63.342
_cell_angle_gamma    80.1625

_space_group_name_H-M_alt    "P 1"
_space_group_IT_number       1

loop_
  _space_group_symop_operation_xyz
  'x, y, z'

loop_
  _atom_site_type_symbol
  _atom_site_label
  _atom_site_symmetry_multiplicity
  _atom_site_fract_x
  _atom_site_fract_y
  _atom_site_fract_z
  _atom_site_occupancy
  Hf  Hf1       1.0  0.19045  0.10035  0.38059  1.0000
  Hf  Hf2       1.0  0.19535  0.09933  0.87873  1.0000
  Hf  Hf3       1.0  0.19901  0.60373  0.37163  1.0000
  Hf  Hf4       1.0  0.20064  0.60822  0.86020  1.0000
  Hf  Hf5       1.0  0.45068  0.11142  0.36141  1.0000
  Hf  Hf6       1.0  0.45021  0.11064  0.86420  1.0000
  Hf  Hf7       1.0  0.44408  0.60662  0.38050  1.0000
  Hf  Hf8       1.0  0.44463  0.60399  0.87977  1.0000
  Hf  Hf9       1.0  0.69406  0.10608  0.37684  1.0000
  Hf  Hf10      1.0  0.69590  0.10989  0.87282  1.0000
  Hf  Hf11      1.0  0.69956  0.60896  0.36545  1.0000
  Hf  Hf12      1.0  0.69540  0.60974  0.87504  1.0000
  Hf  Hf13      1.0  0.94793  0.10935  0.37545  1.0000
  Hf  Hf14      1.0  0.94475  0.11085  0.87896  1.0000
  Hf  Hf15      1.0  0.94986  0.60088  0.37502  1.0000
  Hf  Hf16      1.0  0.94435  0.61197  0.88136  1.0000
  Hf  Hf17      1.0  0.05519  0.39254  0.12440  1.0000
  Hf  Hf18      1.0  0.05617  0.38605  0.63234  1.0000
  Hf  Hf19      1.0  0.05389  0.88565  0.12794  1.0000
  Hf  Hf20      1.0  0.05138  0.88983  0.63281  1.0000
  Hf  Hf21      1.0  0.30172  0.38968  0.13179  1.0000
  Hf  Hf22      1.0  0.30177  0.39730  0.62372  1.0000
  Hf  Hf23      1.0  0.30276  0.89094  0.12820  1.0000
  Hf  Hf24      1.0  0.30517  0.89001  0.62435  1.0000
  Hf  Hf25      1.0  0.55026  0.39582  0.12355  1.0000
  Hf  Hf26      1.0  0.55147  0.38854  0.63050  1.0000
  Hf  Hf27      1.0  0.55283  0.89509  0.11870  1.0000
  Hf  Hf28      1.0  0.55253  0.89527  0.62125  1.0000
  Hf  Hf29      1.0  0.80400  0.39099  0.13104  1.0000
  Hf  Hf30      1.0  0.80531  0.38955  0.62515  1.0000
  Hf  Hf31      1.0  0.80212  0.89070  0.12325  1.0000
  Hf  Hf32      1.0  0.80336  0.89352  0.62403  1.0000
  Hf  Hf33      1.0  0.05182  0.18269  0.42963  1.0000
  Hf  Hf34      1.0  0.05527  0.18300  0.92222  1.0000
  Hf  Hf35      1.0  0.05607  0.68277  0.42264  1.0000
  Hf  Hf36      1.0  0.05652  0.68587  0.92241  1.0000
  Hf  Hf37      1.0  0.30243  0.16996  0.43116  1.0000
  Hf  Hf38      1.0  0.30535  0.18543  0.91767  1.0000
  Hf  Hf39      1.0  0.30360  0.68350  0.42314  1.0000
  Hf  Hf40      1.0  0.30630  0.68328  0.91445  1.0000
  Hf  Hf41      1.0  0.55559  0.18297  0.41376  1.0000
  Hf  Hf42      1.0  0.55388  0.19031  0.91660  1.0000
  Hf  Hf43      1.0  0.55640  0.67953  0.41403  1.0000
  Hf  Hf44      1.0  0.55314  0.68975  0.91178  1.0000
  Hf  Hf45      1.0  0.80521  0.17889  0.42005  1.0000
  Hf  Hf46      1.0  0.80544  0.18170  0.92103  1.0000
  Hf  Hf47      1.0  0.80771  0.67758  0.41364  1.0000
  Hf  Hf48      1.0  0.80547  0.69153  0.91397  1.0000
  Hf  Hf49      1.0  0.16021  0.38277  0.33691  1.0000
  Hf  Hf50      1.0  0.16088  0.38207  0.83565  1.0000
  Hf  Hf51      1.0  0.15515  0.88040  0.34025  1.0000
  Hf  Hf52      1.0  0.15966  0.88029  0.83818  1.0000
  Hf  Hf53      1.0  0.40415  0.37697  0.34456  1.0000
  Hf  Hf54      1.0  0.40287  0.38938  0.83559  1.0000
  Hf  Hf55      1.0  0.40649  0.89790  0.32992  1.0000
  Hf  Hf56      1.0  0.40882  0.88454  0.83462  1.0000
  Hf  Hf57      1.0  0.65656  0.38686  0.33624  1.0000
  Hf  Hf58      1.0  0.65798  0.39240  0.83087  1.0000
  Hf  Hf59      1.0  0.65863  0.88008  0.33833  1.0000
  Hf  Hf60      1.0  0.65893  0.89027  0.83053  1.0000
  Hf  Hf61      1.0  0.90692  0.38003  0.34080  1.0000
  Hf  Hf62      1.0  0.90904  0.39478  0.83575  1.0000
  Hf  Hf63      1.0  0.90929  0.89098  0.32969  1.0000
  Hf  Hf64      1.0  0.90710  0.89494  0.82920  1.0000
  Hf  Hf65      1.0  0.18992  0.30433  0.09356  1.0000
  Hf  Hf66      1.0  0.19789  0.31370  0.58232  1.0000
  Hf  Hf67      1.0  0.19441  0.82442  0.08357  1.0000
  Hf  Hf68      1.0  0.19306  0.82226  0.57928  1.0000
  Hf  Hf69      1.0  0.43979  0.32061  0.08493  1.0000
  Hf  Hf70      1.0  0.44613  0.31281  0.58116  1.0000
  Hf  Hf71      1.0  0.44489  0.81749  0.08246  1.0000
  Hf  Hf72      1.0  0.44988  0.82224  0.57162  1.0000
  Hf  Hf73      1.0  0.69547  0.32433  0.08226  1.0000
  Hf  Hf74      1.0  0.69883  0.32285  0.57510  1.0000
  Hf  Hf75      1.0  0.69158  0.81815  0.08305  1.0000
  Hf  Hf76      1.0  0.69679  0.82062  0.57646  1.0000
  Hf  Hf77      1.0  0.94422  0.31838  0.08214  1.0000
  Hf  Hf78      1.0  0.94278  0.31772  0.59122  1.0000
  Hf  Hf79      1.0  0.94375  0.81411  0.08437  1.0000
  Hf  Hf80      1.0  0.94602  0.82322  0.58171  1.0000
  Hf  Hf81      1.0  0.08910  0.10603  0.16919  1.0000
  Hf  Hf82      1.0  0.09376  0.10513  0.67436  1.0000
  Hf  Hf83      1.0  0.09384  0.61157  0.16138  1.0000
  Hf  Hf84      1.0  0.09085  0.61001  0.66875  1.0000
  Hf  Hf85      1.0  0.33990  0.12349  0.16608  1.0000
  Hf  Hf86      1.0  0.34269  0.11321  0.66919  1.0000
  Hf  Hf87      1.0  0.34287  0.61558  0.16223  1.0000
  Hf  Hf88      1.0  0.34396  0.60904  0.66135  1.0000
  Hf  Hf89      1.0  0.59187  0.11417  0.16093  1.0000
  Hf  Hf90      1.0  0.59358  0.11372  0.66559  1.0000
  Hf  Hf91      1.0  0.59047  0.61091  0.16050  1.0000
  Hf  Hf92      1.0  0.59267  0.61660  0.66308  1.0000
  Hf  Hf93      1.0  0.84335  0.11587  0.15965  1.0000
  Hf  Hf94      1.0  0.84096  0.11447  0.66558  1.0000
  Hf  Hf95      1.0  0.84362  0.61268  0.16427  1.0000
  Hf  Hf96      1.0  0.84235  0.61870  0.66114  1.0000
  F   F1        1.0  0.07599  0.12089  0.30312  1.0000
  F   F2        1.0  0.08304  0.12754  0.79842  1.0000
  F   F3        1.0  0.07822  0.62924  0.30810  1.0000
  F   F4        1.0  0.08113  0.63705  0.80088  1.0000
  F   F5        1.0  0.32693  0.11949  0.31774  1.0000
  F   F6        1.0  0.32761  0.12122  0.81290  1.0000
  F   F7        1.0  0.32326  0.62183  0.31253  1.0000
  F   F8        1.0  0.33383  0.62354  0.80313  1.0000
  F   F9        1.0  0.57657  0.12234  0.30118  1.0000
  F   F10       1.0  0.58470  0.14106  0.79251  1.0000
  F   F11       1.0  0.57595  0.62580  0.30605  1.0000
  F   F12       1.0  0.57792  0.62502  0.80753  1.0000
  F   F13       1.0  0.82811  0.12767  0.30348  1.0000
  F   F14       1.0  0.83425  0.15223  0.79170  1.0000
  F   F15       1.0  0.82947  0.62010  0.31256  1.0000
  F   F16       1.0  0.82518  0.62360  0.81525  1.0000
  F   F17       1.0  0.18970  0.32638  0.44953  1.0000
  F   F18       1.0  0.18738  0.33353  0.94749  1.0000
  F   F19       1.0  0.18256  0.83449  0.45148  1.0000
  F   F20       1.0  0.18297  0.84414  0.95282  1.0000
  F   F21       1.0  0.43333  0.33745  0.45108  1.0000
  F   F22       1.0  0.42771  0.32934  0.95768  1.0000
  F   F23       1.0  0.42942  0.84591  0.44902  1.0000
  F   F24       1.0  0.43252  0.82923  0.94910  1.0000
  F   F25       1.0  0.68785  0.35467  0.43607  1.0000
  F   F26       1.0  0.68835  0.35129  0.93158  1.0000
  F   F27       1.0  0.68189  0.82239  0.45652  1.0000
  F   F28       1.0  0.68783  0.84556  0.93796  1.0000
  F   F29       1.0  0.93513  0.34668  0.45469  1.0000
  F   F30       1.0  0.93882  0.33575  0.94772  1.0000
  F   F31       1.0  0.93460  0.83847  0.45023  1.0000
  F   F32       1.0  0.94105  0.84113  0.94251  1.0000
  F   F33       1.0  0.17292  0.37556  0.19577  1.0000
  F   F34       1.0  0.17310  0.37026  0.69855  1.0000
  F   F35       1.0  0.16299  0.86214  0.21114  1.0000
  F   F36       1.0  0.17119  0.86467  0.70508  1.0000
  F   F37       1.0  0.42073  0.37020  0.19719  1.0000
  F   F38       1.0  0.40992  0.34688  0.71069  1.0000
  F   F39       1.0  0.41943  0.87427  0.19110  1.0000
  F   F40       1.0  0.43171  0.88544  0.67980  1.0000
  F   F41       1.0  0.67001  0.38568  0.19146  1.0000
  F   F42       1.0  0.67748  0.37960  0.68633  1.0000
  F   F43       1.0  0.67120  0.87631  0.19338  1.0000
  F   F44       1.0  0.67342  0.87281  0.68503  1.0000
  F   F45       1.0  0.92556  0.36637  0.20546  1.0000
  F   F46       1.0  0.91744  0.37345  0.70559  1.0000
  F   F47       1.0  0.92014  0.87303  0.18627  1.0000
  F   F48       1.0  0.92352  0.89770  0.67739  1.0000
  F   F49       1.0  0.06493  0.14202  0.05903  1.0000
  F   F50       1.0  0.06109  0.15082  0.56196  1.0000
  F   F51       1.0  0.07098  0.66043  0.04768  1.0000
  F   F52       1.0  0.05823  0.64465  0.56960  1.0000
  F   F53       1.0  0.31866  0.15894  0.05277  1.0000
  F   F54       1.0  0.31826  0.16072  0.54518  1.0000
  F   F55       1.0  0.31886  0.65444  0.04283  1.0000
  F   F56       1.0  0.31501  0.65730  0.54864  1.0000
  F   F57       1.0  0.56272  0.15846  0.04763  1.0000
  F   F58       1.0  0.56439  0.15887  0.54840  1.0000
  F   F59       1.0  0.56439  0.66541  0.04571  1.0000
  F   F60       1.0  0.56428  0.65661  0.55525  1.0000
  F   F61       1.0  0.81307  0.15477  0.05680  1.0000
  F   F62       1.0  0.81224  0.16549  0.55250  1.0000
  F   F63       1.0  0.81804  0.66279  0.04938  1.0000
  F   F64       1.0  0.80973  0.66103  0.54972  1.0000
  F   F65       1.0  0.20462  0.19674  0.21303  1.0000
  F   F66       1.0  0.20655  0.19441  0.71023  1.0000
  F   F67       1.0  0.21130  0.70479  0.20163  1.0000
  F   F68       1.0  0.20108  0.70016  0.71052  1.0000
  F   F69       1.0  0.45335  0.19580  0.21150  1.0000
  F   F70       1.0  0.46236  0.19089  0.70363  1.0000
  F   F71       1.0  0.46092  0.70166  0.20503  1.0000
  F   F72       1.0  0.44561  0.71033  0.71284  1.0000
  F   F73       1.0  0.70676  0.20135  0.21348  1.0000
  F   F74       1.0  0.70581  0.20372  0.70647  1.0000
  F   F75       1.0  0.70228  0.70789  0.20308  1.0000
  F   F76       1.0  0.71135  0.70398  0.71591  1.0000
  F   F77       1.0  0.95754  0.20075  0.21702  1.0000
  F   F78       1.0  0.94577  0.20252  0.72455  1.0000
  F   F79       1.0  0.95470  0.69678  0.20633  1.0000
  F   F80       1.0  0.96077  0.70152  0.70818  1.0000
  F   F81       1.0  0.14812  0.08463  0.03510  1.0000
  F   F82       1.0  0.14802  0.08149  0.53523  1.0000
  F   F83       1.0  0.14951  0.58652  0.05094  1.0000
  F   F84       1.0  0.14713  0.59361  0.54668  1.0000
  F   F85       1.0  0.39975  0.10882  0.03647  1.0000
  F   F86       1.0  0.40351  0.10358  0.53088  1.0000
  F   F87       1.0  0.40032  0.59163  0.04716  1.0000
  F   F88       1.0  0.39874  0.58296  0.53595  1.0000
  F   F89       1.0  0.64664  0.10290  0.02997  1.0000
  F   F90       1.0  0.65225  0.07879  0.53863  1.0000
  F   F91       1.0  0.65054  0.59546  0.04926  1.0000
  F   F92       1.0  0.65164  0.60868  0.53668  1.0000
  F   F93       1.0  0.89999  0.09109  0.03834  1.0000
  F   F94       1.0  0.89719  0.09139  0.53956  1.0000
  F   F95       1.0  0.90282  0.59171  0.03690  1.0000
  F   F96       1.0  0.90182  0.59412  0.54294  1.0000
  F   F97       1.0  0.15055  0.19181  0.13084  1.0000
  F   F98       1.0  0.15608  0.18283  0.61436  1.0000
  F   F99       1.0  0.15557  0.70245  0.12091  1.0000
  F   F100      1.0  0.15137  0.69290  0.62696  1.0000
  F   F101      1.0  0.39642  0.19436  0.15075  1.0000
  F   F102      1.0  0.40062  0.18604  0.63568  1.0000
  F   F103      1.0  0.40340  0.69175  0.13732  1.0000
  F   F104      1.0  0.40388  0.69363  0.61318  1.0000
  F   F105      1.0  0.65614  0.20039  0.13375  1.0000
  F   F106      1.0  0.65458  0.19922  0.62146  1.0000
  F   F107      1.0  0.64890  0.70393  0.11907  1.0000
  F   F108      1.0  0.65036  0.70410  0.64369  1.0000
  F   F109      1.0  0.90581  0.19978  0.13416  1.0000
  F   F110      1.0  0.90172  0.19723  0.63061  1.0000
  F   F111      1.0  0.90242  0.69612  0.12424  1.0000
  F   F112      1.0  0.89862  0.70974  0.62674  1.0000
  F   F113      1.0  0.09902  0.30656  0.36654  1.0000
  F   F114      1.0  0.09431  0.29695  0.89512  1.0000
  F   F115      1.0  0.09614  0.79188  0.38160  1.0000
  F   F116      1.0  0.09984  0.79840  0.87521  1.0000
  F   F117      1.0  0.34213  0.30433  0.37988  1.0000
  F   F118      1.0  0.34787  0.29753  0.88783  1.0000
  F   F119      1.0  0.35110  0.80445  0.37747  1.0000
  F   F120      1.0  0.35115  0.80311  0.85878  1.0000
  F   F121      1.0  0.59216  0.31209  0.36499  1.0000
  F   F122      1.0  0.59854  0.31788  0.84826  1.0000
  F   F123      1.0  0.60016  0.79871  0.37137  1.0000
  F   F124      1.0  0.59769  0.80985  0.84215  1.0000
  F   F125      1.0  0.84892  0.29318  0.39175  1.0000
  F   F126      1.0  0.84817  0.29242  0.88312  1.0000
  F   F127      1.0  0.84862  0.79972  0.37993  1.0000
  F   F128      1.0  0.84491  0.81495  0.86112  1.0000
  F   F129      1.0  0.06294  0.24976  0.13085  1.0000
  F   F130      1.0  0.07053  0.24938  0.64111  1.0000
  F   F131      1.0  0.05870  0.74475  0.15317  1.0000
  F   F132      1.0  0.06297  0.74738  0.65482  1.0000
  F   F133      1.0  0.31559  0.26267  0.12636  1.0000
  F   F134      1.0  0.30562  0.24516  0.66082  1.0000
  F   F135      1.0  0.31809  0.75182  0.13628  1.0000
  F   F136      1.0  0.31841  0.74833  0.62625  1.0000
  F   F137      1.0  0.56527  0.24888  0.13716  1.0000
  F   F138      1.0  0.56463  0.24983  0.64399  1.0000
  F   F139      1.0  0.56823  0.75354  0.12959  1.0000
  F   F140      1.0  0.56388  0.75654  0.63594  1.0000
  F   F141      1.0  0.82121  0.25415  0.12867  1.0000
  F   F142      1.0  0.81011  0.24927  0.63500  1.0000
  F   F143      1.0  0.81331  0.74326  0.15487  1.0000
  F   F144      1.0  0.81502  0.75601  0.63772  1.0000
  F   F145      1.0  0.12484  0.36914  0.09719  1.0000
  F   F146      1.0  0.13034  0.35989  0.60770  1.0000
  F   F147      1.0  0.12285  0.87006  0.11455  1.0000
  F   F148      1.0  0.12278  0.86836  0.60157  1.0000
  F   F149      1.0  0.37289  0.39026  0.10212  1.0000
  F   F150      1.0  0.37120  0.36941  0.60196  1.0000
  F   F151      1.0  0.37395  0.87629  0.11403  1.0000
  F   F152      1.0  0.37420  0.84928  0.62418  1.0000
  F   F153      1.0  0.62286  0.38675  0.10587  1.0000
  F   F154      1.0  0.62578  0.38007  0.60276  1.0000
  F   F155      1.0  0.62315  0.87399  0.10863  1.0000
  F   F156      1.0  0.62788  0.89190  0.58102  1.0000
  F   F157      1.0  0.87341  0.37100  0.11727  1.0000
  F   F158      1.0  0.87685  0.37028  0.60451  1.0000
  F   F159      1.0  0.87518  0.88420  0.08493  1.0000
  F   F160      1.0  0.87201  0.86251  0.61817  1.0000
  F   F161      1.0  0.18700  0.24124  0.36102  1.0000
  F   F162      1.0  0.18296  0.24047  0.86344  1.0000
  F   F163      1.0  0.18296  0.74791  0.36027  1.0000
  F   F164      1.0  0.18417  0.74427  0.87184  1.0000
  F   F165      1.0  0.43628  0.24833  0.35623  1.0000
  F   F166      1.0  0.43881  0.25142  0.85169  1.0000
  F   F167      1.0  0.43149  0.75244  0.36421  1.0000
  F   F168      1.0  0.43637  0.75243  0.84423  1.0000
  F   F169      1.0  0.66928  0.24594  0.38406  1.0000
  F   F170      1.0  0.67942  0.24942  0.85924  1.0000
  F   F171      1.0  0.69378  0.74971  0.34576  1.0000
  F   F172      1.0  0.67412  0.74473  0.87796  1.0000
  F   F173      1.0  0.93624  0.24319  0.37221  1.0000
  F   F174      1.0  0.93262  0.25330  0.86542  1.0000
  F   F175      1.0  0.93732  0.75164  0.34964  1.0000
  F   F176      1.0  0.93169  0.75254  0.85546  1.0000
  F   F177      1.0  0.12225  0.13502  0.39372  1.0000
  F   F178      1.0  0.12675  0.12741  0.88722  1.0000
  F   F179      1.0  0.12903  0.62095  0.39259  1.0000
  F   F180      1.0  0.12996  0.61774  0.89956  1.0000
  F   F181      1.0  0.37791  0.12242  0.39781  1.0000
  F   F182      1.0  0.38087  0.12379  0.88727  1.0000
  F   F183      1.0  0.37367  0.63105  0.38963  1.0000
  F   F184      1.0  0.37554  0.63612  0.88673  1.0000
  F   F185      1.0  0.62240  0.13284  0.38518  1.0000
  F   F186      1.0  0.62453  0.12441  0.89725  1.0000
  F   F187      1.0  0.63045  0.62509  0.38692  1.0000
  F   F188      1.0  0.62566  0.63263  0.88893  1.0000
  F   F189      1.0  0.87215  0.12054  0.39532  1.0000
  F   F190      1.0  0.87622  0.10237  0.90795  1.0000
  F   F191      1.0  0.88001  0.62149  0.39631  1.0000
  F   F192      1.0  0.87618  0.63488  0.89283  1.0000
  F   F193      1.0  0.00858  0.37046  0.06841  1.0000
  F   F194      1.0  0.00429  0.35000  0.59359  1.0000
  F   F195      1.0  0.00323  0.85909  0.08556  1.0000
  F   F196      1.0  0.00952  0.85602  0.58139  1.0000
  F   F197      1.0  0.25209  0.35974  0.08424  1.0000
  F   F198      1.0  0.25605  0.35765  0.58021  1.0000
  F   F199      1.0  0.25930  0.86318  0.07471  1.0000
  F   F200      1.0  0.25614  0.86975  0.56483  1.0000
  F   F201      1.0  0.50564  0.35843  0.08143  1.0000
  F   F202      1.0  0.50390  0.35584  0.58287  1.0000
  F   F203      1.0  0.50906  0.85947  0.07119  1.0000
  F   F204      1.0  0.51214  0.87197  0.54918  1.0000
  F   F205      1.0  0.75553  0.36833  0.08002  1.0000
  F   F206      1.0  0.76279  0.36872  0.55496  1.0000
  F   F207      1.0  0.75585  0.86264  0.07365  1.0000
  F   F208      1.0  0.75962  0.86146  0.57083  1.0000
  F   F209      1.0  0.07262  0.48888  0.16617  1.0000
  F   F210      1.0  0.07238  0.47817  0.67518  1.0000
  F   F211      1.0  0.06813  0.98107  0.17312  1.0000
  F   F212      1.0  0.06664  0.98441  0.69112  1.0000
  F   F213      1.0  0.31822  0.49004  0.19142  1.0000
  F   F214      1.0  0.32076  0.48346  0.67517  1.0000
  F   F215      1.0  0.31645  0.98793  0.17446  1.0000
  F   F216      1.0  0.33198  0.99090  0.64491  1.0000
  F   F217      1.0  0.56676  0.49247  0.16993  1.0000
  F   F218      1.0  0.56944  0.49081  0.66939  1.0000
  F   F219      1.0  0.56438  0.98715  0.18246  1.0000
  F   F220      1.0  0.56990  0.99345  0.65652  1.0000
  F   F221      1.0  0.81998  0.48959  0.17166  1.0000
  F   F222      1.0  0.82122  0.47935  0.67947  1.0000
  F   F223      1.0  0.82190  0.98286  0.17088  1.0000
  F   F224      1.0  0.81747  0.97427  0.69557  1.0000
  F   F225      1.0  0.23980  0.13478  0.43091  1.0000
  F   F226      1.0  0.24721  0.14807  0.90537  1.0000
  F   F227      1.0  0.23858  0.63994  0.42752  1.0000
  F   F228      1.0  0.24351  0.65000  0.90259  1.0000
  F   F229      1.0  0.49598  0.14319  0.41969  1.0000
  F   F230      1.0  0.49667  0.14541  0.91976  1.0000
  F   F231      1.0  0.48934  0.63180  0.43067  1.0000
  F   F232      1.0  0.49107  0.64160  0.93057  1.0000
  F   F233      1.0  0.74296  0.14131  0.40886  1.0000
  F   F234      1.0  0.73863  0.13977  0.92622  1.0000
  F   F235      1.0  0.74396  0.63727  0.43000  1.0000
  F   F236      1.0  0.73980  0.64478  0.92835  1.0000
  F   F237      1.0  0.98785  0.14412  0.44852  1.0000
  F   F238      1.0  0.99320  0.12730  0.94208  1.0000
  F   F239      1.0  0.99214  0.64488  0.42227  1.0000
  F   F240      1.0  0.99182  0.65248  0.91707  1.0000
  F   F241      1.0  0.18631  0.00076  0.33219  1.0000
  F   F242      1.0  0.18092  0.01105  0.82086  1.0000
  F   F243      1.0  0.18530  0.51194  0.31954  1.0000
  F   F244      1.0  0.18653  0.50715  0.81141  1.0000
  F   F245      1.0  0.42881  0.02060  0.31720  1.0000
  F   F246      1.0  0.42939  0.00688  0.82968  1.0000
  F   F247      1.0  0.42880  0.51018  0.33509  1.0000
  F   F248      1.0  0.42017  0.52132  0.83524  1.0000
  F   F249      1.0  0.67895  0.01119  0.33330  1.0000
  F   F250      1.0  0.68324  0.01267  0.81875  1.0000
  F   F251      1.0  0.68097  0.51719  0.31464  1.0000
  F   F252      1.0  0.68262  0.52331  0.80859  1.0000
  F   F253      1.0  0.93489  0.01831  0.32538  1.0000
  F   F254      1.0  0.93818  0.01721  0.81604  1.0000
  F   F255      1.0  0.93574  0.50661  0.32090  1.0000
  F   F256      1.0  0.93377  0.51312  0.83307  1.0000
  F   F257      1.0  0.99858  0.24228  0.01549  1.0000
  F   F258      1.0  0.00285  0.26788  0.49164  1.0000
  F   F259      1.0  0.99956  0.73880  0.01470  1.0000
  F   F260      1.0  0.99646  0.74507  0.50615  1.0000
  F   F261      1.0  0.25467  0.25798  0.99280  1.0000
  F   F262      1.0  0.25535  0.24891  0.50565  1.0000
  F   F263      1.0  0.25590  0.76862  0.98155  1.0000
  F   F264      1.0  0.24599  0.74385  0.51106  1.0000
  F   F265      1.0  0.49704  0.26649  0.98642  1.0000
  F   F266      1.0  0.49771  0.25083  0.49917  1.0000
  F   F267      1.0  0.50164  0.76285  0.98859  1.0000
  F   F268      1.0  0.50362  0.75571  0.49613  1.0000
  F   F269      1.0  0.75104  0.27282  0.98472  1.0000
  F   F270      1.0  0.75061  0.25039  0.50188  1.0000
  F   F271      1.0  0.75257  0.76531  0.99435  1.0000
  F   F272      1.0  0.75511  0.77281  0.47537  1.0000
  F   F273      1.0  0.12969  0.99503  0.25280  1.0000
  F   F274      1.0  0.12802  0.99502  0.75085  1.0000
  F   F275      1.0  0.13257  0.51094  0.24057  1.0000
  F   F276      1.0  0.11964  0.48921  0.75876  1.0000
  F   F277      1.0  0.37041  0.99657  0.25345  1.0000
  F   F278      1.0  0.37583  0.00459  0.75782  1.0000
  F   F279      1.0  0.38245  0.49739  0.25196  1.0000
  F   F280      1.0  0.38175  0.50558  0.73412  1.0000
  F   F281      1.0  0.63046  0.00834  0.23909  1.0000
  F   F282      1.0  0.62082  0.00038  0.75115  1.0000
  F   F283      1.0  0.62519  0.50804  0.25201  1.0000
  F   F284      1.0  0.62563  0.49816  0.74549  1.0000
  F   F285      1.0  0.87886  0.00442  0.24306  1.0000
  F   F286      1.0  0.88237  0.01415  0.73073  1.0000
  F   F287      1.0  0.87616  0.49507  0.25465  1.0000
  F   F288      1.0  0.87503  0.51593  0.75688  1.0000
  F   F289      1.0  0.04786  0.02371  0.01856  1.0000
  F   F290      1.0  0.05011  0.03494  0.51153  1.0000
  F   F291      1.0  0.04441  0.53752  0.01212  1.0000
  F   F292      1.0  0.03623  0.52043  0.52651  1.0000
  F   F293      1.0  0.29486  0.04117  0.01726  1.0000
  F   F294      1.0  0.28114  0.03046  0.53966  1.0000
  F   F295      1.0  0.28525  0.53085  0.03200  1.0000
  F   F296      1.0  0.28279  0.53453  0.52607  1.0000
  F   F297      1.0  0.54783  0.03557  0.00888  1.0000
  F   F298      1.0  0.54663  0.02690  0.51122  1.0000
  F   F299      1.0  0.54776  0.52927  0.02085  1.0000
  F   F300      1.0  0.54432  0.53162  0.51705  1.0000
  F   F301      1.0  0.78983  0.02966  0.02629  1.0000
  F   F302      1.0  0.79126  0.03740  0.52560  1.0000
  F   F303      1.0  0.79383  0.52898  0.02819  1.0000
  F   F304      1.0  0.79516  0.52661  0.52117  1.0000
  F   F305      1.0  0.23733  0.40854  0.23072  1.0000
  F   F306      1.0  0.23927  0.40369  0.73403  1.0000
  F   F307      1.0  0.23477  0.91599  0.21768  1.0000
  F   F308      1.0  0.23741  0.92046  0.72040  1.0000
  F   F309      1.0  0.48451  0.41839  0.22394  1.0000
  F   F310      1.0  0.48068  0.41521  0.72846  1.0000
  F   F311      1.0  0.48204  0.91865  0.22778  1.0000
  F   F312      1.0  0.48672  0.91873  0.72544  1.0000
  F   F313      1.0  0.73665  0.39470  0.22594  1.0000
  F   F314      1.0  0.73819  0.40074  0.73154  1.0000
  F   F315      1.0  0.73695  0.90515  0.23000  1.0000
  F   F316      1.0  0.73297  0.91717  0.71866  1.0000
  F   F317      1.0  0.98794  0.41140  0.22696  1.0000
  F   F318      1.0  0.98620  0.41184  0.73223  1.0000
  F   F319      1.0  0.98162  0.91859  0.22434  1.0000
  F   F320      1.0  0.98473  0.91658  0.71768  1.0000
  F   F321      1.0  0.20760  0.46679  0.48156  1.0000
  F   F322      1.0  0.20080  0.47198  0.96406  1.0000
  F   F323      1.0  0.20490  0.96942  0.48349  1.0000
  F   F324      1.0  0.21044  0.96523  0.98094  1.0000
  F   F325      1.0  0.46038  0.45545  0.47929  1.0000
  F   F326      1.0  0.46379  0.46492  0.96817  1.0000
  F   F327      1.0  0.45073  0.96912  0.48062  1.0000
  F   F328      1.0  0.45796  0.96941  0.97747  1.0000
  F   F329      1.0  0.70380  0.47804  0.48250  1.0000
  F   F330      1.0  0.69823  0.46969  0.98431  1.0000
  F   F331      1.0  0.71418  0.96915  0.47266  1.0000
  F   F332      1.0  0.70524  0.97950  0.97804  1.0000
  F   F333      1.0  0.95625  0.46808  0.48556  1.0000
  F   F334      1.0  0.95397  0.46689  0.98384  1.0000
  F   F335      1.0  0.96688  0.97135  0.46931  1.0000
  F   F336      1.0  0.95029  0.97817  0.97986  1.0000
  F   F337      1.0  0.01673  0.07767  0.27945  1.0000
  F   F338      1.0  0.02037  0.09706  0.79018  1.0000
  F   F339      1.0  0.01616  0.57805  0.26500  1.0000
  F   F340      1.0  0.01261  0.58059  0.77938  1.0000
  F   F341      1.0  0.26508  0.09648  0.26669  1.0000
  F   F342      1.0  0.26632  0.06105  0.78467  1.0000
  F   F343      1.0  0.26824  0.58969  0.26555  1.0000
  F   F344      1.0  0.27034  0.58655  0.75283  1.0000
  F   F345      1.0  0.51396  0.08072  0.27057  1.0000
  F   F346      1.0  0.52014  0.09014  0.76374  1.0000
  F   F347      1.0  0.51586  0.58460  0.27324  1.0000
  F   F348      1.0  0.51300  0.58844  0.76689  1.0000
  F   F349      1.0  0.77086  0.09202  0.26223  1.0000
  F   F350      1.0  0.76779  0.08472  0.76923  1.0000
  F   F351      1.0  0.77204  0.58373  0.27281  1.0000
  F   F352      1.0  0.76714  0.59114  0.77076  1.0000
  F   F353      1.0  0.10363  0.40897  0.45782  1.0000
  F   F354      1.0  0.10468  0.42414  0.94621  1.0000
  F   F355      1.0  0.09820  0.91025  0.45556  1.0000
  F   F356      1.0  0.09587  0.88695  0.97416  1.0000
  F   F357      1.0  0.34609  0.40931  0.46488  1.0000
  F   F358      1.0  0.34292  0.41711  0.95854  1.0000
  F   F359      1.0  0.34744  0.92157  0.46061  1.0000
  F   F360      1.0  0.35083  0.89716  0.96328  1.0000
  F   F361      1.0  0.59951  0.39703  0.46576  1.0000
  F   F362      1.0  0.59457  0.40416  0.95998  1.0000
  F   F363      1.0  0.59660  0.89809  0.46129  1.0000
  F   F364      1.0  0.59898  0.90826  0.95794  1.0000
  F   F365      1.0  0.84941  0.41080  0.46103  1.0000
  F   F366      1.0  0.85376  0.41704  0.95639  1.0000
  F   F367      1.0  0.85461  0.91302  0.45683  1.0000
  F   F368      1.0  0.85076  0.91692  0.94013  1.0000
  F   F369      1.0  0.04844  0.29024  0.29073  1.0000
  F   F370      1.0  0.04228  0.30029  0.79145  1.0000
  F   F371      1.0  0.04230  0.79851  0.29798  1.0000
  F   F372      1.0  0.04631  0.80058  0.79254  1.0000
  F   F373      1.0  0.29748  0.28880  0.28460  1.0000
  F   F374      1.0  0.30045  0.29723  0.78890  1.0000
  F   F375      1.0  0.29842  0.79631  0.29595  1.0000
  F   F376      1.0  0.29564  0.79876  0.78972  1.0000
  F   F377      1.0  0.54538  0.30582  0.27419  1.0000
  F   F378      1.0  0.54002  0.30843  0.78455  1.0000
  F   F379      1.0  0.54533  0.79053  0.28886  1.0000
  F   F380      1.0  0.54093  0.79894  0.77559  1.0000
  F   F381      1.0  0.79559  0.28896  0.29432  1.0000
  F   F382      1.0  0.80103  0.29743  0.78090  1.0000
  F   F383      1.0  0.80078  0.79342  0.28240  1.0000
  F   F384      1.0  0.78723  0.79166  0.78912  1.0000
