data_image0
_chemical_formula_structural       Hf96F384
_chemical_formula_sum              "Hf96 F384"
_cell_length_a       31.009
_cell_length_b       15.5079
_cell_length_c       15.4997
_cell_angle_alpha    63.342
_cell_angle_beta     63.342
_cell_angle_gamma    80.1625

_space_group_name_H-M_alt    "P 1"
_space_group_IT_number       1

loop_
  _space_group_symop_operation_xyz
  'x, y, z'

loop_
  _atom_site_type_symbol
  _atom_site_label
  _atom_site_symmetry_multiplicity
  _atom_site_fract_x
  _atom_site_fract_y
  _atom_site_fract_z
  _atom_site_occupancy
  Hf  Hf1       1.0  0.19706  0.11034  0.37410  1.0000
  Hf  Hf2       1.0  0.19614  0.10805  0.87156  1.0000
  Hf  Hf3       1.0  0.19636  0.60897  0.38109  1.0000
  Hf  Hf4       1.0  0.19824  0.61206  0.87242  1.0000
  Hf  Hf5       1.0  0.44275  0.10226  0.37718  1.0000
  Hf  Hf6       1.0  0.44665  0.10682  0.86971  1.0000
  Hf  Hf7       1.0  0.44658  0.60682  0.37196  1.0000
  Hf  Hf8       1.0  0.44668  0.60459  0.88726  1.0000
  Hf  Hf9       1.0  0.69458  0.10279  0.37732  1.0000
  Hf  Hf10      1.0  0.69747  0.10142  0.88026  1.0000
  Hf  Hf11      1.0  0.69706  0.60889  0.37551  1.0000
  Hf  Hf12      1.0  0.69620  0.60253  0.87569  1.0000
  Hf  Hf13      1.0  0.94650  0.10574  0.37015  1.0000
  Hf  Hf14      1.0  0.94625  0.10286  0.88101  1.0000
  Hf  Hf15      1.0  0.95022  0.60956  0.36631  1.0000
  Hf  Hf16      1.0  0.94720  0.60986  0.87536  1.0000
  Hf  Hf17      1.0  0.05092  0.39002  0.13440  1.0000
  Hf  Hf18      1.0  0.04979  0.39430  0.63062  1.0000
  Hf  Hf19      1.0  0.05818  0.89798  0.11974  1.0000
  Hf  Hf20      1.0  0.05204  0.89712  0.62722  1.0000
  Hf  Hf21      1.0  0.30287  0.39854  0.11783  1.0000
  Hf  Hf22      1.0  0.30496  0.39617  0.62133  1.0000
  Hf  Hf23      1.0  0.30315  0.89953  0.12212  1.0000
  Hf  Hf24      1.0  0.30566  0.89896  0.62104  1.0000
  Hf  Hf25      1.0  0.55246  0.39240  0.12048  1.0000
  Hf  Hf26      1.0  0.55619  0.38840  0.61991  1.0000
  Hf  Hf27      1.0  0.55133  0.89136  0.12618  1.0000
  Hf  Hf28      1.0  0.55183  0.88121  0.63339  1.0000
  Hf  Hf29      1.0  0.80462  0.39882  0.12186  1.0000
  Hf  Hf30      1.0  0.79940  0.38982  0.63415  1.0000
  Hf  Hf31      1.0  0.80446  0.89121  0.12572  1.0000
  Hf  Hf32      1.0  0.80200  0.89554  0.62830  1.0000
  Hf  Hf33      1.0  0.05564  0.18192  0.41985  1.0000
  Hf  Hf34      1.0  0.05564  0.18658  0.91697  1.0000
  Hf  Hf35      1.0  0.05877  0.68579  0.40756  1.0000
  Hf  Hf36      1.0  0.05810  0.67621  0.91284  1.0000
  Hf  Hf37      1.0  0.30526  0.19010  0.41404  1.0000
  Hf  Hf38      1.0  0.30686  0.18654  0.91646  1.0000
  Hf  Hf39      1.0  0.30806  0.69156  0.40334  1.0000
  Hf  Hf40      1.0  0.31127  0.68682  0.90936  1.0000
  Hf  Hf41      1.0  0.55644  0.18568  0.41315  1.0000
  Hf  Hf42      1.0  0.55263  0.17595  0.92431  1.0000
  Hf  Hf43      1.0  0.55508  0.67285  0.42394  1.0000
  Hf  Hf44      1.0  0.55555  0.67586  0.91649  1.0000
  Hf  Hf45      1.0  0.80669  0.18596  0.41346  1.0000
  Hf  Hf46      1.0  0.80622  0.17450  0.92166  1.0000
  Hf  Hf47      1.0  0.80922  0.68593  0.41071  1.0000
  Hf  Hf48      1.0  0.80712  0.68145  0.91711  1.0000
  Hf  Hf49      1.0  0.15801  0.38825  0.33364  1.0000
  Hf  Hf50      1.0  0.16138  0.38817  0.82816  1.0000
  Hf  Hf51      1.0  0.15768  0.89783  0.33255  1.0000
  Hf  Hf52      1.0  0.16107  0.89610  0.82797  1.0000
  Hf  Hf53      1.0  0.40492  0.38908  0.33606  1.0000
  Hf  Hf54      1.0  0.40726  0.39507  0.82999  1.0000
  Hf  Hf55      1.0  0.40617  0.88671  0.33790  1.0000
  Hf  Hf56      1.0  0.41060  0.88248  0.83495  1.0000
  Hf  Hf57      1.0  0.65778  0.38750  0.33515  1.0000
  Hf  Hf58      1.0  0.65576  0.37997  0.84410  1.0000
  Hf  Hf59      1.0  0.65491  0.88257  0.34119  1.0000
  Hf  Hf60      1.0  0.65937  0.88258  0.83541  1.0000
  Hf  Hf61      1.0  0.90593  0.38558  0.33460  1.0000
  Hf  Hf62      1.0  0.90671  0.38779  0.83080  1.0000
  Hf  Hf63      1.0  0.91149  0.88362  0.33288  1.0000
  Hf  Hf64      1.0  0.90665  0.88379  0.83833  1.0000
  Hf  Hf65      1.0  0.19574  0.31908  0.08081  1.0000
  Hf  Hf66      1.0  0.19329  0.31714  0.59038  1.0000
  Hf  Hf67      1.0  0.19421  0.82058  0.08209  1.0000
  Hf  Hf68      1.0  0.19610  0.81891  0.58061  1.0000
  Hf  Hf69      1.0  0.44510  0.30958  0.08199  1.0000
  Hf  Hf70      1.0  0.44464  0.31811  0.58375  1.0000
  Hf  Hf71      1.0  0.44433  0.81648  0.08688  1.0000
  Hf  Hf72      1.0  0.44581  0.80868  0.58678  1.0000
  Hf  Hf73      1.0  0.69124  0.31422  0.09064  1.0000
  Hf  Hf74      1.0  0.69274  0.30593  0.58889  1.0000
  Hf  Hf75      1.0  0.69486  0.81998  0.07512  1.0000
  Hf  Hf76      1.0  0.69314  0.80988  0.58991  1.0000
  Hf  Hf77      1.0  0.94227  0.31918  0.08132  1.0000
  Hf  Hf78      1.0  0.94263  0.31929  0.58513  1.0000
  Hf  Hf79      1.0  0.94627  0.82050  0.08116  1.0000
  Hf  Hf80      1.0  0.94941  0.81335  0.58060  1.0000
  Hf  Hf81      1.0  0.09224  0.11540  0.16186  1.0000
  Hf  Hf82      1.0  0.09219  0.11697  0.65986  1.0000
  Hf  Hf83      1.0  0.09165  0.61316  0.16229  1.0000
  Hf  Hf84      1.0  0.09254  0.61219  0.66650  1.0000
  Hf  Hf85      1.0  0.34365  0.12025  0.16355  1.0000
  Hf  Hf86      1.0  0.34066  0.11204  0.66547  1.0000
  Hf  Hf87      1.0  0.34078  0.61262  0.16626  1.0000
  Hf  Hf88      1.0  0.34364  0.62117  0.65480  1.0000
  Hf  Hf89      1.0  0.59118  0.11017  0.17020  1.0000
  Hf  Hf90      1.0  0.58827  0.10474  0.67142  1.0000
  Hf  Hf91      1.0  0.58834  0.60874  0.17333  1.0000
  Hf  Hf92      1.0  0.59097  0.61066  0.66573  1.0000
  Hf  Hf93      1.0  0.84020  0.11070  0.17041  1.0000
  Hf  Hf94      1.0  0.84433  0.10325  0.66751  1.0000
  Hf  Hf95      1.0  0.84063  0.61005  0.17446  1.0000
  Hf  Hf96      1.0  0.84153  0.61242  0.66664  1.0000
  F   F1        1.0  0.08371  0.14557  0.29177  1.0000
  F   F2        1.0  0.08051  0.12700  0.81063  1.0000
  F   F3        1.0  0.08012  0.62515  0.30009  1.0000
  F   F4        1.0  0.07754  0.62689  0.80109  1.0000
  F   F5        1.0  0.32779  0.13656  0.30774  1.0000
  F   F6        1.0  0.33016  0.13681  0.79884  1.0000
  F   F7        1.0  0.33090  0.62398  0.30691  1.0000
  F   F8        1.0  0.33817  0.64427  0.78646  1.0000
  F   F9        1.0  0.57988  0.13497  0.29455  1.0000
  F   F10       1.0  0.58078  0.12937  0.80611  1.0000
  F   F11       1.0  0.57650  0.62719  0.30660  1.0000
  F   F12       1.0  0.57697  0.62753  0.80373  1.0000
  F   F13       1.0  0.82764  0.12418  0.30675  1.0000
  F   F14       1.0  0.83266  0.12774  0.80335  1.0000
  F   F15       1.0  0.82549  0.60340  0.31992  1.0000
  F   F16       1.0  0.82949  0.63954  0.79507  1.0000
  F   F17       1.0  0.18634  0.35947  0.44393  1.0000
  F   F18       1.0  0.18704  0.33973  0.94446  1.0000
  F   F19       1.0  0.19233  0.84794  0.43660  1.0000
  F   F20       1.0  0.18825  0.85452  0.93381  1.0000
  F   F21       1.0  0.43171  0.33228  0.44548  1.0000
  F   F22       1.0  0.43745  0.35496  0.94086  1.0000
  F   F23       1.0  0.43120  0.84286  0.45099  1.0000
  F   F24       1.0  0.43894  0.84170  0.94508  1.0000
  F   F25       1.0  0.69081  0.34671  0.43750  1.0000
  F   F26       1.0  0.68845  0.34322  0.94558  1.0000
  F   F27       1.0  0.67820  0.83884  0.46082  1.0000
  F   F28       1.0  0.68746  0.83620  0.94498  1.0000
  F   F29       1.0  0.93481  0.35306  0.43787  1.0000
  F   F30       1.0  0.93566  0.33965  0.94181  1.0000
  F   F31       1.0  0.93617  0.83442  0.44934  1.0000
  F   F32       1.0  0.93749  0.83678  0.94883  1.0000
  F   F33       1.0  0.16595  0.36631  0.20652  1.0000
  F   F34       1.0  0.16981  0.36705  0.70078  1.0000
  F   F35       1.0  0.17651  0.88602  0.18297  1.0000
  F   F36       1.0  0.17366  0.86734  0.69382  1.0000
  F   F37       1.0  0.41453  0.35459  0.20959  1.0000
  F   F38       1.0  0.42275  0.36603  0.69688  1.0000
  F   F39       1.0  0.42102  0.85886  0.20278  1.0000
  F   F40       1.0  0.42338  0.85675  0.70547  1.0000
  F   F41       1.0  0.66505  0.37254  0.20166  1.0000
  F   F42       1.0  0.67378  0.36890  0.69106  1.0000
  F   F43       1.0  0.67083  0.87549  0.19935  1.0000
  F   F44       1.0  0.67321  0.86424  0.70544  1.0000
  F   F45       1.0  0.92314  0.36140  0.19477  1.0000
  F   F46       1.0  0.92119  0.37601  0.69150  1.0000
  F   F47       1.0  0.92102  0.87275  0.19419  1.0000
  F   F48       1.0  0.92002  0.86032  0.70554  1.0000
  F   F49       1.0  0.05937  0.16636  0.05481  1.0000
  F   F50       1.0  0.05259  0.14693  0.56350  1.0000
  F   F51       1.0  0.07061  0.66730  0.04082  1.0000
  F   F52       1.0  0.07222  0.66550  0.53720  1.0000
  F   F53       1.0  0.31697  0.17860  0.04782  1.0000
  F   F54       1.0  0.30898  0.16170  0.54735  1.0000
  F   F55       1.0  0.30890  0.65112  0.06448  1.0000
  F   F56       1.0  0.32370  0.68036  0.53078  1.0000
  F   F57       1.0  0.57056  0.16586  0.04324  1.0000
  F   F58       1.0  0.56044  0.15848  0.55861  1.0000
  F   F59       1.0  0.56129  0.64096  0.05875  1.0000
  F   F60       1.0  0.55503  0.65045  0.56498  1.0000
  F   F61       1.0  0.81003  0.14820  0.06570  1.0000
  F   F62       1.0  0.81491  0.16304  0.55144  1.0000
  F   F63       1.0  0.81152  0.65514  0.06144  1.0000
  F   F64       1.0  0.81035  0.66648  0.55205  1.0000
  F   F65       1.0  0.20930  0.20925  0.21831  1.0000
  F   F66       1.0  0.20619  0.19662  0.70151  1.0000
  F   F67       1.0  0.20779  0.70459  0.20476  1.0000
  F   F68       1.0  0.20831  0.70203  0.70546  1.0000
  F   F69       1.0  0.45414  0.19388  0.21547  1.0000
  F   F70       1.0  0.46038  0.20068  0.70805  1.0000
  F   F71       1.0  0.45722  0.69797  0.20187  1.0000
  F   F72       1.0  0.45422  0.70285  0.71514  1.0000
  F   F73       1.0  0.69820  0.20175  0.21819  1.0000
  F   F74       1.0  0.70242  0.19942  0.71011  1.0000
  F   F75       1.0  0.70064  0.71541  0.20646  1.0000
  F   F76       1.0  0.70519  0.70487  0.71014  1.0000
  F   F77       1.0  0.96068  0.20319  0.20824  1.0000
  F   F78       1.0  0.95694  0.19238  0.70615  1.0000
  F   F79       1.0  0.96323  0.71705  0.19956  1.0000
  F   F80       1.0  0.96449  0.69739  0.71489  1.0000
  F   F81       1.0  0.14537  0.10677  0.03426  1.0000
  F   F82       1.0  0.15072  0.10940  0.53240  1.0000
  F   F83       1.0  0.14895  0.59019  0.04431  1.0000
  F   F84       1.0  0.15079  0.59014  0.53819  1.0000
  F   F85       1.0  0.40161  0.11312  0.02796  1.0000
  F   F86       1.0  0.39454  0.08596  0.54504  1.0000
  F   F87       1.0  0.39612  0.59361  0.04260  1.0000
  F   F88       1.0  0.39747  0.59419  0.53231  1.0000
  F   F89       1.0  0.64899  0.07642  0.05251  1.0000
  F   F90       1.0  0.64925  0.08988  0.53164  1.0000
  F   F91       1.0  0.64655  0.59967  0.04353  1.0000
  F   F92       1.0  0.64698  0.61143  0.53671  1.0000
  F   F93       1.0  0.89749  0.10275  0.04396  1.0000
  F   F94       1.0  0.90321  0.08609  0.54123  1.0000
  F   F95       1.0  0.89464  0.59353  0.05077  1.0000
  F   F96       1.0  0.89776  0.59688  0.53106  1.0000
  F   F97       1.0  0.15609  0.19743  0.12113  1.0000
  F   F98       1.0  0.15218  0.20062  0.62934  1.0000
  F   F99       1.0  0.15003  0.71201  0.11797  1.0000
  F   F100      1.0  0.15669  0.70340  0.60922  1.0000
  F   F101      1.0  0.40375  0.18863  0.13923  1.0000
  F   F102      1.0  0.40940  0.18598  0.62628  1.0000
  F   F103      1.0  0.39999  0.69875  0.12913  1.0000
  F   F104      1.0  0.40333  0.70127  0.61443  1.0000
  F   F105      1.0  0.64977  0.19334  0.12084  1.0000
  F   F106      1.0  0.64431  0.20923  0.60544  1.0000
  F   F107      1.0  0.64810  0.68680  0.14295  1.0000
  F   F108      1.0  0.65170  0.69016  0.63836  1.0000
  F   F109      1.0  0.89704  0.19918  0.14285  1.0000
  F   F110      1.0  0.90378  0.20773  0.61250  1.0000
  F   F111      1.0  0.90325  0.69197  0.13192  1.0000
  F   F112      1.0  0.90278  0.69141  0.63480  1.0000
  F   F113      1.0  0.09988  0.29566  0.37977  1.0000
  F   F114      1.0  0.09566  0.30621  0.87273  1.0000
  F   F115      1.0  0.09664  0.81609  0.36896  1.0000
  F   F116      1.0  0.09875  0.80951  0.85917  1.0000
  F   F117      1.0  0.34157  0.30728  0.38306  1.0000
  F   F118      1.0  0.34702  0.31217  0.86801  1.0000
  F   F119      1.0  0.34758  0.82019  0.36443  1.0000
  F   F120      1.0  0.35365  0.79463  0.89418  1.0000
  F   F121      1.0  0.59539  0.30299  0.38851  1.0000
  F   F122      1.0  0.60228  0.30277  0.87014  1.0000
  F   F123      1.0  0.59752  0.79549  0.38669  1.0000
  F   F124      1.0  0.59936  0.78875  0.87263  1.0000
  F   F125      1.0  0.84602  0.30992  0.35855  1.0000
  F   F126      1.0  0.85269  0.30026  0.86280  1.0000
  F   F127      1.0  0.85124  0.79775  0.37162  1.0000
  F   F128      1.0  0.84357  0.80801  0.87974  1.0000
  F   F129      1.0  0.06871  0.25711  0.13652  1.0000
  F   F130      1.0  0.06222  0.24918  0.64950  1.0000
  F   F131      1.0  0.06688  0.75814  0.13479  1.0000
  F   F132      1.0  0.06681  0.75624  0.64522  1.0000
  F   F133      1.0  0.31320  0.25550  0.15201  1.0000
  F   F134      1.0  0.32170  0.25678  0.62711  1.0000
  F   F135      1.0  0.31663  0.75494  0.13360  1.0000
  F   F136      1.0  0.31233  0.75486  0.64309  1.0000
  F   F137      1.0  0.55568  0.24840  0.14501  1.0000
  F   F138      1.0  0.55055  0.24029  0.66276  1.0000
  F   F139      1.0  0.54830  0.74683  0.15222  1.0000
  F   F140      1.0  0.57074  0.74978  0.62896  1.0000
  F   F141      1.0  0.81466  0.25627  0.13808  1.0000
  F   F142      1.0  0.81425  0.25169  0.64407  1.0000
  F   F143      1.0  0.81590  0.75063  0.14813  1.0000
  F   F144      1.0  0.80588  0.75343  0.64103  1.0000
  F   F145      1.0  0.12198  0.37346  0.10688  1.0000
  F   F146      1.0  0.12256  0.36420  0.61246  1.0000
  F   F147      1.0  0.12715  0.89582  0.10054  1.0000
  F   F148      1.0  0.12613  0.86550  0.61146  1.0000
  F   F149      1.0  0.37196  0.36180  0.11288  1.0000
  F   F150      1.0  0.37481  0.38067  0.61359  1.0000
  F   F151      1.0  0.36865  0.86089  0.12339  1.0000
  F   F152      1.0  0.37581  0.86085  0.61145  1.0000
  F   F153      1.0  0.62215  0.36790  0.09875  1.0000
  F   F154      1.0  0.61848  0.36251  0.62523  1.0000
  F   F155      1.0  0.62232  0.86330  0.11221  1.0000
  F   F156      1.0  0.62208  0.85767  0.62275  1.0000
  F   F157      1.0  0.87488  0.38658  0.09637  1.0000
  F   F158      1.0  0.87022  0.37285  0.60853  1.0000
  F   F159      1.0  0.87839  0.86774  0.10429  1.0000
  F   F160      1.0  0.87388  0.86420  0.61081  1.0000
  F   F161      1.0  0.18464  0.25819  0.36337  1.0000
  F   F162      1.0  0.18526  0.25165  0.85432  1.0000
  F   F163      1.0  0.18493  0.75674  0.35949  1.0000
  F   F164      1.0  0.17879  0.74593  0.86508  1.0000
  F   F165      1.0  0.42067  0.23517  0.37687  1.0000
  F   F166      1.0  0.42959  0.25083  0.86879  1.0000
  F   F167      1.0  0.44243  0.74628  0.35219  1.0000
  F   F168      1.0  0.44009  0.74671  0.86036  1.0000
  F   F169      1.0  0.69055  0.25228  0.36009  1.0000
  F   F170      1.0  0.68671  0.23609  0.86477  1.0000
  F   F171      1.0  0.69120  0.75912  0.34716  1.0000
  F   F172      1.0  0.68689  0.74437  0.86659  1.0000
  F   F173      1.0  0.92736  0.25004  0.36159  1.0000
  F   F174      1.0  0.93913  0.24775  0.85249  1.0000
  F   F175      1.0  0.93619  0.74939  0.35034  1.0000
  F   F176      1.0  0.93035  0.75241  0.86307  1.0000
  F   F177      1.0  0.12410  0.13061  0.39692  1.0000
  F   F178      1.0  0.12803  0.13386  0.88708  1.0000
  F   F179      1.0  0.13161  0.63846  0.37280  1.0000
  F   F180      1.0  0.12547  0.62094  0.88850  1.0000
  F   F181      1.0  0.37535  0.12770  0.39105  1.0000
  F   F182      1.0  0.37052  0.12615  0.90660  1.0000
  F   F183      1.0  0.37912  0.65635  0.36820  1.0000
  F   F184      1.0  0.37668  0.63257  0.89844  1.0000
  F   F185      1.0  0.62622  0.14342  0.38679  1.0000
  F   F186      1.0  0.62490  0.12157  0.89687  1.0000
  F   F187      1.0  0.62551  0.63250  0.39436  1.0000
  F   F188      1.0  0.62850  0.61836  0.90091  1.0000
  F   F189      1.0  0.87405  0.12807  0.39619  1.0000
  F   F190      1.0  0.87568  0.11707  0.90723  1.0000
  F   F191      1.0  0.87746  0.64442  0.37467  1.0000
  F   F192      1.0  0.87484  0.63777  0.89350  1.0000
  F   F193      1.0  0.00810  0.36392  0.07238  1.0000
  F   F194      1.0  0.00600  0.36237  0.58210  1.0000
  F   F195      1.0  0.00842  0.86895  0.07650  1.0000
  F   F196      1.0  0.01131  0.86169  0.56111  1.0000
  F   F197      1.0  0.25919  0.37520  0.05889  1.0000
  F   F198      1.0  0.25853  0.36162  0.57584  1.0000
  F   F199      1.0  0.26110  0.87032  0.06716  1.0000
  F   F200      1.0  0.25923  0.86017  0.57100  1.0000
  F   F201      1.0  0.50742  0.36430  0.05659  1.0000
  F   F202      1.0  0.50876  0.36913  0.54803  1.0000
  F   F203      1.0  0.50829  0.87291  0.05917  1.0000
  F   F204      1.0  0.51138  0.84921  0.57246  1.0000
  F   F205      1.0  0.75324  0.35851  0.08033  1.0000
  F   F206      1.0  0.75583  0.36193  0.56542  1.0000
  F   F207      1.0  0.75853  0.86710  0.06546  1.0000
  F   F208      1.0  0.75924  0.87248  0.56925  1.0000
  F   F209      1.0  0.06484  0.49362  0.18369  1.0000
  F   F210      1.0  0.06699  0.48818  0.67798  1.0000
  F   F211      1.0  0.06577  0.98846  0.18456  1.0000
  F   F212      1.0  0.06796  0.98866  0.67220  1.0000
  F   F213      1.0  0.32550  0.48480  0.16247  1.0000
  F   F214      1.0  0.31523  0.49721  0.67620  1.0000
  F   F215      1.0  0.31725  0.99496  0.16611  1.0000
  F   F216      1.0  0.31186  0.99112  0.68402  1.0000
  F   F217      1.0  0.56629  0.47190  0.17874  1.0000
  F   F218      1.0  0.56607  0.47801  0.67978  1.0000
  F   F219      1.0  0.57056  0.98049  0.17326  1.0000
  F   F220      1.0  0.56798  0.97441  0.68638  1.0000
  F   F221      1.0  0.81484  0.48106  0.20107  1.0000
  F   F222      1.0  0.81656  0.49032  0.68148  1.0000
  F   F223      1.0  0.81800  0.98417  0.18214  1.0000
  F   F224      1.0  0.82223  0.98598  0.67551  1.0000
  F   F225      1.0  0.23863  0.15185  0.41999  1.0000
  F   F226      1.0  0.24299  0.15246  0.91550  1.0000
  F   F227      1.0  0.24317  0.64490  0.42720  1.0000
  F   F228      1.0  0.24485  0.64867  0.92343  1.0000
  F   F229      1.0  0.49763  0.12771  0.41895  1.0000
  F   F230      1.0  0.49358  0.11731  0.92319  1.0000
  F   F231      1.0  0.48955  0.63186  0.43153  1.0000
  F   F232      1.0  0.48990  0.63089  0.94057  1.0000
  F   F233      1.0  0.74385  0.12832  0.43504  1.0000
  F   F234      1.0  0.74502  0.12240  0.92795  1.0000
  F   F235      1.0  0.74148  0.64532  0.43103  1.0000
  F   F236      1.0  0.74228  0.63076  0.92929  1.0000
  F   F237      1.0  0.99481  0.14709  0.41490  1.0000
  F   F238      1.0  0.98724  0.12758  0.95152  1.0000
  F   F239      1.0  0.99036  0.64676  0.42398  1.0000
  F   F240      1.0  0.99157  0.63433  0.93804  1.0000
  F   F241      1.0  0.18137  0.03438  0.30788  1.0000
  F   F242      1.0  0.17762  0.01718  0.82149  1.0000
  F   F243      1.0  0.18197  0.52430  0.32145  1.0000
  F   F244      1.0  0.19324  0.51710  0.80958  1.0000
  F   F245      1.0  0.42943  0.02131  0.31764  1.0000
  F   F246      1.0  0.43167  0.02231  0.81746  1.0000
  F   F247      1.0  0.42565  0.51952  0.32440  1.0000
  F   F248      1.0  0.43591  0.52196  0.81944  1.0000
  F   F249      1.0  0.67509  0.01339  0.32236  1.0000
  F   F250      1.0  0.67867  0.00062  0.83904  1.0000
  F   F251      1.0  0.68144  0.51310  0.31535  1.0000
  F   F252      1.0  0.67976  0.51266  0.82064  1.0000
  F   F253      1.0  0.93660  0.01858  0.31664  1.0000
  F   F254      1.0  0.93053  0.01009  0.82304  1.0000
  F   F255      1.0  0.92792  0.52912  0.31828  1.0000
  F   F256      1.0  0.93060  0.52010  0.82810  1.0000
  F   F257      1.0  0.99629  0.24580  0.00707  1.0000
  F   F258      1.0  0.00100  0.25867  0.48812  1.0000
  F   F259      1.0  0.00488  0.74852  0.00290  1.0000
  F   F260      1.0  0.00281  0.74166  0.50243  1.0000
  F   F261      1.0  0.25062  0.26618  0.99226  1.0000
  F   F262      1.0  0.24375  0.25002  0.50570  1.0000
  F   F263      1.0  0.25368  0.76498  0.98867  1.0000
  F   F264      1.0  0.25457  0.76211  0.48813  1.0000
  F   F265      1.0  0.49452  0.21960  0.01878  1.0000
  F   F266      1.0  0.49675  0.24297  0.49955  1.0000
  F   F267      1.0  0.50731  0.75162  0.99062  1.0000
  F   F268      1.0  0.50144  0.75353  0.49355  1.0000
  F   F269      1.0  0.75265  0.25119  0.99810  1.0000
  F   F270      1.0  0.74724  0.23504  0.51033  1.0000
  F   F271      1.0  0.75147  0.74927  0.00010  1.0000
  F   F272      1.0  0.75244  0.77190  0.47713  1.0000
  F   F273      1.0  0.12631  0.00591  0.24636  1.0000
  F   F274      1.0  0.12714  0.00630  0.73818  1.0000
  F   F275      1.0  0.13233  0.50550  0.23871  1.0000
  F   F276      1.0  0.13222  0.51256  0.73412  1.0000
  F   F277      1.0  0.37882  0.00040  0.23408  1.0000
  F   F278      1.0  0.37496  0.98880  0.74954  1.0000
  F   F279      1.0  0.36379  0.49230  0.26605  1.0000
  F   F280      1.0  0.38585  0.50842  0.73459  1.0000
  F   F281      1.0  0.61631  0.98577  0.26834  1.0000
  F   F282      1.0  0.63207  0.01245  0.74045  1.0000
  F   F283      1.0  0.61584  0.49843  0.25956  1.0000
  F   F284      1.0  0.62791  0.50006  0.74431  1.0000
  F   F285      1.0  0.88034  0.99598  0.24369  1.0000
  F   F286      1.0  0.87206  0.99824  0.74798  1.0000
  F   F287      1.0  0.88404  0.50925  0.23605  1.0000
  F   F288      1.0  0.87593  0.50553  0.74726  1.0000
  F   F289      1.0  0.04994  0.03287  0.02069  1.0000
  F   F290      1.0  0.03639  0.02778  0.52702  1.0000
  F   F291      1.0  0.05156  0.52433  0.01599  1.0000
  F   F292      1.0  0.04466  0.53217  0.51543  1.0000
  F   F293      1.0  0.28317  0.04736  0.02051  1.0000
  F   F294      1.0  0.29339  0.02630  0.52142  1.0000
  F   F295      1.0  0.30347  0.52890  0.00065  1.0000
  F   F296      1.0  0.29592  0.53070  0.52675  1.0000
  F   F297      1.0  0.53763  0.03127  0.03377  1.0000
  F   F298      1.0  0.54899  0.03180  0.51479  1.0000
  F   F299      1.0  0.54657  0.52121  0.01400  1.0000
  F   F300      1.0  0.54565  0.51978  0.51540  1.0000
  F   F301      1.0  0.79102  0.02801  0.02661  1.0000
  F   F302      1.0  0.79119  0.03038  0.52804  1.0000
  F   F303      1.0  0.79450  0.53068  0.01526  1.0000
  F   F304      1.0  0.79387  0.52096  0.53345  1.0000
  F   F305      1.0  0.23187  0.41680  0.21706  1.0000
  F   F306      1.0  0.23432  0.41603  0.71863  1.0000
  F   F307      1.0  0.23275  0.93089  0.22089  1.0000
  F   F308      1.0  0.23596  0.90651  0.72804  1.0000
  F   F309      1.0  0.48547  0.38216  0.23952  1.0000
  F   F310      1.0  0.48825  0.39731  0.72726  1.0000
  F   F311      1.0  0.48358  0.90435  0.24201  1.0000
  F   F312      1.0  0.48595  0.91524  0.72299  1.0000
  F   F313      1.0  0.73748  0.41993  0.21364  1.0000
  F   F314      1.0  0.73485  0.41283  0.72636  1.0000
  F   F315      1.0  0.73738  0.91284  0.22318  1.0000
  F   F316      1.0  0.73623  0.92591  0.72686  1.0000
  F   F317      1.0  0.97929  0.42252  0.22710  1.0000
  F   F318      1.0  0.97854  0.42477  0.72027  1.0000
  F   F319      1.0  0.98850  0.91654  0.22339  1.0000
  F   F320      1.0  0.98272  0.91651  0.72665  1.0000
  F   F321      1.0  0.20457  0.47020  0.48894  1.0000
  F   F322      1.0  0.19905  0.47157  0.98182  1.0000
  F   F323      1.0  0.20734  0.97979  0.47641  1.0000
  F   F324      1.0  0.20786  0.97465  0.97096  1.0000
  F   F325      1.0  0.44949  0.46814  0.47707  1.0000
  F   F326      1.0  0.45001  0.47099  0.99420  1.0000
  F   F327      1.0  0.45503  0.96181  0.48367  1.0000
  F   F328      1.0  0.44442  0.97347  0.98900  1.0000
  F   F329      1.0  0.69887  0.47887  0.48454  1.0000
  F   F330      1.0  0.70512  0.46751  0.98608  1.0000
  F   F331      1.0  0.69539  0.96276  0.48935  1.0000
  F   F332      1.0  0.70552  0.97183  0.97831  1.0000
  F   F333      1.0  0.95787  0.47221  0.47918  1.0000
  F   F334      1.0  0.95675  0.47520  0.98272  1.0000
  F   F335      1.0  0.95875  0.96908  0.46790  1.0000
  F   F336      1.0  0.95681  0.96900  0.98011  1.0000
  F   F337      1.0  0.01906  0.08487  0.27828  1.0000
  F   F338      1.0  0.01565  0.07914  0.78006  1.0000
  F   F339      1.0  0.01493  0.58255  0.27156  1.0000
  F   F340      1.0  0.01569  0.58103  0.78367  1.0000
  F   F341      1.0  0.27105  0.08584  0.27048  1.0000
  F   F342      1.0  0.26110  0.09571  0.76514  1.0000
  F   F343      1.0  0.26742  0.57738  0.28577  1.0000
  F   F344      1.0  0.26845  0.59361  0.76398  1.0000
  F   F345      1.0  0.51379  0.07006  0.27809  1.0000
  F   F346      1.0  0.51552  0.06985  0.78616  1.0000
  F   F347      1.0  0.51585  0.56925  0.28582  1.0000
  F   F348      1.0  0.51488  0.58550  0.77715  1.0000
  F   F349      1.0  0.76307  0.08234  0.27926  1.0000
  F   F350      1.0  0.76639  0.07511  0.77447  1.0000
  F   F351      1.0  0.76002  0.59330  0.27331  1.0000
  F   F352      1.0  0.76343  0.59489  0.76017  1.0000
  F   F353      1.0  0.10000  0.41281  0.46843  1.0000
  F   F354      1.0  0.10287  0.41037  0.95140  1.0000
  F   F355      1.0  0.10452  0.92902  0.46320  1.0000
  F   F356      1.0  0.09976  0.90710  0.95266  1.0000
  F   F357      1.0  0.35379  0.41895  0.45740  1.0000
  F   F358      1.0  0.35418  0.41036  0.95332  1.0000
  F   F359      1.0  0.35679  0.91525  0.45401  1.0000
  F   F360      1.0  0.35575  0.92495  0.95550  1.0000
  F   F361      1.0  0.60426  0.41126  0.46076  1.0000
  F   F362      1.0  0.59710  0.39995  0.96908  1.0000
  F   F363      1.0  0.60126  0.91083  0.46208  1.0000
  F   F364      1.0  0.60040  0.90179  0.95982  1.0000
  F   F365      1.0  0.85277  0.40692  0.45822  1.0000
  F   F366      1.0  0.85033  0.41050  0.94913  1.0000
  F   F367      1.0  0.85138  0.90982  0.44839  1.0000
  F   F368      1.0  0.85256  0.91109  0.95920  1.0000
  F   F369      1.0  0.04445  0.30507  0.28634  1.0000
  F   F370      1.0  0.03524  0.29712  0.79687  1.0000
  F   F371      1.0  0.04956  0.79319  0.28709  1.0000
  F   F372      1.0  0.04052  0.79756  0.79533  1.0000
  F   F373      1.0  0.29269  0.30353  0.29841  1.0000
  F   F374      1.0  0.29637  0.30768  0.77980  1.0000
  F   F375      1.0  0.28756  0.80184  0.27795  1.0000
  F   F376      1.0  0.29986  0.80393  0.78832  1.0000
  F   F377      1.0  0.55079  0.29371  0.28752  1.0000
  F   F378      1.0  0.53945  0.29532  0.82330  1.0000
  F   F379      1.0  0.54943  0.78783  0.29394  1.0000
  F   F380      1.0  0.54125  0.78286  0.78881  1.0000
  F   F381      1.0  0.78974  0.28649  0.29091  1.0000
  F   F382      1.0  0.78909  0.28664  0.80169  1.0000
  F   F383      1.0  0.79962  0.79338  0.28223  1.0000
  F   F384      1.0  0.79561  0.79730  0.78619  1.0000
