data_image0
_chemical_formula_structural       Hf96F384
_chemical_formula_sum              "Hf96 F384"
_cell_length_a       31.0104
_cell_length_b       15.5065
_cell_length_c       15.4982
_cell_angle_alpha    63.342
_cell_angle_beta     63.342
_cell_angle_gamma    80.1625

_space_group_name_H-M_alt    "P 1"
_space_group_IT_number       1

loop_
  _space_group_symop_operation_xyz
  'x, y, z'

loop_
  _atom_site_type_symbol
  _atom_site_label
  _atom_site_symmetry_multiplicity
  _atom_site_fract_x
  _atom_site_fract_y
  _atom_site_fract_z
  _atom_site_occupancy
  Hf  Hf1       1.0  0.19320  0.10454  0.38089  1.0000
  Hf  Hf2       1.0  0.19630  0.10090  0.88390  1.0000
  Hf  Hf3       1.0  0.19498  0.60350  0.37809  1.0000
  Hf  Hf4       1.0  0.20064  0.59970  0.87642  1.0000
  Hf  Hf5       1.0  0.44734  0.10735  0.36918  1.0000
  Hf  Hf6       1.0  0.44863  0.10551  0.87416  1.0000
  Hf  Hf7       1.0  0.45402  0.60637  0.35728  1.0000
  Hf  Hf8       1.0  0.44642  0.61145  0.87780  1.0000
  Hf  Hf9       1.0  0.69738  0.11496  0.36909  1.0000
  Hf  Hf10      1.0  0.70113  0.11492  0.86971  1.0000
  Hf  Hf11      1.0  0.69358  0.60952  0.37287  1.0000
  Hf  Hf12      1.0  0.69484  0.61247  0.87370  1.0000
  Hf  Hf13      1.0  0.94588  0.10332  0.38259  1.0000
  Hf  Hf14      1.0  0.94323  0.11085  0.88108  1.0000
  Hf  Hf15      1.0  0.94848  0.60526  0.37124  1.0000
  Hf  Hf16      1.0  0.94757  0.60444  0.88133  1.0000
  Hf  Hf17      1.0  0.05093  0.39193  0.12838  1.0000
  Hf  Hf18      1.0  0.05271  0.39492  0.62782  1.0000
  Hf  Hf19      1.0  0.05530  0.89063  0.11832  1.0000
  Hf  Hf20      1.0  0.05457  0.88893  0.62480  1.0000
  Hf  Hf21      1.0  0.30373  0.39505  0.12351  1.0000
  Hf  Hf22      1.0  0.30194  0.39232  0.62589  1.0000
  Hf  Hf23      1.0  0.30078  0.89071  0.12897  1.0000
  Hf  Hf24      1.0  0.30861  0.88690  0.61444  1.0000
  Hf  Hf25      1.0  0.55184  0.39334  0.12775  1.0000
  Hf  Hf26      1.0  0.55017  0.39628  0.62774  1.0000
  Hf  Hf27      1.0  0.55478  0.89699  0.12394  1.0000
  Hf  Hf28      1.0  0.55407  0.89513  0.62128  1.0000
  Hf  Hf29      1.0  0.80277  0.39091  0.12881  1.0000
  Hf  Hf30      1.0  0.80083  0.39062  0.63085  1.0000
  Hf  Hf31      1.0  0.80726  0.88982  0.11456  1.0000
  Hf  Hf32      1.0  0.80065  0.88749  0.62919  1.0000
  Hf  Hf33      1.0  0.05425  0.18054  0.42103  1.0000
  Hf  Hf34      1.0  0.05390  0.18117  0.92303  1.0000
  Hf  Hf35      1.0  0.05785  0.67952  0.41273  1.0000
  Hf  Hf36      1.0  0.05839  0.68539  0.91519  1.0000
  Hf  Hf37      1.0  0.30547  0.18562  0.41363  1.0000
  Hf  Hf38      1.0  0.30707  0.18232  0.91606  1.0000
  Hf  Hf39      1.0  0.30887  0.68351  0.41607  1.0000
  Hf  Hf40      1.0  0.30586  0.68119  0.92004  1.0000
  Hf  Hf41      1.0  0.55445  0.18771  0.41402  1.0000
  Hf  Hf42      1.0  0.55886  0.18729  0.91108  1.0000
  Hf  Hf43      1.0  0.55617  0.68893  0.41417  1.0000
  Hf  Hf44      1.0  0.55769  0.68494  0.90997  1.0000
  Hf  Hf45      1.0  0.80290  0.18044  0.42353  1.0000
  Hf  Hf46      1.0  0.80620  0.18612  0.91879  1.0000
  Hf  Hf47      1.0  0.80649  0.68424  0.41297  1.0000
  Hf  Hf48      1.0  0.80604  0.68409  0.91957  1.0000
  Hf  Hf49      1.0  0.15574  0.38218  0.33612  1.0000
  Hf  Hf50      1.0  0.15867  0.38193  0.83763  1.0000
  Hf  Hf51      1.0  0.15539  0.88801  0.33571  1.0000
  Hf  Hf52      1.0  0.16381  0.89066  0.82286  1.0000
  Hf  Hf53      1.0  0.40617  0.38756  0.33324  1.0000
  Hf  Hf54      1.0  0.41071  0.38632  0.83461  1.0000
  Hf  Hf55      1.0  0.41238  0.89051  0.32417  1.0000
  Hf  Hf56      1.0  0.40818  0.88912  0.83405  1.0000
  Hf  Hf57      1.0  0.65855  0.39315  0.33024  1.0000
  Hf  Hf58      1.0  0.65830  0.39374  0.83129  1.0000
  Hf  Hf59      1.0  0.66207  0.89232  0.32120  1.0000
  Hf  Hf60      1.0  0.65690  0.89742  0.83352  1.0000
  Hf  Hf61      1.0  0.90635  0.38458  0.34297  1.0000
  Hf  Hf62      1.0  0.91031  0.38837  0.83335  1.0000
  Hf  Hf63      1.0  0.90678  0.88730  0.33730  1.0000
  Hf  Hf64      1.0  0.90965  0.88740  0.82968  1.0000
  Hf  Hf65      1.0  0.19326  0.30923  0.09594  1.0000
  Hf  Hf66      1.0  0.19374  0.31304  0.59205  1.0000
  Hf  Hf67      1.0  0.19350  0.81677  0.08287  1.0000
  Hf  Hf68      1.0  0.19433  0.81771  0.58095  1.0000
  Hf  Hf69      1.0  0.44411  0.31138  0.09047  1.0000
  Hf  Hf70      1.0  0.43835  0.31639  0.58640  1.0000
  Hf  Hf71      1.0  0.44508  0.81644  0.07847  1.0000
  Hf  Hf72      1.0  0.44513  0.81475  0.58143  1.0000
  Hf  Hf73      1.0  0.69613  0.31656  0.08069  1.0000
  Hf  Hf74      1.0  0.69484  0.32131  0.57619  1.0000
  Hf  Hf75      1.0  0.69375  0.81713  0.08164  1.0000
  Hf  Hf76      1.0  0.69528  0.82748  0.57733  1.0000
  Hf  Hf77      1.0  0.94208  0.31789  0.08795  1.0000
  Hf  Hf78      1.0  0.94015  0.31746  0.59269  1.0000
  Hf  Hf79      1.0  0.94427  0.80807  0.08705  1.0000
  Hf  Hf80      1.0  0.94184  0.81232  0.58689  1.0000
  Hf  Hf81      1.0  0.08844  0.10908  0.17054  1.0000
  Hf  Hf82      1.0  0.08991  0.11286  0.66912  1.0000
  Hf  Hf83      1.0  0.08955  0.60738  0.17287  1.0000
  Hf  Hf84      1.0  0.09092  0.61167  0.66565  1.0000
  Hf  Hf85      1.0  0.33836  0.10929  0.16797  1.0000
  Hf  Hf86      1.0  0.34094  0.11170  0.66376  1.0000
  Hf  Hf87      1.0  0.33766  0.61255  0.17159  1.0000
  Hf  Hf88      1.0  0.34609  0.61288  0.66227  1.0000
  Hf  Hf89      1.0  0.59211  0.11416  0.16801  1.0000
  Hf  Hf90      1.0  0.59024  0.11887  0.66577  1.0000
  Hf  Hf91      1.0  0.59522  0.61608  0.16348  1.0000
  Hf  Hf92      1.0  0.59308  0.61613  0.66856  1.0000
  Hf  Hf93      1.0  0.84033  0.10881  0.16942  1.0000
  Hf  Hf94      1.0  0.84315  0.10997  0.66317  1.0000
  Hf  Hf95      1.0  0.83949  0.60774  0.17021  1.0000
  Hf  Hf96      1.0  0.84077  0.60583  0.66821  1.0000
  F   F1        1.0  0.08334  0.13781  0.29588  1.0000
  F   F2        1.0  0.07546  0.11429  0.81705  1.0000
  F   F3        1.0  0.07310  0.62022  0.31040  1.0000
  F   F4        1.0  0.08903  0.64021  0.79581  1.0000
  F   F5        1.0  0.32886  0.11219  0.30607  1.0000
  F   F6        1.0  0.33141  0.12297  0.80951  1.0000
  F   F7        1.0  0.33247  0.62833  0.30453  1.0000
  F   F8        1.0  0.33139  0.62758  0.79917  1.0000
  F   F9        1.0  0.58137  0.13950  0.29754  1.0000
  F   F10       1.0  0.58169  0.13529  0.80333  1.0000
  F   F11       1.0  0.58817  0.65018  0.29111  1.0000
  F   F12       1.0  0.57901  0.62644  0.80740  1.0000
  F   F13       1.0  0.83080  0.13580  0.30382  1.0000
  F   F14       1.0  0.83050  0.14311  0.80085  1.0000
  F   F15       1.0  0.82550  0.62359  0.31332  1.0000
  F   F16       1.0  0.83268  0.64492  0.79319  1.0000
  F   F17       1.0  0.18110  0.32774  0.44859  1.0000
  F   F18       1.0  0.18413  0.33450  0.95156  1.0000
  F   F19       1.0  0.18516  0.84133  0.43722  1.0000
  F   F20       1.0  0.18122  0.84163  0.94889  1.0000
  F   F21       1.0  0.42698  0.31849  0.45591  1.0000
  F   F22       1.0  0.43100  0.33601  0.95448  1.0000
  F   F23       1.0  0.43761  0.84523  0.44103  1.0000
  F   F24       1.0  0.43927  0.83787  0.94592  1.0000
  F   F25       1.0  0.69278  0.35834  0.43465  1.0000
  F   F26       1.0  0.68318  0.34186  0.94399  1.0000
  F   F27       1.0  0.69186  0.84565  0.43795  1.0000
  F   F28       1.0  0.68764  0.84952  0.94013  1.0000
  F   F29       1.0  0.93752  0.34893  0.44102  1.0000
  F   F30       1.0  0.93445  0.34667  0.94938  1.0000
  F   F31       1.0  0.93470  0.84078  0.44908  1.0000
  F   F32       1.0  0.93666  0.84653  0.94853  1.0000
  F   F33       1.0  0.16781  0.37590  0.19886  1.0000
  F   F34       1.0  0.17202  0.35026  0.71151  1.0000
  F   F35       1.0  0.16457  0.86606  0.20350  1.0000
  F   F36       1.0  0.17256  0.87741  0.68339  1.0000
  F   F37       1.0  0.42128  0.35877  0.20683  1.0000
  F   F38       1.0  0.41929  0.36691  0.69998  1.0000
  F   F39       1.0  0.42078  0.86153  0.20041  1.0000
  F   F40       1.0  0.42135  0.87925  0.68846  1.0000
  F   F41       1.0  0.67378  0.36584  0.19470  1.0000
  F   F42       1.0  0.66721  0.37333  0.69465  1.0000
  F   F43       1.0  0.67962  0.88467  0.18386  1.0000
  F   F44       1.0  0.67620  0.88298  0.69078  1.0000
  F   F45       1.0  0.92012  0.36689  0.20540  1.0000
  F   F46       1.0  0.92401  0.38273  0.68991  1.0000
  F   F47       1.0  0.91934  0.86346  0.20133  1.0000
  F   F48       1.0  0.92274  0.89187  0.68113  1.0000
  F   F49       1.0  0.05828  0.15160  0.05977  1.0000
  F   F50       1.0  0.06602  0.15403  0.55635  1.0000
  F   F51       1.0  0.07235  0.66215  0.04781  1.0000
  F   F52       1.0  0.06800  0.65590  0.54539  1.0000
  F   F53       1.0  0.31442  0.15360  0.05071  1.0000
  F   F54       1.0  0.30920  0.14764  0.56251  1.0000
  F   F55       1.0  0.31011  0.66205  0.06090  1.0000
  F   F56       1.0  0.31064  0.65145  0.56036  1.0000
  F   F57       1.0  0.56461  0.16565  0.04913  1.0000
  F   F58       1.0  0.55937  0.16327  0.55121  1.0000
  F   F59       1.0  0.56573  0.66441  0.05268  1.0000
  F   F60       1.0  0.56463  0.65469  0.55434  1.0000
  F   F61       1.0  0.80842  0.15271  0.06354  1.0000
  F   F62       1.0  0.82037  0.16084  0.55050  1.0000
  F   F63       1.0  0.81514  0.66151  0.05585  1.0000
  F   F64       1.0  0.81846  0.65514  0.54658  1.0000
  F   F65       1.0  0.19177  0.18956  0.22311  1.0000
  F   F66       1.0  0.20554  0.19934  0.71824  1.0000
  F   F67       1.0  0.20669  0.69995  0.20560  1.0000
  F   F68       1.0  0.19571  0.70153  0.70867  1.0000
  F   F69       1.0  0.46107  0.20682  0.19661  1.0000
  F   F70       1.0  0.45601  0.19458  0.70935  1.0000
  F   F71       1.0  0.45862  0.69797  0.20131  1.0000
  F   F72       1.0  0.44944  0.69486  0.72352  1.0000
  F   F73       1.0  0.71205  0.19996  0.20969  1.0000
  F   F74       1.0  0.70400  0.20004  0.72298  1.0000
  F   F75       1.0  0.70316  0.70842  0.21803  1.0000
  F   F76       1.0  0.70226  0.71036  0.70862  1.0000
  F   F77       1.0  0.96327  0.20603  0.21893  1.0000
  F   F78       1.0  0.94143  0.20737  0.71978  1.0000
  F   F79       1.0  0.96072  0.69387  0.20285  1.0000
  F   F80       1.0  0.95064  0.70025  0.71577  1.0000
  F   F81       1.0  0.14175  0.07808  0.03467  1.0000
  F   F82       1.0  0.14652  0.09848  0.54190  1.0000
  F   F83       1.0  0.15293  0.58209  0.05294  1.0000
  F   F84       1.0  0.14763  0.57438  0.54193  1.0000
  F   F85       1.0  0.39671  0.10264  0.04755  1.0000
  F   F86       1.0  0.39698  0.10311  0.52563  1.0000
  F   F87       1.0  0.39244  0.60457  0.04002  1.0000
  F   F88       1.0  0.40118  0.61583  0.52920  1.0000
  F   F89       1.0  0.64783  0.10031  0.04338  1.0000
  F   F90       1.0  0.64938  0.11469  0.53217  1.0000
  F   F91       1.0  0.65416  0.60584  0.02702  1.0000
  F   F92       1.0  0.64917  0.59047  0.54959  1.0000
  F   F93       1.0  0.89756  0.09815  0.04756  1.0000
  F   F94       1.0  0.90030  0.07679  0.54267  1.0000
  F   F95       1.0  0.89864  0.59172  0.04467  1.0000
  F   F96       1.0  0.90059  0.58574  0.53848  1.0000
  F   F97       1.0  0.15200  0.18364  0.11103  1.0000
  F   F98       1.0  0.15221  0.19543  0.63581  1.0000
  F   F99       1.0  0.15480  0.69005  0.12777  1.0000
  F   F100      1.0  0.15456  0.69241  0.60208  1.0000
  F   F101      1.0  0.40210  0.19434  0.14769  1.0000
  F   F102      1.0  0.39917  0.18957  0.63995  1.0000
  F   F103      1.0  0.40334  0.70202  0.12352  1.0000
  F   F104      1.0  0.40761  0.69913  0.61992  1.0000
  F   F105      1.0  0.65623  0.19084  0.12904  1.0000
  F   F106      1.0  0.65200  0.20733  0.61046  1.0000
  F   F107      1.0  0.65249  0.70454  0.11692  1.0000
  F   F108      1.0  0.65083  0.70557  0.62587  1.0000
  F   F109      1.0  0.90646  0.19397  0.13188  1.0000
  F   F110      1.0  0.89964  0.20081  0.60534  1.0000
  F   F111      1.0  0.90323  0.68887  0.13734  1.0000
  F   F112      1.0  0.90254  0.68629  0.62461  1.0000
  F   F113      1.0  0.09974  0.29067  0.37105  1.0000
  F   F114      1.0  0.09967  0.29793  0.88438  1.0000
  F   F115      1.0  0.09477  0.80248  0.37683  1.0000
  F   F116      1.0  0.10447  0.80827  0.86232  1.0000
  F   F117      1.0  0.35048  0.29578  0.36975  1.0000
  F   F118      1.0  0.35098  0.29084  0.88020  1.0000
  F   F119      1.0  0.35078  0.80939  0.36745  1.0000
  F   F120      1.0  0.34400  0.79660  0.88422  1.0000
  F   F121      1.0  0.60013  0.30312  0.36117  1.0000
  F   F122      1.0  0.59656  0.32238  0.86168  1.0000
  F   F123      1.0  0.60334  0.80279  0.36727  1.0000
  F   F124      1.0  0.59422  0.80730  0.88261  1.0000
  F   F125      1.0  0.84369  0.30070  0.35905  1.0000
  F   F126      1.0  0.84777  0.31058  0.87426  1.0000
  F   F127      1.0  0.84444  0.79823  0.39263  1.0000
  F   F128      1.0  0.85276  0.80902  0.85390  1.0000
  F   F129      1.0  0.06334  0.25434  0.13588  1.0000
  F   F130      1.0  0.06495  0.25227  0.64673  1.0000
  F   F131      1.0  0.06262  0.74549  0.14255  1.0000
  F   F132      1.0  0.06703  0.74550  0.64104  1.0000
  F   F133      1.0  0.32211  0.25585  0.13675  1.0000
  F   F134      1.0  0.32249  0.25793  0.62296  1.0000
  F   F135      1.0  0.30913  0.75008  0.15207  1.0000
  F   F136      1.0  0.32810  0.75547  0.61210  1.0000
  F   F137      1.0  0.56387  0.25222  0.13988  1.0000
  F   F138      1.0  0.56674  0.25183  0.63689  1.0000
  F   F139      1.0  0.56355  0.75793  0.14549  1.0000
  F   F140      1.0  0.56292  0.75053  0.65470  1.0000
  F   F141      1.0  0.81941  0.25066  0.13534  1.0000
  F   F142      1.0  0.81352  0.24812  0.65044  1.0000
  F   F143      1.0  0.81888  0.75127  0.13721  1.0000
  F   F144      1.0  0.81797  0.75585  0.63706  1.0000
  F   F145      1.0  0.12170  0.34163  0.13324  1.0000
  F   F146      1.0  0.12531  0.36023  0.61008  1.0000
  F   F147      1.0  0.12358  0.86189  0.10270  1.0000
  F   F148      1.0  0.12403  0.86172  0.61099  1.0000
  F   F149      1.0  0.37581  0.38862  0.10230  1.0000
  F   F150      1.0  0.37498  0.38316  0.59732  1.0000
  F   F151      1.0  0.37552  0.87959  0.09988  1.0000
  F   F152      1.0  0.37662  0.86864  0.61159  1.0000
  F   F153      1.0  0.62030  0.35610  0.11898  1.0000
  F   F154      1.0  0.62301  0.37305  0.60200  1.0000
  F   F155      1.0  0.62314  0.86321  0.11939  1.0000
  F   F156      1.0  0.62497  0.87346  0.60443  1.0000
  F   F157      1.0  0.87073  0.36791  0.11750  1.0000
  F   F158      1.0  0.87470  0.37741  0.60389  1.0000
  F   F159      1.0  0.87895  0.88099  0.08788  1.0000
  F   F160      1.0  0.87251  0.84885  0.63218  1.0000
  F   F161      1.0  0.18857  0.25115  0.34017  1.0000
  F   F162      1.0  0.18587  0.25276  0.86336  1.0000
  F   F163      1.0  0.17883  0.73711  0.36559  1.0000
  F   F164      1.0  0.19458  0.75268  0.84251  1.0000
  F   F165      1.0  0.43734  0.24851  0.34603  1.0000
  F   F166      1.0  0.43881  0.25234  0.85312  1.0000
  F   F167      1.0  0.44523  0.74705  0.34548  1.0000
  F   F168      1.0  0.44169  0.75938  0.84110  1.0000
  F   F169      1.0  0.68941  0.26054  0.35323  1.0000
  F   F170      1.0  0.68482  0.25369  0.85791  1.0000
  F   F171      1.0  0.67882  0.74735  0.36711  1.0000
  F   F172      1.0  0.67946  0.75419  0.85661  1.0000
  F   F173      1.0  0.92671  0.25044  0.37516  1.0000
  F   F174      1.0  0.93369  0.25745  0.84846  1.0000
  F   F175      1.0  0.93826  0.75491  0.35322  1.0000
  F   F176      1.0  0.93099  0.75054  0.86045  1.0000
  F   F177      1.0  0.12133  0.10946  0.40853  1.0000
  F   F178      1.0  0.12513  0.13126  0.88893  1.0000
  F   F179      1.0  0.12811  0.62857  0.37343  1.0000
  F   F180      1.0  0.13171  0.62208  0.89887  1.0000
  F   F181      1.0  0.37380  0.13461  0.38630  1.0000
  F   F182      1.0  0.37803  0.11634  0.89866  1.0000
  F   F183      1.0  0.38158  0.65006  0.37546  1.0000
  F   F184      1.0  0.37272  0.63696  0.89673  1.0000
  F   F185      1.0  0.62937  0.13065  0.38652  1.0000
  F   F186      1.0  0.62870  0.14138  0.88941  1.0000
  F   F187      1.0  0.62225  0.62510  0.40954  1.0000
  F   F188      1.0  0.62878  0.64178  0.87672  1.0000
  F   F189      1.0  0.87556  0.12476  0.39136  1.0000
  F   F190      1.0  0.87511  0.13184  0.90694  1.0000
  F   F191      1.0  0.87881  0.63611  0.38429  1.0000
  F   F192      1.0  0.87483  0.62129  0.90051  1.0000
  F   F193      1.0  0.00654  0.37863  0.06546  1.0000
  F   F194      1.0  0.00459  0.35203  0.58702  1.0000
  F   F195      1.0  0.00714  0.85999  0.06423  1.0000
  F   F196      1.0  0.00785  0.84581  0.58579  1.0000
  F   F197      1.0  0.25263  0.33912  0.10053  1.0000
  F   F198      1.0  0.26010  0.37110  0.56911  1.0000
  F   F199      1.0  0.25674  0.86444  0.08181  1.0000
  F   F200      1.0  0.25916  0.84882  0.58148  1.0000
  F   F201      1.0  0.50761  0.37759  0.06626  1.0000
  F   F202      1.0  0.50287  0.35656  0.58934  1.0000
  F   F203      1.0  0.51007  0.87305  0.06597  1.0000
  F   F204      1.0  0.51077  0.85308  0.57619  1.0000
  F   F205      1.0  0.75887  0.36578  0.07172  1.0000
  F   F206      1.0  0.75411  0.35259  0.58045  1.0000
  F   F207      1.0  0.76140  0.86674  0.05156  1.0000
  F   F208      1.0  0.75835  0.86973  0.56809  1.0000
  F   F209      1.0  0.07261  0.48161  0.16049  1.0000
  F   F210      1.0  0.06325  0.48419  0.67840  1.0000
  F   F211      1.0  0.06219  0.98437  0.17901  1.0000
  F   F212      1.0  0.07007  0.97746  0.68319  1.0000
  F   F213      1.0  0.31274  0.48397  0.19063  1.0000
  F   F214      1.0  0.32097  0.48319  0.67666  1.0000
  F   F215      1.0  0.31059  0.98317  0.18890  1.0000
  F   F216      1.0  0.32112  0.97057  0.68892  1.0000
  F   F217      1.0  0.57475  0.49397  0.16018  1.0000
  F   F218      1.0  0.56623  0.47985  0.67425  1.0000
  F   F219      1.0  0.56693  0.99014  0.17992  1.0000
  F   F220      1.0  0.56787  0.99514  0.66045  1.0000
  F   F221      1.0  0.81888  0.49106  0.16829  1.0000
  F   F222      1.0  0.81691  0.47687  0.69007  1.0000
  F   F223      1.0  0.81976  0.98495  0.16914  1.0000
  F   F224      1.0  0.82053  0.98555  0.66557  1.0000
  F   F225      1.0  0.24268  0.13624  0.42491  1.0000
  F   F226      1.0  0.24073  0.13878  0.92486  1.0000
  F   F227      1.0  0.24354  0.64068  0.41262  1.0000
  F   F228      1.0  0.24281  0.63565  0.92700  1.0000
  F   F229      1.0  0.49358  0.13306  0.42428  1.0000
  F   F230      1.0  0.49473  0.13499  0.92937  1.0000
  F   F231      1.0  0.49546  0.62463  0.42305  1.0000
  F   F232      1.0  0.49129  0.63911  0.94092  1.0000
  F   F233      1.0  0.73969  0.14322  0.42665  1.0000
  F   F234      1.0  0.73888  0.13508  0.94351  1.0000
  F   F235      1.0  0.73779  0.63789  0.43490  1.0000
  F   F236      1.0  0.74565  0.64288  0.90411  1.0000
  F   F237      1.0  0.98724  0.14159  0.43303  1.0000
  F   F238      1.0  0.99227  0.14805  0.92600  1.0000
  F   F239      1.0  0.99298  0.64026  0.42872  1.0000
  F   F240      1.0  0.99080  0.64299  0.93375  1.0000
  F   F241      1.0  0.18083  0.01421  0.31663  1.0000
  F   F242      1.0  0.17975  0.01513  0.82822  1.0000
  F   F243      1.0  0.18092  0.50607  0.32285  1.0000
  F   F244      1.0  0.18688  0.51363  0.81977  1.0000
  F   F245      1.0  0.43016  0.01376  0.31662  1.0000
  F   F246      1.0  0.43402  0.01433  0.81820  1.0000
  F   F247      1.0  0.43354  0.51974  0.31930  1.0000
  F   F248      1.0  0.43364  0.51251  0.83047  1.0000
  F   F249      1.0  0.68404  0.01916  0.30403  1.0000
  F   F250      1.0  0.68133  0.01743  0.82006  1.0000
  F   F251      1.0  0.67638  0.51863  0.33351  1.0000
  F   F252      1.0  0.67804  0.52894  0.81502  1.0000
  F   F253      1.0  0.93680  0.02125  0.30764  1.0000
  F   F254      1.0  0.92090  0.01316  0.84055  1.0000
  F   F255      1.0  0.92648  0.51173  0.33691  1.0000
  F   F256      1.0  0.93729  0.51740  0.82002  1.0000
  F   F257      1.0  0.00118  0.26085  0.00427  1.0000
  F   F258      1.0  0.00306  0.24913  0.50184  1.0000
  F   F259      1.0  0.00077  0.74412  0.00070  1.0000
  F   F260      1.0  0.00205  0.75068  0.49299  1.0000
  F   F261      1.0  0.25247  0.24705  0.00185  1.0000
  F   F262      1.0  0.24832  0.24090  0.51018  1.0000
  F   F263      1.0  0.25112  0.75471  0.99566  1.0000
  F   F264      1.0  0.25120  0.75926  0.48769  1.0000
  F   F265      1.0  0.50245  0.25423  0.99428  1.0000
  F   F266      1.0  0.50388  0.25851  0.49949  1.0000
  F   F267      1.0  0.50222  0.75105  0.99905  1.0000
  F   F268      1.0  0.49795  0.73765  0.50907  1.0000
  F   F269      1.0  0.75010  0.26256  0.99204  1.0000
  F   F270      1.0  0.74622  0.23577  0.51506  1.0000
  F   F271      1.0  0.74638  0.74264  0.00677  1.0000
  F   F272      1.0  0.75302  0.76247  0.48989  1.0000
  F   F273      1.0  0.12121  0.00479  0.24905  1.0000
  F   F274      1.0  0.12710  0.00027  0.74677  1.0000
  F   F275      1.0  0.11556  0.49042  0.27141  1.0000
  F   F276      1.0  0.12296  0.49505  0.74515  1.0000
  F   F277      1.0  0.37382  0.00054  0.25097  1.0000
  F   F278      1.0  0.37651  0.00689  0.74679  1.0000
  F   F279      1.0  0.37734  0.50526  0.23541  1.0000
  F   F280      1.0  0.37917  0.49373  0.74493  1.0000
  F   F281      1.0  0.62429  0.99992  0.25533  1.0000
  F   F282      1.0  0.62161  0.00493  0.75318  1.0000
  F   F283      1.0  0.63255  0.50841  0.23150  1.0000
  F   F284      1.0  0.61774  0.49835  0.75428  1.0000
  F   F285      1.0  0.87994  0.99917  0.24347  1.0000
  F   F286      1.0  0.86901  0.99440  0.75435  1.0000
  F   F287      1.0  0.86211  0.47750  0.27993  1.0000
  F   F288      1.0  0.87808  0.49934  0.75253  1.0000
  F   F289      1.0  0.04615  0.01956  0.02234  1.0000
  F   F290      1.0  0.03698  0.02939  0.51998  1.0000
  F   F291      1.0  0.04559  0.54212  0.01339  1.0000
  F   F292      1.0  0.04165  0.52137  0.52217  1.0000
  F   F293      1.0  0.29113  0.02901  0.01814  1.0000
  F   F294      1.0  0.29474  0.02699  0.51595  1.0000
  F   F295      1.0  0.29245  0.52577  0.02715  1.0000
  F   F296      1.0  0.29850  0.52698  0.51817  1.0000
  F   F297      1.0  0.54850  0.02958  0.02180  1.0000
  F   F298      1.0  0.55145  0.02909  0.50251  1.0000
  F   F299      1.0  0.54286  0.53164  0.02121  1.0000
  F   F300      1.0  0.54314  0.52335  0.52509  1.0000
  F   F301      1.0  0.80044  0.03283  0.00671  1.0000
  F   F302      1.0  0.78432  0.03511  0.52650  1.0000
  F   F303      1.0  0.78824  0.54268  0.01339  1.0000
  F   F304      1.0  0.79161  0.51808  0.53119  1.0000
  F   F305      1.0  0.23478  0.41364  0.22408  1.0000
  F   F306      1.0  0.23529  0.41907  0.72869  1.0000
  F   F307      1.0  0.22663  0.91214  0.22445  1.0000
  F   F308      1.0  0.23632  0.93570  0.71202  1.0000
  F   F309      1.0  0.47923  0.42096  0.22469  1.0000
  F   F310      1.0  0.48118  0.41520  0.72837  1.0000
  F   F311      1.0  0.48287  0.92436  0.21549  1.0000
  F   F312      1.0  0.48358  0.91884  0.72440  1.0000
  F   F313      1.0  0.73140  0.43978  0.22506  1.0000
  F   F314      1.0  0.73334  0.41050  0.73793  1.0000
  F   F315      1.0  0.74123  0.88409  0.23533  1.0000
  F   F316      1.0  0.73626  0.92177  0.72000  1.0000
  F   F317      1.0  0.98482  0.42586  0.21892  1.0000
  F   F318      1.0  0.98416  0.41690  0.73007  1.0000
  F   F319      1.0  0.98650  0.90347  0.22199  1.0000
  F   F320      1.0  0.98426  0.91984  0.73236  1.0000
  F   F321      1.0  0.21132  0.45672  0.47290  1.0000
  F   F322      1.0  0.21318  0.46332  0.97169  1.0000
  F   F323      1.0  0.20471  0.97296  0.47108  1.0000
  F   F324      1.0  0.21294  0.95712  0.97117  1.0000
  F   F325      1.0  0.46098  0.46350  0.46401  1.0000
  F   F326      1.0  0.45257  0.47751  0.98739  1.0000
  F   F327      1.0  0.45006  0.96608  0.48174  1.0000
  F   F328      1.0  0.45674  0.97243  0.98594  1.0000
  F   F329      1.0  0.70476  0.48029  0.47927  1.0000
  F   F330      1.0  0.70045  0.47075  0.97831  1.0000
  F   F331      1.0  0.69945  0.97887  0.48264  1.0000
  F   F332      1.0  0.70046  0.97717  0.98019  1.0000
  F   F333      1.0  0.95986  0.47061  0.47185  1.0000
  F   F334      1.0  0.95171  0.47068  0.98914  1.0000
  F   F335      1.0  0.96115  0.96286  0.46478  1.0000
  F   F336      1.0  0.95510  0.98266  0.97312  1.0000
  F   F337      1.0  0.01582  0.08320  0.28687  1.0000
  F   F338      1.0  0.00730  0.10384  0.76592  1.0000
  F   F339      1.0  0.02006  0.57212  0.27282  1.0000
  F   F340      1.0  0.01805  0.59806  0.78160  1.0000
  F   F341      1.0  0.25936  0.11098  0.25653  1.0000
  F   F342      1.0  0.26617  0.08509  0.78075  1.0000
  F   F343      1.0  0.26429  0.57791  0.28517  1.0000
  F   F344      1.0  0.26981  0.59445  0.76475  1.0000
  F   F345      1.0  0.51478  0.09401  0.27020  1.0000
  F   F346      1.0  0.51594  0.07855  0.78336  1.0000
  F   F347      1.0  0.52391  0.57585  0.28070  1.0000
  F   F348      1.0  0.51668  0.58745  0.77733  1.0000
  F   F349      1.0  0.76617  0.07585  0.28390  1.0000
  F   F350      1.0  0.76851  0.08091  0.78641  1.0000
  F   F351      1.0  0.76273  0.59344  0.25935  1.0000
  F   F352      1.0  0.76756  0.58744  0.77348  1.0000
  F   F353      1.0  0.09485  0.39453  0.47049  1.0000
  F   F354      1.0  0.10475  0.42313  0.95397  1.0000
  F   F355      1.0  0.09871  0.92025  0.45976  1.0000
  F   F356      1.0  0.10344  0.90778  0.95119  1.0000
  F   F357      1.0  0.35266  0.40845  0.45752  1.0000
  F   F358      1.0  0.35027  0.40877  0.96264  1.0000
  F   F359      1.0  0.35464  0.91580  0.45976  1.0000
  F   F360      1.0  0.35003  0.90308  0.96207  1.0000
  F   F361      1.0  0.60004  0.39449  0.46198  1.0000
  F   F362      1.0  0.60088  0.40205  0.96774  1.0000
  F   F363      1.0  0.60649  0.89464  0.45427  1.0000
  F   F364      1.0  0.60239  0.90687  0.96831  1.0000
  F   F365      1.0  0.84554  0.39931  0.46818  1.0000
  F   F366      1.0  0.85247  0.42729  0.96647  1.0000
  F   F367      1.0  0.85053  0.91136  0.46807  1.0000
  F   F368      1.0  0.85079  0.89940  0.95865  1.0000
  F   F369      1.0  0.03857  0.30055  0.29266  1.0000
  F   F370      1.0  0.04875  0.29245  0.79029  1.0000
  F   F371      1.0  0.04899  0.78989  0.28287  1.0000
  F   F372      1.0  0.04516  0.78911  0.79031  1.0000
  F   F373      1.0  0.29406  0.29401  0.29225  1.0000
  F   F374      1.0  0.29723  0.29153  0.78119  1.0000
  F   F375      1.0  0.29062  0.80129  0.28796  1.0000
  F   F376      1.0  0.29710  0.79271  0.77900  1.0000
  F   F377      1.0  0.53956  0.30249  0.29303  1.0000
  F   F378      1.0  0.53907  0.29492  0.79660  1.0000
  F   F379      1.0  0.54181  0.80368  0.29287  1.0000
  F   F380      1.0  0.55007  0.80114  0.78341  1.0000
  F   F381      1.0  0.78388  0.30347  0.29190  1.0000
  F   F382      1.0  0.79442  0.30051  0.79319  1.0000
  F   F383      1.0  0.80828  0.79848  0.28035  1.0000
  F   F384      1.0  0.78946  0.80561  0.79070  1.0000
