data_image0
_chemical_formula_structural       Hf96F384
_chemical_formula_sum              "Hf96 F384"
_cell_length_a       31.0054
_cell_length_b       15.5039
_cell_length_c       15.4969
_cell_angle_alpha    63.342
_cell_angle_beta     63.342
_cell_angle_gamma    80.1625

_space_group_name_H-M_alt    "P 1"
_space_group_IT_number       1

loop_
  _space_group_symop_operation_xyz
  'x, y, z'

loop_
  _atom_site_type_symbol
  _atom_site_label
  _atom_site_symmetry_multiplicity
  _atom_site_fract_x
  _atom_site_fract_y
  _atom_site_fract_z
  _atom_site_occupancy
  Hf  Hf1       1.0  0.19261  0.11598  0.37138  1.0000
  Hf  Hf2       1.0  0.19631  0.11484  0.86754  1.0000
  Hf  Hf3       1.0  0.19498  0.60773  0.36609  1.0000
  Hf  Hf4       1.0  0.19987  0.60968  0.86733  1.0000
  Hf  Hf5       1.0  0.44546  0.10421  0.37364  1.0000
  Hf  Hf6       1.0  0.44374  0.09507  0.88920  1.0000
  Hf  Hf7       1.0  0.44608  0.60232  0.37430  1.0000
  Hf  Hf8       1.0  0.44812  0.59981  0.87561  1.0000
  Hf  Hf9       1.0  0.69812  0.10631  0.37749  1.0000
  Hf  Hf10      1.0  0.69142  0.10473  0.88321  1.0000
  Hf  Hf11      1.0  0.69383  0.60568  0.37814  1.0000
  Hf  Hf12      1.0  0.69769  0.61006  0.86875  1.0000
  Hf  Hf13      1.0  0.94714  0.10736  0.37509  1.0000
  Hf  Hf14      1.0  0.94560  0.10647  0.88308  1.0000
  Hf  Hf15      1.0  0.94378  0.60697  0.38032  1.0000
  Hf  Hf16      1.0  0.94653  0.60895  0.87697  1.0000
  Hf  Hf17      1.0  0.05382  0.39682  0.12436  1.0000
  Hf  Hf18      1.0  0.04984  0.39271  0.63310  1.0000
  Hf  Hf19      1.0  0.05091  0.89185  0.11982  1.0000
  Hf  Hf20      1.0  0.05012  0.89597  0.62972  1.0000
  Hf  Hf21      1.0  0.30509  0.38624  0.12601  1.0000
  Hf  Hf22      1.0  0.30378  0.39445  0.62030  1.0000
  Hf  Hf23      1.0  0.30427  0.89570  0.12571  1.0000
  Hf  Hf24      1.0  0.30487  0.89232  0.61717  1.0000
  Hf  Hf25      1.0  0.55445  0.38899  0.12326  1.0000
  Hf  Hf26      1.0  0.55570  0.38990  0.62829  1.0000
  Hf  Hf27      1.0  0.55196  0.88746  0.12668  1.0000
  Hf  Hf28      1.0  0.55250  0.88909  0.63681  1.0000
  Hf  Hf29      1.0  0.80409  0.39189  0.12505  1.0000
  Hf  Hf30      1.0  0.80476  0.40101  0.61615  1.0000
  Hf  Hf31      1.0  0.80552  0.89235  0.12686  1.0000
  Hf  Hf32      1.0  0.80190  0.88996  0.63432  1.0000
  Hf  Hf33      1.0  0.05806  0.18664  0.40913  1.0000
  Hf  Hf34      1.0  0.05600  0.18785  0.91281  1.0000
  Hf  Hf35      1.0  0.05521  0.68211  0.41228  1.0000
  Hf  Hf36      1.0  0.05724  0.68822  0.90993  1.0000
  Hf  Hf37      1.0  0.30177  0.18052  0.42345  1.0000
  Hf  Hf38      1.0  0.30439  0.18280  0.91770  1.0000
  Hf  Hf39      1.0  0.30376  0.68195  0.41494  1.0000
  Hf  Hf40      1.0  0.30989  0.68299  0.91042  1.0000
  Hf  Hf41      1.0  0.55675  0.18083  0.41712  1.0000
  Hf  Hf42      1.0  0.55575  0.18948  0.91340  1.0000
  Hf  Hf43      1.0  0.55436  0.68373  0.42291  1.0000
  Hf  Hf44      1.0  0.55439  0.68142  0.92116  1.0000
  Hf  Hf45      1.0  0.80669  0.18818  0.41819  1.0000
  Hf  Hf46      1.0  0.80453  0.17752  0.92486  1.0000
  Hf  Hf47      1.0  0.80566  0.69012  0.41901  1.0000
  Hf  Hf48      1.0  0.80463  0.68347  0.92410  1.0000
  Hf  Hf49      1.0  0.15952  0.39425  0.32990  1.0000
  Hf  Hf50      1.0  0.15947  0.39013  0.83223  1.0000
  Hf  Hf51      1.0  0.15537  0.88582  0.32975  1.0000
  Hf  Hf52      1.0  0.16375  0.89471  0.82042  1.0000
  Hf  Hf53      1.0  0.40722  0.38371  0.33420  1.0000
  Hf  Hf54      1.0  0.40848  0.38011  0.83635  1.0000
  Hf  Hf55      1.0  0.40684  0.88727  0.33417  1.0000
  Hf  Hf56      1.0  0.40771  0.88021  0.84222  1.0000
  Hf  Hf57      1.0  0.66355  0.38370  0.33022  1.0000
  Hf  Hf58      1.0  0.65927  0.38492  0.83155  1.0000
  Hf  Hf59      1.0  0.65727  0.88649  0.33284  1.0000
  Hf  Hf60      1.0  0.65531  0.88698  0.83606  1.0000
  Hf  Hf61      1.0  0.91065  0.38751  0.33355  1.0000
  Hf  Hf62      1.0  0.90539  0.38406  0.84283  1.0000
  Hf  Hf63      1.0  0.91063  0.88443  0.33786  1.0000
  Hf  Hf64      1.0  0.90810  0.88622  0.82896  1.0000
  Hf  Hf65      1.0  0.19503  0.32042  0.08358  1.0000
  Hf  Hf66      1.0  0.19239  0.32759  0.58238  1.0000
  Hf  Hf67      1.0  0.19724  0.82042  0.06794  1.0000
  Hf  Hf68      1.0  0.19568  0.82342  0.57671  1.0000
  Hf  Hf69      1.0  0.44291  0.31306  0.08618  1.0000
  Hf  Hf70      1.0  0.44210  0.31608  0.58396  1.0000
  Hf  Hf71      1.0  0.44535  0.81456  0.08434  1.0000
  Hf  Hf72      1.0  0.44698  0.81375  0.58548  1.0000
  Hf  Hf73      1.0  0.69275  0.31626  0.08481  1.0000
  Hf  Hf74      1.0  0.69530  0.31905  0.58108  1.0000
  Hf  Hf75      1.0  0.69226  0.81503  0.08791  1.0000
  Hf  Hf76      1.0  0.69208  0.81818  0.58626  1.0000
  Hf  Hf77      1.0  0.94481  0.31593  0.08629  1.0000
  Hf  Hf78      1.0  0.94358  0.31777  0.58913  1.0000
  Hf  Hf79      1.0  0.94365  0.80762  0.08517  1.0000
  Hf  Hf80      1.0  0.94456  0.82180  0.57837  1.0000
  Hf  Hf81      1.0  0.09362  0.11316  0.16302  1.0000
  Hf  Hf82      1.0  0.08887  0.11448  0.66314  1.0000
  Hf  Hf83      1.0  0.09368  0.62175  0.15527  1.0000
  Hf  Hf84      1.0  0.09219  0.61616  0.65978  1.0000
  Hf  Hf85      1.0  0.33888  0.10591  0.17327  1.0000
  Hf  Hf86      1.0  0.34230  0.11226  0.67140  1.0000
  Hf  Hf87      1.0  0.33967  0.60819  0.16828  1.0000
  Hf  Hf88      1.0  0.34235  0.61322  0.66093  1.0000
  Hf  Hf89      1.0  0.58997  0.10940  0.16909  1.0000
  Hf  Hf90      1.0  0.59042  0.11107  0.67022  1.0000
  Hf  Hf91      1.0  0.59121  0.60715  0.17089  1.0000
  Hf  Hf92      1.0  0.58967  0.60870  0.67696  1.0000
  Hf  Hf93      1.0  0.84113  0.10868  0.17341  1.0000
  Hf  Hf94      1.0  0.83897  0.10850  0.67421  1.0000
  Hf  Hf95      1.0  0.84218  0.61256  0.16987  1.0000
  Hf  Hf96      1.0  0.84081  0.61110  0.67147  1.0000
  F   F1        1.0  0.07501  0.13095  0.30177  1.0000
  F   F2        1.0  0.07583  0.13303  0.80100  1.0000
  F   F3        1.0  0.07892  0.62459  0.30235  1.0000
  F   F4        1.0  0.08617  0.63912  0.79255  1.0000
  F   F5        1.0  0.32352  0.11798  0.31543  1.0000
  F   F6        1.0  0.32150  0.11810  0.81810  1.0000
  F   F7        1.0  0.32494  0.61969  0.30268  1.0000
  F   F8        1.0  0.33471  0.62938  0.79106  1.0000
  F   F9        1.0  0.58282  0.12533  0.29268  1.0000
  F   F10       1.0  0.57896  0.14786  0.78264  1.0000
  F   F11       1.0  0.57673  0.62525  0.30564  1.0000
  F   F12       1.0  0.57570  0.63174  0.80747  1.0000
  F   F13       1.0  0.83744  0.12851  0.29807  1.0000
  F   F14       1.0  0.82848  0.11355  0.81179  1.0000
  F   F15       1.0  0.83171  0.64081  0.30024  1.0000
  F   F16       1.0  0.83002  0.64845  0.79995  1.0000
  F   F17       1.0  0.18094  0.34499  0.44561  1.0000
  F   F18       1.0  0.18406  0.34001  0.95023  1.0000
  F   F19       1.0  0.19373  0.84884  0.42903  1.0000
  F   F20       1.0  0.19692  0.85813  0.92698  1.0000
  F   F21       1.0  0.42968  0.32972  0.45330  1.0000
  F   F22       1.0  0.43465  0.34554  0.95102  1.0000
  F   F23       1.0  0.43341  0.83944  0.44513  1.0000
  F   F24       1.0  0.44249  0.84133  0.93941  1.0000
  F   F25       1.0  0.69142  0.34399  0.43686  1.0000
  F   F26       1.0  0.68627  0.34948  0.94202  1.0000
  F   F27       1.0  0.68576  0.84339  0.45021  1.0000
  F   F28       1.0  0.68351  0.83502  0.94526  1.0000
  F   F29       1.0  0.93545  0.33085  0.44709  1.0000
  F   F30       1.0  0.93412  0.33398  0.95729  1.0000
  F   F31       1.0  0.93781  0.84193  0.44474  1.0000
  F   F32       1.0  0.93220  0.83203  0.94749  1.0000
  F   F33       1.0  0.17716  0.37862  0.18857  1.0000
  F   F34       1.0  0.17640  0.39626  0.68221  1.0000
  F   F35       1.0  0.16626  0.86559  0.18731  1.0000
  F   F36       1.0  0.17159  0.88078  0.69326  1.0000
  F   F37       1.0  0.42481  0.36831  0.20089  1.0000
  F   F38       1.0  0.41980  0.34354  0.71213  1.0000
  F   F39       1.0  0.42024  0.86726  0.19276  1.0000
  F   F40       1.0  0.42645  0.86002  0.70477  1.0000
  F   F41       1.0  0.67456  0.37611  0.19170  1.0000
  F   F42       1.0  0.67911  0.39395  0.68769  1.0000
  F   F43       1.0  0.67296  0.86237  0.19979  1.0000
  F   F44       1.0  0.66709  0.87459  0.69719  1.0000
  F   F45       1.0  0.92640  0.37793  0.19229  1.0000
  F   F46       1.0  0.91715  0.36568  0.70532  1.0000
  F   F47       1.0  0.91248  0.86009  0.20260  1.0000
  F   F48       1.0  0.92808  0.86551  0.68828  1.0000
  F   F49       1.0  0.06922  0.16401  0.04077  1.0000
  F   F50       1.0  0.06362  0.17236  0.54269  1.0000
  F   F51       1.0  0.07206  0.66581  0.03667  1.0000
  F   F52       1.0  0.07129  0.67177  0.54054  1.0000
  F   F53       1.0  0.31664  0.15364  0.05265  1.0000
  F   F54       1.0  0.30991  0.15672  0.55744  1.0000
  F   F55       1.0  0.31172  0.64799  0.05463  1.0000
  F   F56       1.0  0.31491  0.65539  0.55314  1.0000
  F   F57       1.0  0.57238  0.17551  0.03678  1.0000
  F   F58       1.0  0.56409  0.15871  0.55009  1.0000
  F   F59       1.0  0.56864  0.66866  0.04375  1.0000
  F   F60       1.0  0.56645  0.66399  0.55842  1.0000
  F   F61       1.0  0.82039  0.15590  0.05211  1.0000
  F   F62       1.0  0.81022  0.15075  0.56145  1.0000
  F   F63       1.0  0.82184  0.66946  0.04550  1.0000
  F   F64       1.0  0.81450  0.65536  0.55680  1.0000
  F   F65       1.0  0.20533  0.20460  0.21094  1.0000
  F   F66       1.0  0.20549  0.21679  0.70687  1.0000
  F   F67       1.0  0.20158  0.69177  0.21538  1.0000
  F   F68       1.0  0.21217  0.72230  0.70156  1.0000
  F   F69       1.0  0.44816  0.19263  0.21895  1.0000
  F   F70       1.0  0.45392  0.18241  0.72863  1.0000
  F   F71       1.0  0.45035  0.69472  0.22461  1.0000
  F   F72       1.0  0.46302  0.68910  0.70943  1.0000
  F   F73       1.0  0.70240  0.20614  0.20291  1.0000
  F   F74       1.0  0.69812  0.21556  0.71684  1.0000
  F   F75       1.0  0.71190  0.70062  0.20598  1.0000
  F   F76       1.0  0.71133  0.69761  0.69460  1.0000
  F   F77       1.0  0.96141  0.21035  0.20819  1.0000
  F   F78       1.0  0.95835  0.20147  0.72202  1.0000
  F   F79       1.0  0.94964  0.68506  0.20402  1.0000
  F   F80       1.0  0.95288  0.70523  0.70917  1.0000
  F   F81       1.0  0.15110  0.10908  0.02907  1.0000
  F   F82       1.0  0.13573  0.09127  0.52340  1.0000
  F   F83       1.0  0.15006  0.59314  0.03660  1.0000
  F   F84       1.0  0.14716  0.59109  0.53377  1.0000
  F   F85       1.0  0.40129  0.07935  0.03847  1.0000
  F   F86       1.0  0.39994  0.09609  0.53923  1.0000
  F   F87       1.0  0.40152  0.61457  0.04456  1.0000
  F   F88       1.0  0.40150  0.58975  0.53516  1.0000
  F   F89       1.0  0.64618  0.07490  0.04435  1.0000
  F   F90       1.0  0.64960  0.08015  0.54021  1.0000
  F   F91       1.0  0.64541  0.59947  0.04471  1.0000
  F   F92       1.0  0.64844  0.57841  0.54478  1.0000
  F   F93       1.0  0.90081  0.08538  0.03204  1.0000
  F   F94       1.0  0.89605  0.11480  0.53965  1.0000
  F   F95       1.0  0.90110  0.58570  0.02995  1.0000
  F   F96       1.0  0.89355  0.58656  0.54324  1.0000
  F   F97       1.0  0.15173  0.19532  0.13449  1.0000
  F   F98       1.0  0.15112  0.18987  0.61663  1.0000
  F   F99       1.0  0.14701  0.70955  0.11874  1.0000
  F   F100      1.0  0.15861  0.70191  0.61497  1.0000
  F   F101      1.0  0.39641  0.19716  0.12070  1.0000
  F   F102      1.0  0.39509  0.19754  0.64853  1.0000
  F   F103      1.0  0.39765  0.71330  0.13321  1.0000
  F   F104      1.0  0.41205  0.69229  0.61183  1.0000
  F   F105      1.0  0.64877  0.20760  0.11082  1.0000
  F   F106      1.0  0.65743  0.19032  0.61833  1.0000
  F   F107      1.0  0.65351  0.69723  0.13154  1.0000
  F   F108      1.0  0.64964  0.68550  0.62685  1.0000
  F   F109      1.0  0.90800  0.19036  0.12414  1.0000
  F   F110      1.0  0.90129  0.19160  0.65421  1.0000
  F   F111      1.0  0.90545  0.68954  0.11090  1.0000
  F   F112      1.0  0.90327  0.70182  0.60773  1.0000
  F   F113      1.0  0.09850  0.31370  0.37762  1.0000
  F   F114      1.0  0.09782  0.32305  0.85749  1.0000
  F   F115      1.0  0.09733  0.80968  0.35121  1.0000
  F   F116      1.0  0.09695  0.80617  0.85402  1.0000
  F   F117      1.0  0.35043  0.29105  0.39082  1.0000
  F   F118      1.0  0.34356  0.30501  0.87828  1.0000
  F   F119      1.0  0.34881  0.80501  0.37668  1.0000
  F   F120      1.0  0.34348  0.80164  0.87698  1.0000
  F   F121      1.0  0.60235  0.30907  0.37415  1.0000
  F   F122      1.0  0.59790  0.31179  0.85409  1.0000
  F   F123      1.0  0.59351  0.79648  0.37925  1.0000
  F   F124      1.0  0.59945  0.79922  0.86640  1.0000
  F   F125      1.0  0.84598  0.31234  0.38315  1.0000
  F   F126      1.0  0.84210  0.31090  0.89706  1.0000
  F   F127      1.0  0.85234  0.80031  0.38339  1.0000
  F   F128      1.0  0.84749  0.81013  0.85958  1.0000
  F   F129      1.0  0.06713  0.25510  0.13928  1.0000
  F   F130      1.0  0.06324  0.25598  0.63642  1.0000
  F   F131      1.0  0.06685  0.75897  0.12792  1.0000
  F   F132      1.0  0.06097  0.74884  0.65275  1.0000
  F   F133      1.0  0.30963  0.24253  0.15159  1.0000
  F   F134      1.0  0.31764  0.25358  0.63613  1.0000
  F   F135      1.0  0.31619  0.75474  0.13902  1.0000
  F   F136      1.0  0.32608  0.76011  0.61481  1.0000
  F   F137      1.0  0.55719  0.24163  0.16157  1.0000
  F   F138      1.0  0.56451  0.25144  0.63542  1.0000
  F   F139      1.0  0.56954  0.75900  0.13079  1.0000
  F   F140      1.0  0.55920  0.73907  0.66242  1.0000
  F   F141      1.0  0.81688  0.24643  0.14069  1.0000
  F   F142      1.0  0.81918  0.25323  0.63498  1.0000
  F   F143      1.0  0.81203  0.74848  0.15808  1.0000
  F   F144      1.0  0.81554  0.75202  0.64259  1.0000
  F   F145      1.0  0.12899  0.37286  0.11076  1.0000
  F   F146      1.0  0.12207  0.36038  0.62615  1.0000
  F   F147      1.0  0.12600  0.88600  0.07971  1.0000
  F   F148      1.0  0.12367  0.88204  0.59719  1.0000
  F   F149      1.0  0.37551  0.36820  0.11237  1.0000
  F   F150      1.0  0.37242  0.36900  0.60944  1.0000
  F   F151      1.0  0.37883  0.89241  0.08137  1.0000
  F   F152      1.0  0.37768  0.85871  0.62534  1.0000
  F   F153      1.0  0.62244  0.37393  0.11004  1.0000
  F   F154      1.0  0.62871  0.36665  0.60894  1.0000
  F   F155      1.0  0.62858  0.87626  0.10048  1.0000
  F   F156      1.0  0.62515  0.85881  0.61527  1.0000
  F   F157      1.0  0.87427  0.36157  0.12526  1.0000
  F   F158      1.0  0.87771  0.37703  0.59913  1.0000
  F   F159      1.0  0.87726  0.86542  0.09595  1.0000
  F   F160      1.0  0.87330  0.86619  0.61397  1.0000
  F   F161      1.0  0.18116  0.25261  0.35344  1.0000
  F   F162      1.0  0.18098  0.25394  0.85785  1.0000
  F   F163      1.0  0.17964  0.74944  0.35293  1.0000
  F   F164      1.0  0.18553  0.75134  0.86396  1.0000
  F   F165      1.0  0.44076  0.24251  0.35997  1.0000
  F   F166      1.0  0.43207  0.24292  0.87292  1.0000
  F   F167      1.0  0.43662  0.74645  0.35895  1.0000
  F   F168      1.0  0.43492  0.74361  0.86092  1.0000
  F   F169      1.0  0.68859  0.24301  0.35085  1.0000
  F   F170      1.0  0.67266  0.24118  0.88094  1.0000
  F   F171      1.0  0.68006  0.75241  0.35754  1.0000
  F   F172      1.0  0.68342  0.74748  0.85696  1.0000
  F   F173      1.0  0.93497  0.24633  0.36050  1.0000
  F   F174      1.0  0.92954  0.24718  0.87362  1.0000
  F   F175      1.0  0.94395  0.74742  0.34968  1.0000
  F   F176      1.0  0.94343  0.75528  0.84412  1.0000
  F   F177      1.0  0.12883  0.16183  0.34993  1.0000
  F   F178      1.0  0.12538  0.14503  0.87642  1.0000
  F   F179      1.0  0.12395  0.61799  0.39776  1.0000
  F   F180      1.0  0.13153  0.62226  0.88102  1.0000
  F   F181      1.0  0.37257  0.13216  0.38601  1.0000
  F   F182      1.0  0.37224  0.12809  0.89687  1.0000
  F   F183      1.0  0.37514  0.63489  0.38755  1.0000
  F   F184      1.0  0.37798  0.61430  0.90627  1.0000
  F   F185      1.0  0.62784  0.13106  0.38227  1.0000
  F   F186      1.0  0.62191  0.12342  0.88592  1.0000
  F   F187      1.0  0.62651  0.63595  0.38813  1.0000
  F   F188      1.0  0.62813  0.62413  0.88372  1.0000
  F   F189      1.0  0.87939  0.14406  0.37969  1.0000
  F   F190      1.0  0.87597  0.13598  0.88846  1.0000
  F   F191      1.0  0.87758  0.63559  0.39554  1.0000
  F   F192      1.0  0.87848  0.64176  0.88310  1.0000
  F   F193      1.0  0.01364  0.36780  0.07374  1.0000
  F   F194      1.0  0.00849  0.36490  0.57307  1.0000
  F   F195      1.0  0.00267  0.84701  0.09563  1.0000
  F   F196      1.0  0.00859  0.87637  0.56195  1.0000
  F   F197      1.0  0.26137  0.36008  0.06350  1.0000
  F   F198      1.0  0.25969  0.37941  0.56435  1.0000
  F   F199      1.0  0.25371  0.85876  0.07273  1.0000
  F   F200      1.0  0.25896  0.86793  0.56445  1.0000
  F   F201      1.0  0.50523  0.34970  0.07710  1.0000
  F   F202      1.0  0.50324  0.35297  0.58346  1.0000
  F   F203      1.0  0.50373  0.85635  0.09374  1.0000
  F   F204      1.0  0.51005  0.86955  0.57123  1.0000
  F   F205      1.0  0.76562  0.37525  0.05239  1.0000
  F   F206      1.0  0.76074  0.36318  0.57727  1.0000
  F   F207      1.0  0.75792  0.86527  0.08442  1.0000
  F   F208      1.0  0.75977  0.86760  0.57299  1.0000
  F   F209      1.0  0.06724  0.49126  0.17815  1.0000
  F   F210      1.0  0.06744  0.48602  0.67809  1.0000
  F   F211      1.0  0.06859  0.99158  0.16745  1.0000
  F   F212      1.0  0.06515  0.98464  0.67665  1.0000
  F   F213      1.0  0.32225  0.48828  0.16878  1.0000
  F   F214      1.0  0.32328  0.48139  0.66912  1.0000
  F   F215      1.0  0.31527  0.98256  0.17885  1.0000
  F   F216      1.0  0.32468  0.99443  0.65909  1.0000
  F   F217      1.0  0.56337  0.49024  0.18064  1.0000
  F   F218      1.0  0.56847  0.47550  0.69062  1.0000
  F   F219      1.0  0.56619  0.98790  0.17555  1.0000
  F   F220      1.0  0.57453  0.98169  0.66945  1.0000
  F   F221      1.0  0.81823  0.48012  0.17985  1.0000
  F   F222      1.0  0.81387  0.48610  0.68334  1.0000
  F   F223      1.0  0.81843  0.99204  0.17971  1.0000
  F   F224      1.0  0.81718  0.97521  0.69437  1.0000
  F   F225      1.0  0.23621  0.13161  0.43890  1.0000
  F   F226      1.0  0.23899  0.13505  0.92437  1.0000
  F   F227      1.0  0.24253  0.64244  0.41065  1.0000
  F   F228      1.0  0.24793  0.64356  0.91480  1.0000
  F   F229      1.0  0.49326  0.11969  0.43488  1.0000
  F   F230      1.0  0.49563  0.13423  0.92283  1.0000
  F   F231      1.0  0.49507  0.62861  0.42760  1.0000
  F   F232      1.0  0.49421  0.63577  0.92528  1.0000
  F   F233      1.0  0.74433  0.13535  0.44210  1.0000
  F   F234      1.0  0.73958  0.14349  0.92935  1.0000
  F   F235      1.0  0.74446  0.65335  0.40934  1.0000
  F   F236      1.0  0.73843  0.64222  0.93102  1.0000
  F   F237      1.0  0.99635  0.13889  0.41960  1.0000
  F   F238      1.0  0.99028  0.14515  0.93449  1.0000
  F   F239      1.0  0.99231  0.63745  0.42880  1.0000
  F   F240      1.0  0.99513  0.64171  0.91950  1.0000
  F   F241      1.0  0.17208  0.02114  0.32920  1.0000
  F   F242      1.0  0.17728  0.02544  0.82070  1.0000
  F   F243      1.0  0.18385  0.51817  0.30730  1.0000
  F   F244      1.0  0.19305  0.51783  0.79790  1.0000
  F   F245      1.0  0.43942  0.01095  0.32291  1.0000
  F   F246      1.0  0.42746  0.00809  0.83782  1.0000
  F   F247      1.0  0.42630  0.50571  0.33107  1.0000
  F   F248      1.0  0.43565  0.50838  0.83257  1.0000
  F   F249      1.0  0.68540  0.01882  0.31589  1.0000
  F   F250      1.0  0.68130  0.01269  0.83413  1.0000
  F   F251      1.0  0.68363  0.51703  0.32178  1.0000
  F   F252      1.0  0.68860  0.51133  0.81053  1.0000
  F   F253      1.0  0.93553  0.01904  0.32186  1.0000
  F   F254      1.0  0.92606  0.01001  0.83877  1.0000
  F   F255      1.0  0.92970  0.51430  0.33063  1.0000
  F   F256      1.0  0.93476  0.51631  0.82687  1.0000
  F   F257      1.0  0.00802  0.26587  0.99253  1.0000
  F   F258      1.0  0.99687  0.24939  0.49928  1.0000
  F   F259      1.0  0.00383  0.75205  0.00147  1.0000
  F   F260      1.0  0.00152  0.75022  0.49590  1.0000
  F   F261      1.0  0.25139  0.25084  0.99613  1.0000
  F   F262      1.0  0.25096  0.26801  0.49399  1.0000
  F   F263      1.0  0.25367  0.74400  0.99178  1.0000
  F   F264      1.0  0.25508  0.75782  0.49590  1.0000
  F   F265      1.0  0.49684  0.24573  0.99492  1.0000
  F   F266      1.0  0.49836  0.24490  0.50589  1.0000
  F   F267      1.0  0.50372  0.75377  0.00645  1.0000
  F   F268      1.0  0.50042  0.76731  0.48507  1.0000
  F   F269      1.0  0.75293  0.24887  0.00064  1.0000
  F   F270      1.0  0.75190  0.25432  0.50518  1.0000
  F   F271      1.0  0.75295  0.76329  0.98931  1.0000
  F   F272      1.0  0.74802  0.74624  0.50056  1.0000
  F   F273      1.0  0.12840  0.99824  0.23991  1.0000
  F   F274      1.0  0.12784  0.01053  0.73212  1.0000
  F   F275      1.0  0.12691  0.50604  0.23977  1.0000
  F   F276      1.0  0.12631  0.50708  0.74580  1.0000
  F   F277      1.0  0.37707  0.99950  0.25574  1.0000
  F   F278      1.0  0.37476  0.99625  0.75544  1.0000
  F   F279      1.0  0.37628  0.50127  0.24275  1.0000
  F   F280      1.0  0.37819  0.48484  0.74423  1.0000
  F   F281      1.0  0.63212  0.99954  0.23403  1.0000
  F   F282      1.0  0.62824  0.00756  0.74253  1.0000
  F   F283      1.0  0.62612  0.49312  0.25067  1.0000
  F   F284      1.0  0.61476  0.50021  0.77723  1.0000
  F   F285      1.0  0.88033  0.99579  0.25290  1.0000
  F   F286      1.0  0.88246  0.99460  0.74131  1.0000
  F   F287      1.0  0.87383  0.49993  0.25340  1.0000
  F   F288      1.0  0.87078  0.50413  0.76543  1.0000
  F   F289      1.0  0.05003  0.02668  0.01015  1.0000
  F   F290      1.0  0.04492  0.03538  0.52380  1.0000
  F   F291      1.0  0.04468  0.53759  0.02463  1.0000
  F   F292      1.0  0.03449  0.53963  0.53113  1.0000
  F   F293      1.0  0.28960  0.02976  0.02726  1.0000
  F   F294      1.0  0.28840  0.03261  0.52937  1.0000
  F   F295      1.0  0.30010  0.52448  0.01318  1.0000
  F   F296      1.0  0.28607  0.53715  0.52625  1.0000
  F   F297      1.0  0.54695  0.03298  0.02759  1.0000
  F   F298      1.0  0.55597  0.02699  0.50459  1.0000
  F   F299      1.0  0.54209  0.52679  0.01964  1.0000
  F   F300      1.0  0.54593  0.53662  0.52615  1.0000
  F   F301      1.0  0.79619  0.03215  0.01140  1.0000
  F   F302      1.0  0.80296  0.02673  0.51218  1.0000
  F   F303      1.0  0.79381  0.54466  0.02124  1.0000
  F   F304      1.0  0.79494  0.53871  0.51604  1.0000
  F   F305      1.0  0.23704  0.40431  0.22819  1.0000
  F   F306      1.0  0.24181  0.38779  0.73565  1.0000
  F   F307      1.0  0.23317  0.90837  0.21708  1.0000
  F   F308      1.0  0.23518  0.92415  0.71453  1.0000
  F   F309      1.0  0.48685  0.41396  0.21938  1.0000
  F   F310      1.0  0.48166  0.42034  0.71942  1.0000
  F   F311      1.0  0.48214  0.91623  0.22362  1.0000
  F   F312      1.0  0.48768  0.91808  0.72366  1.0000
  F   F313      1.0  0.73616  0.41244  0.22669  1.0000
  F   F314      1.0  0.74095  0.38498  0.74673  1.0000
  F   F315      1.0  0.73874  0.89990  0.24096  1.0000
  F   F316      1.0  0.73139  0.91744  0.72577  1.0000
  F   F317      1.0  0.98717  0.40820  0.23310  1.0000
  F   F318      1.0  0.97673  0.42153  0.72831  1.0000
  F   F319      1.0  0.98192  0.92196  0.22368  1.0000
  F   F320      1.0  0.97995  0.93309  0.72275  1.0000
  F   F321      1.0  0.20479  0.46316  0.46292  1.0000
  F   F322      1.0  0.20334  0.47128  0.97994  1.0000
  F   F323      1.0  0.20176  0.96822  0.47971  1.0000
  F   F324      1.0  0.20302  0.97621  0.97529  1.0000
  F   F325      1.0  0.45610  0.46174  0.47698  1.0000
  F   F326      1.0  0.45245  0.47024  0.98886  1.0000
  F   F327      1.0  0.44952  0.95891  0.49108  1.0000
  F   F328      1.0  0.46798  0.96300  0.97110  1.0000
  F   F329      1.0  0.71049  0.46804  0.46979  1.0000
  F   F330      1.0  0.70731  0.47496  0.97585  1.0000
  F   F331      1.0  0.70987  0.97106  0.46980  1.0000
  F   F332      1.0  0.71260  0.96879  0.97205  1.0000
  F   F333      1.0  0.96067  0.47138  0.47328  1.0000
  F   F334      1.0  0.95633  0.45905  0.98960  1.0000
  F   F335      1.0  0.94844  0.97548  0.49267  1.0000
  F   F336      1.0  0.96408  0.97653  0.97137  1.0000
  F   F337      1.0  0.01544  0.09532  0.25948  1.0000
  F   F338      1.0  0.01625  0.08281  0.77405  1.0000
  F   F339      1.0  0.01224  0.60265  0.27024  1.0000
  F   F340      1.0  0.02178  0.58067  0.78074  1.0000
  F   F341      1.0  0.26467  0.08081  0.27415  1.0000
  F   F342      1.0  0.26563  0.09453  0.76490  1.0000
  F   F343      1.0  0.26300  0.58183  0.26882  1.0000
  F   F344      1.0  0.27022  0.57583  0.77139  1.0000
  F   F345      1.0  0.51151  0.09925  0.26459  1.0000
  F   F346      1.0  0.51675  0.07444  0.77123  1.0000
  F   F347      1.0  0.51276  0.57979  0.28528  1.0000
  F   F348      1.0  0.51616  0.56165  0.78971  1.0000
  F   F349      1.0  0.76883  0.08749  0.29150  1.0000
  F   F350      1.0  0.76024  0.09905  0.77610  1.0000
  F   F351      1.0  0.76879  0.57577  0.28261  1.0000
  F   F352      1.0  0.76561  0.58946  0.77720  1.0000
  F   F353      1.0  0.10202  0.42574  0.46693  1.0000
  F   F354      1.0  0.10467  0.41694  0.95737  1.0000
  F   F355      1.0  0.10359  0.89594  0.45572  1.0000
  F   F356      1.0  0.10172  0.89533  0.94001  1.0000
  F   F357      1.0  0.34832  0.41971  0.45744  1.0000
  F   F358      1.0  0.35228  0.39741  0.96586  1.0000
  F   F359      1.0  0.35350  0.92759  0.45638  1.0000
  F   F360      1.0  0.34350  0.90833  0.95891  1.0000
  F   F361      1.0  0.60539  0.40423  0.46885  1.0000
  F   F362      1.0  0.59693  0.38656  0.96999  1.0000
  F   F363      1.0  0.60183  0.89455  0.46148  1.0000
  F   F364      1.0  0.59634  0.91997  0.94440  1.0000
  F   F365      1.0  0.85276  0.41564  0.46406  1.0000
  F   F366      1.0  0.85729  0.42485  0.96825  1.0000
  F   F367      1.0  0.86002  0.91564  0.46109  1.0000
  F   F368      1.0  0.85353  0.89582  0.95631  1.0000
  F   F369      1.0  0.04997  0.30098  0.28413  1.0000
  F   F370      1.0  0.03564  0.30467  0.79195  1.0000
  F   F371      1.0  0.04390  0.79763  0.27594  1.0000
  F   F372      1.0  0.03749  0.80769  0.78775  1.0000
  F   F373      1.0  0.30123  0.29946  0.28540  1.0000
  F   F374      1.0  0.29741  0.29402  0.78972  1.0000
  F   F375      1.0  0.30492  0.80181  0.28236  1.0000
  F   F376      1.0  0.29427  0.79738  0.77275  1.0000
  F   F377      1.0  0.54354  0.28585  0.30407  1.0000
  F   F378      1.0  0.54020  0.29991  0.78690  1.0000
  F   F379      1.0  0.54602  0.80053  0.28063  1.0000
  F   F380      1.0  0.54385  0.79966  0.80219  1.0000
  F   F381      1.0  0.79731  0.29415  0.28595  1.0000
  F   F382      1.0  0.80657  0.28651  0.79315  1.0000
  F   F383      1.0  0.80336  0.80667  0.28498  1.0000
  F   F384      1.0  0.78742  0.79519  0.79904  1.0000
