data_image0
_chemical_formula_structural       Hf96F384
_chemical_formula_sum              "Hf96 F384"
_cell_length_a       31.0498
_cell_length_b       15.5305
_cell_length_c       15.5176
_cell_angle_alpha    63.342
_cell_angle_beta     63.342
_cell_angle_gamma    80.1625

_space_group_name_H-M_alt    "P 1"
_space_group_IT_number       1

loop_
  _space_group_symop_operation_xyz
  'x, y, z'

loop_
  _atom_site_type_symbol
  _atom_site_label
  _atom_site_symmetry_multiplicity
  _atom_site_fract_x
  _atom_site_fract_y
  _atom_site_fract_z
  _atom_site_occupancy
  Hf  Hf1       1.0  0.19629  0.11096  0.37490  1.0000
  Hf  Hf2       1.0  0.19851  0.10885  0.86275  1.0000
  Hf  Hf3       1.0  0.19430  0.60827  0.37708  1.0000
  Hf  Hf4       1.0  0.19451  0.60762  0.88248  1.0000
  Hf  Hf5       1.0  0.44950  0.11389  0.36565  1.0000
  Hf  Hf6       1.0  0.44214  0.10857  0.88197  1.0000
  Hf  Hf7       1.0  0.44905  0.60558  0.37881  1.0000
  Hf  Hf8       1.0  0.44530  0.62016  0.87041  1.0000
  Hf  Hf9       1.0  0.69620  0.11130  0.36945  1.0000
  Hf  Hf10      1.0  0.69761  0.10806  0.86485  1.0000
  Hf  Hf11      1.0  0.69228  0.60439  0.38201  1.0000
  Hf  Hf12      1.0  0.69571  0.60919  0.87373  1.0000
  Hf  Hf13      1.0  0.94654  0.09614  0.38174  1.0000
  Hf  Hf14      1.0  0.94989  0.10675  0.86237  1.0000
  Hf  Hf15      1.0  0.94505  0.61250  0.37046  1.0000
  Hf  Hf16      1.0  0.94573  0.60102  0.88690  1.0000
  Hf  Hf17      1.0  0.05340  0.40333  0.10629  1.0000
  Hf  Hf18      1.0  0.05833  0.40575  0.61453  1.0000
  Hf  Hf19      1.0  0.05499  0.89677  0.12402  1.0000
  Hf  Hf20      1.0  0.05841  0.88744  0.62381  1.0000
  Hf  Hf21      1.0  0.30116  0.40017  0.12702  1.0000
  Hf  Hf22      1.0  0.30121  0.39745  0.63186  1.0000
  Hf  Hf23      1.0  0.30556  0.89667  0.13023  1.0000
  Hf  Hf24      1.0  0.30319  0.89992  0.62238  1.0000
  Hf  Hf25      1.0  0.55415  0.39239  0.12494  1.0000
  Hf  Hf26      1.0  0.55302  0.38995  0.62466  1.0000
  Hf  Hf27      1.0  0.55341  0.89634  0.12571  1.0000
  Hf  Hf28      1.0  0.55167  0.89328  0.62226  1.0000
  Hf  Hf29      1.0  0.80239  0.38112  0.13559  1.0000
  Hf  Hf30      1.0  0.80836  0.38934  0.62489  1.0000
  Hf  Hf31      1.0  0.80258  0.89046  0.12535  1.0000
  Hf  Hf32      1.0  0.80549  0.88924  0.61991  1.0000
  Hf  Hf33      1.0  0.05797  0.17918  0.41461  1.0000
  Hf  Hf34      1.0  0.05845  0.18376  0.91316  1.0000
  Hf  Hf35      1.0  0.05716  0.69301  0.41118  1.0000
  Hf  Hf36      1.0  0.05876  0.68890  0.91503  1.0000
  Hf  Hf37      1.0  0.30478  0.18338  0.41685  1.0000
  Hf  Hf38      1.0  0.30139  0.18457  0.91803  1.0000
  Hf  Hf39      1.0  0.30486  0.67872  0.42366  1.0000
  Hf  Hf40      1.0  0.30544  0.69380  0.90990  1.0000
  Hf  Hf41      1.0  0.55693  0.18407  0.41121  1.0000
  Hf  Hf42      1.0  0.55622  0.18946  0.90627  1.0000
  Hf  Hf43      1.0  0.55766  0.68913  0.40731  1.0000
  Hf  Hf44      1.0  0.55132  0.67843  0.92845  1.0000
  Hf  Hf45      1.0  0.80661  0.18099  0.41623  1.0000
  Hf  Hf46      1.0  0.80582  0.17891  0.91101  1.0000
  Hf  Hf47      1.0  0.80395  0.68327  0.41744  1.0000
  Hf  Hf48      1.0  0.80673  0.67677  0.91798  1.0000
  Hf  Hf49      1.0  0.16282  0.38709  0.33085  1.0000
  Hf  Hf50      1.0  0.15986  0.38526  0.83072  1.0000
  Hf  Hf51      1.0  0.16170  0.88501  0.33249  1.0000
  Hf  Hf52      1.0  0.15897  0.89004  0.83376  1.0000
  Hf  Hf53      1.0  0.40658  0.38554  0.34139  1.0000
  Hf  Hf54      1.0  0.40916  0.39307  0.83148  1.0000
  Hf  Hf55      1.0  0.41214  0.89158  0.32934  1.0000
  Hf  Hf56      1.0  0.40993  0.89152  0.83520  1.0000
  Hf  Hf57      1.0  0.65724  0.39276  0.32934  1.0000
  Hf  Hf58      1.0  0.65835  0.38636  0.83560  1.0000
  Hf  Hf59      1.0  0.65586  0.88212  0.33823  1.0000
  Hf  Hf60      1.0  0.65879  0.88341  0.83577  1.0000
  Hf  Hf61      1.0  0.90909  0.37885  0.34092  1.0000
  Hf  Hf62      1.0  0.90779  0.39130  0.83410  1.0000
  Hf  Hf63      1.0  0.90544  0.88214  0.34079  1.0000
  Hf  Hf64      1.0  0.91368  0.88079  0.82901  1.0000
  Hf  Hf65      1.0  0.19604  0.31986  0.09136  1.0000
  Hf  Hf66      1.0  0.19468  0.31977  0.58139  1.0000
  Hf  Hf67      1.0  0.19001  0.81376  0.08706  1.0000
  Hf  Hf68      1.0  0.19761  0.81249  0.58235  1.0000
  Hf  Hf69      1.0  0.44633  0.32871  0.07239  1.0000
  Hf  Hf70      1.0  0.44002  0.31551  0.59393  1.0000
  Hf  Hf71      1.0  0.44558  0.82208  0.07864  1.0000
  Hf  Hf72      1.0  0.44293  0.81536  0.58289  1.0000
  Hf  Hf73      1.0  0.69192  0.31486  0.07969  1.0000
  Hf  Hf74      1.0  0.69383  0.32179  0.57932  1.0000
  Hf  Hf75      1.0  0.69466  0.81712  0.08714  1.0000
  Hf  Hf76      1.0  0.69154  0.81468  0.58751  1.0000
  Hf  Hf77      1.0  0.94428  0.29980  0.09531  1.0000
  Hf  Hf78      1.0  0.95058  0.31880  0.57920  1.0000
  Hf  Hf79      1.0  0.94140  0.82375  0.07624  1.0000
  Hf  Hf80      1.0  0.94523  0.81904  0.58376  1.0000
  Hf  Hf81      1.0  0.08994  0.11208  0.16213  1.0000
  Hf  Hf82      1.0  0.08955  0.11368  0.66377  1.0000
  Hf  Hf83      1.0  0.08679  0.61076  0.17335  1.0000
  Hf  Hf84      1.0  0.09242  0.60961  0.67235  1.0000
  Hf  Hf85      1.0  0.34403  0.11962  0.15616  1.0000
  Hf  Hf86      1.0  0.34070  0.11216  0.66514  1.0000
  Hf  Hf87      1.0  0.34183  0.61252  0.16987  1.0000
  Hf  Hf88      1.0  0.34027  0.61011  0.67482  1.0000
  Hf  Hf89      1.0  0.59030  0.11577  0.15949  1.0000
  Hf  Hf90      1.0  0.59198  0.10598  0.67023  1.0000
  Hf  Hf91      1.0  0.58935  0.61371  0.17158  1.0000
  Hf  Hf92      1.0  0.58864  0.61007  0.66893  1.0000
  Hf  Hf93      1.0  0.84499  0.10875  0.15891  1.0000
  Hf  Hf94      1.0  0.84715  0.10491  0.66639  1.0000
  Hf  Hf95      1.0  0.84011  0.60623  0.16846  1.0000
  Hf  Hf96      1.0  0.83902  0.60435  0.66469  1.0000
  F   F1        1.0  0.07093  0.12715  0.30853  1.0000
  F   F2        1.0  0.07216  0.12501  0.80521  1.0000
  F   F3        1.0  0.07854  0.64116  0.29789  1.0000
  F   F4        1.0  0.08152  0.62871  0.80686  1.0000
  F   F5        1.0  0.32632  0.12386  0.30777  1.0000
  F   F6        1.0  0.32472  0.11312  0.82004  1.0000
  F   F7        1.0  0.33373  0.63517  0.29815  1.0000
  F   F8        1.0  0.33015  0.63712  0.80201  1.0000
  F   F9        1.0  0.58845  0.15086  0.28375  1.0000
  F   F10       1.0  0.57492  0.12539  0.80607  1.0000
  F   F11       1.0  0.57238  0.61671  0.31443  1.0000
  F   F12       1.0  0.56830  0.60732  0.82994  1.0000
  F   F13       1.0  0.82871  0.12675  0.29939  1.0000
  F   F14       1.0  0.82934  0.12634  0.80057  1.0000
  F   F15       1.0  0.83140  0.62028  0.31073  1.0000
  F   F16       1.0  0.84016  0.62022  0.80667  1.0000
  F   F17       1.0  0.18530  0.34650  0.44919  1.0000
  F   F18       1.0  0.18537  0.34009  0.94838  1.0000
  F   F19       1.0  0.19373  0.84096  0.43907  1.0000
  F   F20       1.0  0.17435  0.83233  0.95981  1.0000
  F   F21       1.0  0.43357  0.34902  0.44871  1.0000
  F   F22       1.0  0.42962  0.35121  0.94755  1.0000
  F   F23       1.0  0.42915  0.82733  0.46041  1.0000
  F   F24       1.0  0.43982  0.85979  0.93308  1.0000
  F   F25       1.0  0.68362  0.34686  0.44538  1.0000
  F   F26       1.0  0.68307  0.33731  0.94345  1.0000
  F   F27       1.0  0.68522  0.83945  0.44232  1.0000
  F   F28       1.0  0.67972  0.82160  0.96571  1.0000
  F   F29       1.0  0.93707  0.32199  0.44688  1.0000
  F   F30       1.0  0.94186  0.32703  0.94773  1.0000
  F   F31       1.0  0.93752  0.84414  0.44957  1.0000
  F   F32       1.0  0.93624  0.83543  0.94483  1.0000
  F   F33       1.0  0.17597  0.39180  0.17991  1.0000
  F   F34       1.0  0.17142  0.35710  0.70420  1.0000
  F   F35       1.0  0.16587  0.85355  0.21024  1.0000
  F   F36       1.0  0.17272  0.88415  0.68409  1.0000
  F   F37       1.0  0.41376  0.35982  0.19481  1.0000
  F   F38       1.0  0.42251  0.37615  0.69175  1.0000
  F   F39       1.0  0.41935  0.86486  0.20409  1.0000
  F   F40       1.0  0.41917  0.85747  0.70173  1.0000
  F   F41       1.0  0.67376  0.37702  0.19246  1.0000
  F   F42       1.0  0.66626  0.37580  0.69263  1.0000
  F   F43       1.0  0.67290  0.88048  0.19548  1.0000
  F   F44       1.0  0.66342  0.85264  0.71122  1.0000
  F   F45       1.0  0.91376  0.34389  0.21165  1.0000
  F   F46       1.0  0.92735  0.37110  0.68944  1.0000
  F   F47       1.0  0.91289  0.84777  0.20013  1.0000
  F   F48       1.0  0.92194  0.87358  0.68945  1.0000
  F   F49       1.0  0.06325  0.15648  0.05352  1.0000
  F   F50       1.0  0.05836  0.13926  0.57024  1.0000
  F   F51       1.0  0.06971  0.66331  0.04945  1.0000
  F   F52       1.0  0.06399  0.67010  0.55485  1.0000
  F   F53       1.0  0.31143  0.16254  0.05446  1.0000
  F   F54       1.0  0.31908  0.16601  0.55148  1.0000
  F   F55       1.0  0.31002  0.66450  0.05941  1.0000
  F   F56       1.0  0.31208  0.65314  0.55853  1.0000
  F   F57       1.0  0.56947  0.15914  0.04455  1.0000
  F   F58       1.0  0.55561  0.14774  0.56133  1.0000
  F   F59       1.0  0.55564  0.65584  0.06465  1.0000
  F   F60       1.0  0.56393  0.66587  0.55890  1.0000
  F   F61       1.0  0.81647  0.14170  0.04760  1.0000
  F   F62       1.0  0.81685  0.15551  0.56128  1.0000
  F   F63       1.0  0.81113  0.64754  0.06414  1.0000
  F   F64       1.0  0.80644  0.64457  0.56934  1.0000
  F   F65       1.0  0.19993  0.20585  0.21950  1.0000
  F   F66       1.0  0.20799  0.19735  0.71150  1.0000
  F   F67       1.0  0.19614  0.69443  0.22289  1.0000
  F   F68       1.0  0.20452  0.71263  0.70891  1.0000
  F   F69       1.0  0.46535  0.20466  0.20225  1.0000
  F   F70       1.0  0.44878  0.20801  0.72603  1.0000
  F   F71       1.0  0.45283  0.70019  0.20898  1.0000
  F   F72       1.0  0.45992  0.70378  0.72031  1.0000
  F   F73       1.0  0.70748  0.19572  0.20355  1.0000
  F   F74       1.0  0.70766  0.20257  0.71153  1.0000
  F   F75       1.0  0.69711  0.71003  0.22139  1.0000
  F   F76       1.0  0.70535  0.70489  0.70448  1.0000
  F   F77       1.0  0.95462  0.18245  0.21289  1.0000
  F   F78       1.0  0.96966  0.19831  0.69640  1.0000
  F   F79       1.0  0.95340  0.69413  0.22371  1.0000
  F   F80       1.0  0.95311  0.70737  0.70109  1.0000
  F   F81       1.0  0.14799  0.08670  0.03423  1.0000
  F   F82       1.0  0.14693  0.10259  0.52811  1.0000
  F   F83       1.0  0.15214  0.59065  0.03370  1.0000
  F   F84       1.0  0.14899  0.58621  0.53464  1.0000
  F   F85       1.0  0.40521  0.10850  0.03917  1.0000
  F   F86       1.0  0.39924  0.09846  0.53328  1.0000
  F   F87       1.0  0.39628  0.59875  0.03538  1.0000
  F   F88       1.0  0.39493  0.59653  0.55094  1.0000
  F   F89       1.0  0.64678  0.07644  0.05218  1.0000
  F   F90       1.0  0.64709  0.10740  0.53568  1.0000
  F   F91       1.0  0.64721  0.59032  0.03198  1.0000
  F   F92       1.0  0.64681  0.58897  0.53583  1.0000
  F   F93       1.0  0.89849  0.08709  0.03727  1.0000
  F   F94       1.0  0.90276  0.07881  0.54378  1.0000
  F   F95       1.0  0.90488  0.60689  0.03935  1.0000
  F   F96       1.0  0.89458  0.57701  0.53880  1.0000
  F   F97       1.0  0.14526  0.19908  0.12157  1.0000
  F   F98       1.0  0.15217  0.20234  0.62840  1.0000
  F   F99       1.0  0.15121  0.68888  0.11883  1.0000
  F   F100      1.0  0.15483  0.69148  0.61580  1.0000
  F   F101      1.0  0.39978  0.21873  0.13484  1.0000
  F   F102      1.0  0.39658  0.19482  0.65271  1.0000
  F   F103      1.0  0.39979  0.71036  0.10968  1.0000
  F   F104      1.0  0.40433  0.69211  0.63335  1.0000
  F   F105      1.0  0.65092  0.19983  0.11062  1.0000
  F   F106      1.0  0.65148  0.19629  0.63012  1.0000
  F   F107      1.0  0.64674  0.68598  0.14374  1.0000
  F   F108      1.0  0.64698  0.68656  0.64543  1.0000
  F   F109      1.0  0.90098  0.19353  0.12298  1.0000
  F   F110      1.0  0.90582  0.19236  0.62973  1.0000
  F   F111      1.0  0.89863  0.69980  0.13347  1.0000
  F   F112      1.0  0.89450  0.69863  0.61748  1.0000
  F   F113      1.0  0.10932  0.30240  0.37336  1.0000
  F   F114      1.0  0.09854  0.31358  0.87185  1.0000
  F   F115      1.0  0.09850  0.80545  0.37168  1.0000
  F   F116      1.0  0.09720  0.81089  0.88082  1.0000
  F   F117      1.0  0.34278  0.29904  0.38881  1.0000
  F   F118      1.0  0.34704  0.29938  0.85580  1.0000
  F   F119      1.0  0.35033  0.81056  0.37047  1.0000
  F   F120      1.0  0.34976  0.80796  0.85676  1.0000
  F   F121      1.0  0.60722  0.29395  0.37997  1.0000
  F   F122      1.0  0.59017  0.31980  0.87008  1.0000
  F   F123      1.0  0.59600  0.80829  0.37095  1.0000
  F   F124      1.0  0.60226  0.79348  0.89349  1.0000
  F   F125      1.0  0.84683  0.29811  0.38339  1.0000
  F   F126      1.0  0.84963  0.29997  0.86017  1.0000
  F   F127      1.0  0.84571  0.80555  0.37679  1.0000
  F   F128      1.0  0.85559  0.78888  0.86696  1.0000
  F   F129      1.0  0.05724  0.25384  0.14758  1.0000
  F   F130      1.0  0.07168  0.25878  0.62421  1.0000
  F   F131      1.0  0.06513  0.75549  0.14316  1.0000
  F   F132      1.0  0.06163  0.74632  0.66138  1.0000
  F   F133      1.0  0.32277  0.26177  0.12385  1.0000
  F   F134      1.0  0.31759  0.25041  0.64579  1.0000
  F   F135      1.0  0.31979  0.75664  0.13781  1.0000
  F   F136      1.0  0.31146  0.75335  0.65273  1.0000
  F   F137      1.0  0.56218  0.25416  0.13227  1.0000
  F   F138      1.0  0.56339  0.24259  0.64440  1.0000
  F   F139      1.0  0.56602  0.74531  0.13724  1.0000
  F   F140      1.0  0.56535  0.75397  0.64771  1.0000
  F   F141      1.0  0.80825  0.24902  0.14122  1.0000
  F   F142      1.0  0.82009  0.24483  0.64914  1.0000
  F   F143      1.0  0.81461  0.75326  0.13709  1.0000
  F   F144      1.0  0.80883  0.75036  0.64675  1.0000
  F   F145      1.0  0.12531  0.37007  0.10291  1.0000
  F   F146      1.0  0.12729  0.37944  0.60909  1.0000
  F   F147      1.0  0.12508  0.88893  0.09900  1.0000
  F   F148      1.0  0.12779  0.84594  0.63294  1.0000
  F   F149      1.0  0.36846  0.40803  0.09207  1.0000
  F   F150      1.0  0.36759  0.38200  0.61169  1.0000
  F   F151      1.0  0.37606  0.88042  0.09824  1.0000
  F   F152      1.0  0.36717  0.85402  0.63086  1.0000
  F   F153      1.0  0.62437  0.38028  0.10065  1.0000
  F   F154      1.0  0.61778  0.36794  0.61715  1.0000
  F   F155      1.0  0.62749  0.86125  0.12474  1.0000
  F   F156      1.0  0.62510  0.88297  0.59343  1.0000
  F   F157      1.0  0.87692  0.36498  0.10029  1.0000
  F   F158      1.0  0.88166  0.37313  0.60079  1.0000
  F   F159      1.0  0.87616  0.89337  0.07811  1.0000
  F   F160      1.0  0.87226  0.86647  0.61153  1.0000
  F   F161      1.0  0.19451  0.25785  0.35219  1.0000
  F   F162      1.0  0.18729  0.24504  0.86611  1.0000
  F   F163      1.0  0.18257  0.74323  0.37343  1.0000
  F   F164      1.0  0.18966  0.75277  0.84963  1.0000
  F   F165      1.0  0.43408  0.24890  0.36266  1.0000
  F   F166      1.0  0.42130  0.25329  0.87467  1.0000
  F   F167      1.0  0.44076  0.75940  0.34054  1.0000
  F   F168      1.0  0.42876  0.75566  0.86090  1.0000
  F   F169      1.0  0.69530  0.25455  0.34006  1.0000
  F   F170      1.0  0.68050  0.25134  0.86298  1.0000
  F   F171      1.0  0.67757  0.74252  0.37560  1.0000
  F   F172      1.0  0.69240  0.74805  0.85308  1.0000
  F   F173      1.0  0.93246  0.23997  0.36598  1.0000
  F   F174      1.0  0.93643  0.24675  0.84979  1.0000
  F   F175      1.0  0.93039  0.74807  0.36741  1.0000
  F   F176      1.0  0.93844  0.73902  0.85117  1.0000
  F   F177      1.0  0.12477  0.13496  0.38020  1.0000
  F   F178      1.0  0.12989  0.14011  0.87409  1.0000
  F   F179      1.0  0.12699  0.63655  0.38230  1.0000
  F   F180      1.0  0.12424  0.63011  0.89456  1.0000
  F   F181      1.0  0.37701  0.12782  0.39070  1.0000
  F   F182      1.0  0.37393  0.12439  0.89152  1.0000
  F   F183      1.0  0.37869  0.63670  0.39644  1.0000
  F   F184      1.0  0.37274  0.62861  0.89995  1.0000
  F   F185      1.0  0.62689  0.12687  0.40202  1.0000
  F   F186      1.0  0.62864  0.13567  0.88157  1.0000
  F   F187      1.0  0.62379  0.63093  0.39117  1.0000
  F   F188      1.0  0.62310  0.63237  0.88622  1.0000
  F   F189      1.0  0.87612  0.12762  0.38380  1.0000
  F   F190      1.0  0.88080  0.12525  0.87506  1.0000
  F   F191      1.0  0.87754  0.64727  0.37497  1.0000
  F   F192      1.0  0.87394  0.60603  0.91816  1.0000
  F   F193      1.0  0.00293  0.37460  0.07075  1.0000
  F   F194      1.0  0.01685  0.37153  0.56388  1.0000
  F   F195      1.0  0.00547  0.86478  0.08457  1.0000
  F   F196      1.0  0.01052  0.85856  0.56475  1.0000
  F   F197      1.0  0.25841  0.35559  0.07723  1.0000
  F   F198      1.0  0.25829  0.36254  0.58130  1.0000
  F   F199      1.0  0.25580  0.86394  0.09198  1.0000
  F   F200      1.0  0.26253  0.86826  0.55371  1.0000
  F   F201      1.0  0.50996  0.36240  0.05841  1.0000
  F   F202      1.0  0.50519  0.36281  0.57081  1.0000
  F   F203      1.0  0.51053  0.88255  0.06676  1.0000
  F   F204      1.0  0.50722  0.86353  0.56983  1.0000
  F   F205      1.0  0.75696  0.36828  0.08126  1.0000
  F   F206      1.0  0.75887  0.35968  0.58462  1.0000
  F   F207      1.0  0.76257  0.85935  0.06037  1.0000
  F   F208      1.0  0.75394  0.86171  0.57913  1.0000
  F   F209      1.0  0.06786  0.48740  0.17122  1.0000
  F   F210      1.0  0.07019  0.47923  0.68487  1.0000
  F   F211      1.0  0.06376  0.98458  0.18461  1.0000
  F   F212      1.0  0.07229  0.98552  0.66498  1.0000
  F   F213      1.0  0.30602  0.49744  0.18944  1.0000
  F   F214      1.0  0.30838  0.49229  0.68810  1.0000
  F   F215      1.0  0.32272  0.99345  0.17600  1.0000
  F   F216      1.0  0.32824  0.98266  0.66785  1.0000
  F   F217      1.0  0.57008  0.47838  0.17324  1.0000
  F   F218      1.0  0.56723  0.48002  0.68342  1.0000
  F   F219      1.0  0.56472  0.98810  0.17626  1.0000
  F   F220      1.0  0.57530  0.98480  0.66850  1.0000
  F   F221      1.0  0.81687  0.47453  0.19048  1.0000
  F   F222      1.0  0.82140  0.47210  0.67748  1.0000
  F   F223      1.0  0.81810  0.98112  0.18017  1.0000
  F   F224      1.0  0.81035  0.96914  0.70197  1.0000
  F   F225      1.0  0.24394  0.12597  0.43412  1.0000
  F   F226      1.0  0.23780  0.12137  0.93621  1.0000
  F   F227      1.0  0.24315  0.63599  0.43016  1.0000
  F   F228      1.0  0.24314  0.64270  0.93355  1.0000
  F   F229      1.0  0.49584  0.15365  0.40583  1.0000
  F   F230      1.0  0.49366  0.15041  0.89731  1.0000
  F   F231      1.0  0.49000  0.63752  0.43379  1.0000
  F   F232      1.0  0.48568  0.65463  0.93107  1.0000
  F   F233      1.0  0.74045  0.11826  0.44245  1.0000
  F   F234      1.0  0.74077  0.14213  0.93368  1.0000
  F   F235      1.0  0.74192  0.63419  0.43163  1.0000
  F   F236      1.0  0.73954  0.62082  0.93083  1.0000
  F   F237      1.0  0.99380  0.13318  0.43871  1.0000
  F   F238      1.0  0.99290  0.14188  0.91907  1.0000
  F   F239      1.0  0.99341  0.63951  0.41914  1.0000
  F   F240      1.0  0.99653  0.64671  0.91977  1.0000
  F   F241      1.0  0.18163  0.01708  0.32517  1.0000
  F   F242      1.0  0.17719  0.01753  0.82297  1.0000
  F   F243      1.0  0.18731  0.52066  0.32532  1.0000
  F   F244      1.0  0.17710  0.53204  0.82076  1.0000
  F   F245      1.0  0.43511  0.01680  0.32315  1.0000
  F   F246      1.0  0.43189  0.02287  0.82492  1.0000
  F   F247      1.0  0.42887  0.51086  0.33016  1.0000
  F   F248      1.0  0.42997  0.52400  0.82461  1.0000
  F   F249      1.0  0.67519  0.01791  0.32350  1.0000
  F   F250      1.0  0.68547  0.00868  0.81609  1.0000
  F   F251      1.0  0.67418  0.52360  0.32191  1.0000
  F   F252      1.0  0.68354  0.50935  0.81765  1.0000
  F   F253      1.0  0.92655  0.00836  0.34455  1.0000
  F   F254      1.0  0.93524  0.00627  0.81169  1.0000
  F   F255      1.0  0.92348  0.50471  0.34520  1.0000
  F   F256      1.0  0.92985  0.52168  0.82594  1.0000
  F   F257      1.0  0.00291  0.23796  0.01410  1.0000
  F   F258      1.0  0.01120  0.26679  0.49532  1.0000
  F   F259      1.0  0.00270  0.75250  0.00863  1.0000
  F   F260      1.0  0.00023  0.74147  0.50425  1.0000
  F   F261      1.0  0.24278  0.23603  0.01391  1.0000
  F   F262      1.0  0.25428  0.25382  0.49208  1.0000
  F   F263      1.0  0.25337  0.76981  0.99470  1.0000
  F   F264      1.0  0.24886  0.74584  0.51144  1.0000
  F   F265      1.0  0.49529  0.22730  0.00416  1.0000
  F   F266      1.0  0.49573  0.24636  0.50240  1.0000
  F   F267      1.0  0.50352  0.76449  0.00110  1.0000
  F   F268      1.0  0.49903  0.74747  0.50283  1.0000
  F   F269      1.0  0.74993  0.25474  0.99672  1.0000
  F   F270      1.0  0.74981  0.25957  0.49817  1.0000
  F   F271      1.0  0.74496  0.73302  0.02020  1.0000
  F   F272      1.0  0.75037  0.74868  0.50407  1.0000
  F   F273      1.0  0.13065  0.99831  0.25073  1.0000
  F   F274      1.0  0.12221  0.00677  0.75028  1.0000
  F   F275      1.0  0.12440  0.50787  0.24936  1.0000
  F   F276      1.0  0.13271  0.49160  0.73801  1.0000
  F   F277      1.0  0.38222  0.01979  0.23376  1.0000
  F   F278      1.0  0.38167  0.00641  0.74042  1.0000
  F   F279      1.0  0.37770  0.49657  0.24106  1.0000
  F   F280      1.0  0.37097  0.49490  0.75061  1.0000
  F   F281      1.0  0.61253  0.00242  0.26512  1.0000
  F   F282      1.0  0.62022  0.99178  0.76019  1.0000
  F   F283      1.0  0.61849  0.49228  0.25429  1.0000
  F   F284      1.0  0.62109  0.50125  0.75056  1.0000
  F   F285      1.0  0.88218  0.99913  0.23825  1.0000
  F   F286      1.0  0.87664  0.98965  0.74568  1.0000
  F   F287      1.0  0.87695  0.49137  0.25520  1.0000
  F   F288      1.0  0.87558  0.50036  0.73766  1.0000
  F   F289      1.0  0.04883  0.03707  0.02091  1.0000
  F   F290      1.0  0.04049  0.01791  0.53038  1.0000
  F   F291      1.0  0.03694  0.53744  0.02973  1.0000
  F   F292      1.0  0.04938  0.54150  0.51432  1.0000
  F   F293      1.0  0.28951  0.03508  0.02138  1.0000
  F   F294      1.0  0.28527  0.03053  0.54656  1.0000
  F   F295      1.0  0.29640  0.53497  0.01592  1.0000
  F   F296      1.0  0.29160  0.52814  0.52727  1.0000
  F   F297      1.0  0.53994  0.04452  0.02096  1.0000
  F   F298      1.0  0.54774  0.02616  0.51005  1.0000
  F   F299      1.0  0.53251  0.52631  0.03332  1.0000
  F   F300      1.0  0.54904  0.53000  0.51635  1.0000
  F   F301      1.0  0.80108  0.01862  0.00233  1.0000
  F   F302      1.0  0.79493  0.02757  0.52736  1.0000
  F   F303      1.0  0.79309  0.53076  0.02545  1.0000
  F   F304      1.0  0.79819  0.52439  0.52428  1.0000
  F   F305      1.0  0.23568  0.42256  0.23018  1.0000
  F   F306      1.0  0.23178  0.42270  0.73224  1.0000
  F   F307      1.0  0.23628  0.91972  0.23920  1.0000
  F   F308      1.0  0.23521  0.91695  0.72695  1.0000
  F   F309      1.0  0.48063  0.40107  0.23148  1.0000
  F   F310      1.0  0.48155  0.42309  0.73216  1.0000
  F   F311      1.0  0.48473  0.92278  0.22264  1.0000
  F   F312      1.0  0.48493  0.90802  0.72035  1.0000
  F   F313      1.0  0.73647  0.41820  0.22209  1.0000
  F   F314      1.0  0.74129  0.41084  0.72915  1.0000
  F   F315      1.0  0.73528  0.92211  0.22020  1.0000
  F   F316      1.0  0.72891  0.89810  0.72812  1.0000
  F   F317      1.0  0.98113  0.41405  0.22442  1.0000
  F   F318      1.0  0.98438  0.41761  0.73740  1.0000
  F   F319      1.0  0.97631  0.92450  0.21882  1.0000
  F   F320      1.0  0.99143  0.89682  0.72721  1.0000
  F   F321      1.0  0.20870  0.46620  0.48294  1.0000
  F   F322      1.0  0.20937  0.46661  0.97437  1.0000
  F   F323      1.0  0.19595  0.97289  0.48093  1.0000
  F   F324      1.0  0.20838  0.94923  0.97094  1.0000
  F   F325      1.0  0.45555  0.47001  0.47423  1.0000
  F   F326      1.0  0.45772  0.47930  0.97651  1.0000
  F   F327      1.0  0.45058  0.96548  0.49065  1.0000
  F   F328      1.0  0.44823  0.97514  0.00583  1.0000
  F   F329      1.0  0.70957  0.47078  0.47172  1.0000
  F   F330      1.0  0.71267  0.46385  0.96466  1.0000
  F   F331      1.0  0.70197  0.96823  0.49122  1.0000
  F   F332      1.0  0.70350  0.97450  0.96104  1.0000
  F   F333      1.0  0.96697  0.45984  0.46189  1.0000
  F   F334      1.0  0.95324  0.47147  0.99475  1.0000
  F   F335      1.0  0.95679  0.96401  0.48026  1.0000
  F   F336      1.0  0.95739  0.97735  0.96784  1.0000
  F   F337      1.0  0.01360  0.06837  0.28601  1.0000
  F   F338      1.0  0.01775  0.06120  0.77927  1.0000
  F   F339      1.0  0.01611  0.57653  0.28885  1.0000
  F   F340      1.0  0.01761  0.57728  0.77899  1.0000
  F   F341      1.0  0.26588  0.11051  0.26030  1.0000
  F   F342      1.0  0.26820  0.07739  0.75905  1.0000
  F   F343      1.0  0.26227  0.59534  0.28831  1.0000
  F   F344      1.0  0.26448  0.58322  0.77801  1.0000
  F   F345      1.0  0.52376  0.06057  0.30241  1.0000
  F   F346      1.0  0.51404  0.07736  0.78656  1.0000
  F   F347      1.0  0.51512  0.57440  0.28207  1.0000
  F   F348      1.0  0.51397  0.59331  0.77049  1.0000
  F   F349      1.0  0.76608  0.08217  0.27494  1.0000
  F   F350      1.0  0.76498  0.09103  0.77439  1.0000
  F   F351      1.0  0.76292  0.58488  0.27855  1.0000
  F   F352      1.0  0.76734  0.58195  0.78312  1.0000
  F   F353      1.0  0.10854  0.42313  0.45770  1.0000
  F   F354      1.0  0.09283  0.42993  0.94304  1.0000
  F   F355      1.0  0.10581  0.89552  0.46793  1.0000
  F   F356      1.0  0.09454  0.91236  0.96992  1.0000
  F   F357      1.0  0.35050  0.40274  0.46532  1.0000
  F   F358      1.0  0.35035  0.40613  0.95249  1.0000
  F   F359      1.0  0.35398  0.90618  0.46213  1.0000
  F   F360      1.0  0.35160  0.91228  0.94234  1.0000
  F   F361      1.0  0.60124  0.40764  0.45933  1.0000
  F   F362      1.0  0.60191  0.40767  0.96248  1.0000
  F   F363      1.0  0.59768  0.89669  0.45933  1.0000
  F   F364      1.0  0.60366  0.90762  0.97418  1.0000
  F   F365      1.0  0.84887  0.39471  0.46775  1.0000
  F   F366      1.0  0.84844  0.39753  0.95218  1.0000
  F   F367      1.0  0.85270  0.89245  0.46966  1.0000
  F   F368      1.0  0.85095  0.89321  0.95619  1.0000
  F   F369      1.0  0.05123  0.29957  0.29840  1.0000
  F   F370      1.0  0.05052  0.29738  0.79484  1.0000
  F   F371      1.0  0.04883  0.80414  0.27796  1.0000
  F   F372      1.0  0.04313  0.79769  0.80491  1.0000
  F   F373      1.0  0.30054  0.28892  0.28680  1.0000
  F   F374      1.0  0.28249  0.29747  0.79870  1.0000
  F   F375      1.0  0.30092  0.80250  0.28997  1.0000
  F   F376      1.0  0.28787  0.80632  0.79331  1.0000
  F   F377      1.0  0.54498  0.31095  0.28864  1.0000
  F   F378      1.0  0.54651  0.30361  0.77882  1.0000
  F   F379      1.0  0.54248  0.79012  0.29177  1.0000
  F   F380      1.0  0.54665  0.78902  0.79626  1.0000
  F   F381      1.0  0.79172  0.28135  0.29532  1.0000
  F   F382      1.0  0.79422  0.29518  0.78602  1.0000
  F   F383      1.0  0.80342  0.79360  0.28530  1.0000
  F   F384      1.0  0.79032  0.77925  0.79408  1.0000
