data_image0
_chemical_formula_structural       Hf96F384
_chemical_formula_sum              "Hf96 F384"
_cell_length_a       31.0226
_cell_length_b       15.5107
_cell_length_c       15.504
_cell_angle_alpha    63.342
_cell_angle_beta     63.342
_cell_angle_gamma    80.1625

_space_group_name_H-M_alt    "P 1"
_space_group_IT_number       1

loop_
  _space_group_symop_operation_xyz
  'x, y, z'

loop_
  _atom_site_type_symbol
  _atom_site_label
  _atom_site_symmetry_multiplicity
  _atom_site_fract_x
  _atom_site_fract_y
  _atom_site_fract_z
  _atom_site_occupancy
  Hf  Hf1       1.0  0.19478  0.11428  0.37340  1.0000
  Hf  Hf2       1.0  0.19513  0.10026  0.88157  1.0000
  Hf  Hf3       1.0  0.19734  0.60993  0.37392  1.0000
  Hf  Hf4       1.0  0.19470  0.60694  0.87454  1.0000
  Hf  Hf5       1.0  0.44889  0.11039  0.35982  1.0000
  Hf  Hf6       1.0  0.44659  0.10193  0.87864  1.0000
  Hf  Hf7       1.0  0.44382  0.60151  0.38446  1.0000
  Hf  Hf8       1.0  0.44485  0.59821  0.88458  1.0000
  Hf  Hf9       1.0  0.69581  0.11084  0.37525  1.0000
  Hf  Hf10      1.0  0.69782  0.11357  0.86739  1.0000
  Hf  Hf11      1.0  0.69416  0.60829  0.37714  1.0000
  Hf  Hf12      1.0  0.69995  0.60439  0.87515  1.0000
  Hf  Hf13      1.0  0.94498  0.10219  0.37838  1.0000
  Hf  Hf14      1.0  0.94566  0.11200  0.87925  1.0000
  Hf  Hf15      1.0  0.94321  0.60435  0.38183  1.0000
  Hf  Hf16      1.0  0.94935  0.61021  0.86595  1.0000
  Hf  Hf17      1.0  0.05294  0.40138  0.11781  1.0000
  Hf  Hf18      1.0  0.05279  0.40128  0.61362  1.0000
  Hf  Hf19      1.0  0.05537  0.89709  0.12210  1.0000
  Hf  Hf20      1.0  0.05753  0.90298  0.61581  1.0000
  Hf  Hf21      1.0  0.30187  0.39672  0.12750  1.0000
  Hf  Hf22      1.0  0.29938  0.38837  0.62901  1.0000
  Hf  Hf23      1.0  0.30481  0.89385  0.12412  1.0000
  Hf  Hf24      1.0  0.30643  0.89294  0.61871  1.0000
  Hf  Hf25      1.0  0.55865  0.39085  0.12074  1.0000
  Hf  Hf26      1.0  0.54988  0.38575  0.62891  1.0000
  Hf  Hf27      1.0  0.55363  0.89492  0.12473  1.0000
  Hf  Hf28      1.0  0.55592  0.88308  0.62815  1.0000
  Hf  Hf29      1.0  0.80210  0.39872  0.13408  1.0000
  Hf  Hf30      1.0  0.80156  0.39541  0.62650  1.0000
  Hf  Hf31      1.0  0.80556  0.89347  0.12660  1.0000
  Hf  Hf32      1.0  0.80504  0.88966  0.62591  1.0000
  Hf  Hf33      1.0  0.05321  0.19289  0.41328  1.0000
  Hf  Hf34      1.0  0.05388  0.18709  0.92121  1.0000
  Hf  Hf35      1.0  0.05794  0.69024  0.40692  1.0000
  Hf  Hf36      1.0  0.05743  0.69310  0.91604  1.0000
  Hf  Hf37      1.0  0.30668  0.18255  0.41698  1.0000
  Hf  Hf38      1.0  0.30681  0.17458  0.92061  1.0000
  Hf  Hf39      1.0  0.30299  0.68149  0.41855  1.0000
  Hf  Hf40      1.0  0.30554  0.68013  0.91695  1.0000
  Hf  Hf41      1.0  0.55842  0.18655  0.40952  1.0000
  Hf  Hf42      1.0  0.55872  0.17987  0.91361  1.0000
  Hf  Hf43      1.0  0.55478  0.68270  0.41764  1.0000
  Hf  Hf44      1.0  0.56107  0.68137  0.91557  1.0000
  Hf  Hf45      1.0  0.80406  0.18126  0.41987  1.0000
  Hf  Hf46      1.0  0.80369  0.17690  0.92020  1.0000
  Hf  Hf47      1.0  0.80365  0.67801  0.42247  1.0000
  Hf  Hf48      1.0  0.80562  0.68696  0.91829  1.0000
  Hf  Hf49      1.0  0.15625  0.39029  0.33157  1.0000
  Hf  Hf50      1.0  0.15850  0.38840  0.82929  1.0000
  Hf  Hf51      1.0  0.15865  0.88867  0.33254  1.0000
  Hf  Hf52      1.0  0.15836  0.88986  0.83579  1.0000
  Hf  Hf53      1.0  0.41156  0.38613  0.33569  1.0000
  Hf  Hf54      1.0  0.40644  0.37828  0.83605  1.0000
  Hf  Hf55      1.0  0.40932  0.88872  0.32724  1.0000
  Hf  Hf56      1.0  0.41035  0.89057  0.83120  1.0000
  Hf  Hf57      1.0  0.65952  0.39163  0.32922  1.0000
  Hf  Hf58      1.0  0.65602  0.38861  0.83319  1.0000
  Hf  Hf59      1.0  0.66229  0.88667  0.32690  1.0000
  Hf  Hf60      1.0  0.66037  0.89379  0.82720  1.0000
  Hf  Hf61      1.0  0.90527  0.38044  0.34073  1.0000
  Hf  Hf62      1.0  0.90894  0.38927  0.83343  1.0000
  Hf  Hf63      1.0  0.90792  0.88347  0.33222  1.0000
  Hf  Hf64      1.0  0.91102  0.89145  0.83565  1.0000
  Hf  Hf65      1.0  0.19746  0.31498  0.07724  1.0000
  Hf  Hf66      1.0  0.19690  0.31616  0.58177  1.0000
  Hf  Hf67      1.0  0.19601  0.81732  0.08359  1.0000
  Hf  Hf68      1.0  0.19223  0.81865  0.58240  1.0000
  Hf  Hf69      1.0  0.44484  0.31497  0.08202  1.0000
  Hf  Hf70      1.0  0.44259  0.31051  0.59085  1.0000
  Hf  Hf71      1.0  0.44735  0.81353  0.07888  1.0000
  Hf  Hf72      1.0  0.44316  0.81405  0.58456  1.0000
  Hf  Hf73      1.0  0.69582  0.31732  0.08179  1.0000
  Hf  Hf74      1.0  0.69033  0.31437  0.58714  1.0000
  Hf  Hf75      1.0  0.69423  0.81827  0.08140  1.0000
  Hf  Hf76      1.0  0.69286  0.81354  0.58610  1.0000
  Hf  Hf77      1.0  0.94593  0.31873  0.08061  1.0000
  Hf  Hf78      1.0  0.94377  0.31367  0.58645  1.0000
  Hf  Hf79      1.0  0.94350  0.80864  0.09162  1.0000
  Hf  Hf80      1.0  0.94494  0.82249  0.57993  1.0000
  Hf  Hf81      1.0  0.09319  0.11822  0.16994  1.0000
  Hf  Hf82      1.0  0.08897  0.11285  0.67550  1.0000
  Hf  Hf83      1.0  0.09356  0.61289  0.16840  1.0000
  Hf  Hf84      1.0  0.09303  0.61819  0.66108  1.0000
  Hf  Hf85      1.0  0.34008  0.11393  0.16709  1.0000
  Hf  Hf86      1.0  0.34341  0.11482  0.66005  1.0000
  Hf  Hf87      1.0  0.34602  0.61350  0.16395  1.0000
  Hf  Hf88      1.0  0.33602  0.60852  0.66976  1.0000
  Hf  Hf89      1.0  0.59019  0.11330  0.16507  1.0000
  Hf  Hf90      1.0  0.58626  0.10817  0.66753  1.0000
  Hf  Hf91      1.0  0.59040  0.60120  0.17188  1.0000
  Hf  Hf92      1.0  0.58945  0.61185  0.66725  1.0000
  Hf  Hf93      1.0  0.84067  0.11613  0.16742  1.0000
  Hf  Hf94      1.0  0.83865  0.11324  0.66780  1.0000
  Hf  Hf95      1.0  0.84087  0.61156  0.16455  1.0000
  Hf  Hf96      1.0  0.84233  0.61964  0.66230  1.0000
  F   F1        1.0  0.08395  0.14324  0.30018  1.0000
  F   F2        1.0  0.07875  0.13064  0.80848  1.0000
  F   F3        1.0  0.07973  0.64202  0.29114  1.0000
  F   F4        1.0  0.08772  0.63780  0.79727  1.0000
  F   F5        1.0  0.31916  0.12109  0.31617  1.0000
  F   F6        1.0  0.33109  0.13269  0.79924  1.0000
  F   F7        1.0  0.32772  0.62979  0.30786  1.0000
  F   F8        1.0  0.32986  0.63625  0.79669  1.0000
  F   F9        1.0  0.58800  0.14116  0.28940  1.0000
  F   F10       1.0  0.57563  0.11032  0.81371  1.0000
  F   F11       1.0  0.58174  0.61405  0.30226  1.0000
  F   F12       1.0  0.57912  0.61446  0.80384  1.0000
  F   F13       1.0  0.83378  0.13272  0.29811  1.0000
  F   F14       1.0  0.82334  0.10720  0.81361  1.0000
  F   F15       1.0  0.82800  0.63333  0.29303  1.0000
  F   F16       1.0  0.82563  0.63161  0.80540  1.0000
  F   F17       1.0  0.17647  0.34178  0.44909  1.0000
  F   F18       1.0  0.19111  0.35094  0.93798  1.0000
  F   F19       1.0  0.18112  0.83620  0.45487  1.0000
  F   F20       1.0  0.18584  0.84268  0.95173  1.0000
  F   F21       1.0  0.43516  0.33638  0.45118  1.0000
  F   F22       1.0  0.42907  0.33313  0.95838  1.0000
  F   F23       1.0  0.43367  0.84300  0.44408  1.0000
  F   F24       1.0  0.44275  0.83941  0.93509  1.0000
  F   F25       1.0  0.68356  0.33696  0.44752  1.0000
  F   F26       1.0  0.68513  0.34581  0.93778  1.0000
  F   F27       1.0  0.68945  0.84245  0.44584  1.0000
  F   F28       1.0  0.68671  0.85451  0.94010  1.0000
  F   F29       1.0  0.92653  0.32639  0.46918  1.0000
  F   F30       1.0  0.94044  0.34258  0.94271  1.0000
  F   F31       1.0  0.93406  0.83938  0.45369  1.0000
  F   F32       1.0  0.94119  0.84243  0.94704  1.0000
  F   F33       1.0  0.17058  0.36564  0.18774  1.0000
  F   F34       1.0  0.16696  0.36198  0.69891  1.0000
  F   F35       1.0  0.17331  0.88961  0.18593  1.0000
  F   F36       1.0  0.17296  0.86892  0.69360  1.0000
  F   F37       1.0  0.42028  0.36473  0.19218  1.0000
  F   F38       1.0  0.41994  0.35847  0.70481  1.0000
  F   F39       1.0  0.42327  0.87029  0.18954  1.0000
  F   F40       1.0  0.42355  0.88152  0.69036  1.0000
  F   F41       1.0  0.66859  0.35593  0.20746  1.0000
  F   F42       1.0  0.66852  0.36086  0.69331  1.0000
  F   F43       1.0  0.67355  0.89057  0.18204  1.0000
  F   F44       1.0  0.67477  0.85959  0.69552  1.0000
  F   F45       1.0  0.92068  0.37306  0.19335  1.0000
  F   F46       1.0  0.91576  0.37693  0.69262  1.0000
  F   F47       1.0  0.91567  0.86231  0.20879  1.0000
  F   F48       1.0  0.91840  0.86941  0.69503  1.0000
  F   F49       1.0  0.07383  0.15542  0.04956  1.0000
  F   F50       1.0  0.06919  0.16290  0.54083  1.0000
  F   F51       1.0  0.06312  0.66102  0.06112  1.0000
  F   F52       1.0  0.06704  0.67429  0.54528  1.0000
  F   F53       1.0  0.30806  0.16019  0.06539  1.0000
  F   F54       1.0  0.31749  0.15890  0.54708  1.0000
  F   F55       1.0  0.31665  0.65919  0.05313  1.0000
  F   F56       1.0  0.31227  0.64707  0.55802  1.0000
  F   F57       1.0  0.55981  0.15921  0.05154  1.0000
  F   F58       1.0  0.56065  0.14873  0.55265  1.0000
  F   F59       1.0  0.56888  0.65772  0.05230  1.0000
  F   F60       1.0  0.55717  0.64470  0.55726  1.0000
  F   F61       1.0  0.80673  0.14899  0.07085  1.0000
  F   F62       1.0  0.80518  0.15549  0.56107  1.0000
  F   F63       1.0  0.80665  0.64059  0.06550  1.0000
  F   F64       1.0  0.81585  0.65277  0.55195  1.0000
  F   F65       1.0  0.20318  0.20656  0.20443  1.0000
  F   F66       1.0  0.20150  0.19916  0.71577  1.0000
  F   F67       1.0  0.20683  0.70151  0.20693  1.0000
  F   F68       1.0  0.20480  0.69803  0.70586  1.0000
  F   F69       1.0  0.46673  0.20868  0.19157  1.0000
  F   F70       1.0  0.44962  0.19339  0.73123  1.0000
  F   F71       1.0  0.45823  0.70393  0.21041  1.0000
  F   F72       1.0  0.44906  0.70021  0.71191  1.0000
  F   F73       1.0  0.71530  0.19207  0.20124  1.0000
  F   F74       1.0  0.69564  0.19649  0.71938  1.0000
  F   F75       1.0  0.69556  0.70333  0.21270  1.0000
  F   F76       1.0  0.70341  0.69667  0.70494  1.0000
  F   F77       1.0  0.95123  0.20813  0.21671  1.0000
  F   F78       1.0  0.95489  0.20033  0.71875  1.0000
  F   F79       1.0  0.95724  0.69783  0.22501  1.0000
  F   F80       1.0  0.95438  0.70640  0.69647  1.0000
  F   F81       1.0  0.15409  0.07315  0.05023  1.0000
  F   F82       1.0  0.14411  0.10480  0.54410  1.0000
  F   F83       1.0  0.14480  0.59363  0.03916  1.0000
  F   F84       1.0  0.14606  0.59608  0.53700  1.0000
  F   F85       1.0  0.39671  0.09834  0.04433  1.0000
  F   F86       1.0  0.40382  0.10769  0.52976  1.0000
  F   F87       1.0  0.40487  0.58815  0.04499  1.0000
  F   F88       1.0  0.39636  0.58660  0.53366  1.0000
  F   F89       1.0  0.65245  0.11020  0.03138  1.0000
  F   F90       1.0  0.64667  0.09235  0.53621  1.0000
  F   F91       1.0  0.64905  0.56830  0.04330  1.0000
  F   F92       1.0  0.64447  0.57391  0.54467  1.0000
  F   F93       1.0  0.89822  0.09792  0.03113  1.0000
  F   F94       1.0  0.90461  0.09941  0.54720  1.0000
  F   F95       1.0  0.89482  0.60351  0.02638  1.0000
  F   F96       1.0  0.90081  0.59007  0.54667  1.0000
  F   F97       1.0  0.15176  0.19923  0.11417  1.0000
  F   F98       1.0  0.15288  0.19610  0.63757  1.0000
  F   F99       1.0  0.15718  0.70828  0.12077  1.0000
  F   F100      1.0  0.15041  0.68969  0.62857  1.0000
  F   F101      1.0  0.40371  0.19551  0.14142  1.0000
  F   F102      1.0  0.40604  0.19089  0.63493  1.0000
  F   F103      1.0  0.40599  0.69064  0.12998  1.0000
  F   F104      1.0  0.39821  0.69405  0.62205  1.0000
  F   F105      1.0  0.65450  0.21051  0.12228  1.0000
  F   F106      1.0  0.64646  0.19471  0.63445  1.0000
  F   F107      1.0  0.65460  0.69384  0.10506  1.0000
  F   F108      1.0  0.64969  0.69320  0.59712  1.0000
  F   F109      1.0  0.90765  0.19244  0.10829  1.0000
  F   F110      1.0  0.89475  0.19630  0.64992  1.0000
  F   F111      1.0  0.90926  0.68845  0.13359  1.0000
  F   F112      1.0  0.90170  0.69797  0.62826  1.0000
  F   F113      1.0  0.09998  0.30949  0.36366  1.0000
  F   F114      1.0  0.10308  0.29814  0.87005  1.0000
  F   F115      1.0  0.10600  0.80164  0.37105  1.0000
  F   F116      1.0  0.09778  0.81493  0.87972  1.0000
  F   F117      1.0  0.34599  0.31213  0.36451  1.0000
  F   F118      1.0  0.34598  0.29754  0.86904  1.0000
  F   F119      1.0  0.35057  0.80181  0.37233  1.0000
  F   F120      1.0  0.35220  0.80086  0.87551  1.0000
  F   F121      1.0  0.60133  0.29291  0.38688  1.0000
  F   F122      1.0  0.59911  0.29774  0.87658  1.0000
  F   F123      1.0  0.60362  0.79878  0.37611  1.0000
  F   F124      1.0  0.60046  0.79968  0.87454  1.0000
  F   F125      1.0  0.84884  0.29902  0.38583  1.0000
  F   F126      1.0  0.84794  0.29684  0.88828  1.0000
  F   F127      1.0  0.83956  0.80472  0.37194  1.0000
  F   F128      1.0  0.85120  0.79815  0.88090  1.0000
  F   F129      1.0  0.05490  0.25535  0.15073  1.0000
  F   F130      1.0  0.06246  0.25338  0.64384  1.0000
  F   F131      1.0  0.07088  0.76213  0.12145  1.0000
  F   F132      1.0  0.06434  0.75889  0.64311  1.0000
  F   F133      1.0  0.31589  0.26200  0.14122  1.0000
  F   F134      1.0  0.31582  0.25167  0.63469  1.0000
  F   F135      1.0  0.31450  0.74807  0.15143  1.0000
  F   F136      1.0  0.31058  0.74313  0.65415  1.0000
  F   F137      1.0  0.56838  0.24763  0.14024  1.0000
  F   F138      1.0  0.55915  0.23890  0.64862  1.0000
  F   F139      1.0  0.56719  0.74667  0.14087  1.0000
  F   F140      1.0  0.56517  0.74985  0.63806  1.0000
  F   F141      1.0  0.81858  0.25380  0.14081  1.0000
  F   F142      1.0  0.81343  0.24292  0.64090  1.0000
  F   F143      1.0  0.82675  0.75416  0.11612  1.0000
  F   F144      1.0  0.81606  0.75607  0.63446  1.0000
  F   F145      1.0  0.12256  0.39180  0.08519  1.0000
  F   F146      1.0  0.12256  0.37386  0.59895  1.0000
  F   F147      1.0  0.12725  0.88238  0.09464  1.0000
  F   F148      1.0  0.12013  0.85651  0.62565  1.0000
  F   F149      1.0  0.37067  0.38575  0.10749  1.0000
  F   F150      1.0  0.37226  0.36875  0.60696  1.0000
  F   F151      1.0  0.37484  0.86492  0.11294  1.0000
  F   F152      1.0  0.37230  0.85619  0.62626  1.0000
  F   F153      1.0  0.62693  0.37507  0.10411  1.0000
  F   F154      1.0  0.62275  0.37807  0.59994  1.0000
  F   F155      1.0  0.62500  0.86749  0.11345  1.0000
  F   F156      1.0  0.62525  0.87081  0.59941  1.0000
  F   F157      1.0  0.87614  0.38666  0.10271  1.0000
  F   F158      1.0  0.86916  0.36967  0.60653  1.0000
  F   F159      1.0  0.87482  0.87075  0.11103  1.0000
  F   F160      1.0  0.87750  0.87969  0.59623  1.0000
  F   F161      1.0  0.18444  0.25469  0.35070  1.0000
  F   F162      1.0  0.18477  0.24658  0.86612  1.0000
  F   F163      1.0  0.19288  0.75003  0.34767  1.0000
  F   F164      1.0  0.18740  0.75383  0.85128  1.0000
  F   F165      1.0  0.43532  0.25488  0.36485  1.0000
  F   F166      1.0  0.43335  0.23974  0.87057  1.0000
  F   F167      1.0  0.43644  0.74832  0.35607  1.0000
  F   F168      1.0  0.43899  0.74109  0.86035  1.0000
  F   F169      1.0  0.68879  0.25768  0.35324  1.0000
  F   F170      1.0  0.68241  0.24947  0.85517  1.0000
  F   F171      1.0  0.69202  0.75324  0.34327  1.0000
  F   F172      1.0  0.68583  0.74643  0.85719  1.0000
  F   F173      1.0  0.93626  0.25071  0.35468  1.0000
  F   F174      1.0  0.93899  0.26028  0.85233  1.0000
  F   F175      1.0  0.92206  0.73929  0.38382  1.0000
  F   F176      1.0  0.93591  0.74911  0.85825  1.0000
  F   F177      1.0  0.12708  0.13700  0.39048  1.0000
  F   F178      1.0  0.12167  0.12402  0.90146  1.0000
  F   F179      1.0  0.12636  0.62515  0.39019  1.0000
  F   F180      1.0  0.12803  0.65045  0.88159  1.0000
  F   F181      1.0  0.37939  0.13625  0.38065  1.0000
  F   F182      1.0  0.37465  0.11422  0.90104  1.0000
  F   F183      1.0  0.37807  0.63975  0.37816  1.0000
  F   F184      1.0  0.37157  0.61271  0.90659  1.0000
  F   F185      1.0  0.62926  0.14467  0.38227  1.0000
  F   F186      1.0  0.62345  0.11716  0.89627  1.0000
  F   F187      1.0  0.62235  0.62738  0.39917  1.0000
  F   F188      1.0  0.62797  0.62712  0.88879  1.0000
  F   F189      1.0  0.87112  0.11696  0.40923  1.0000
  F   F190      1.0  0.87387  0.13430  0.89073  1.0000
  F   F191      1.0  0.87255  0.63713  0.39591  1.0000
  F   F192      1.0  0.87973  0.63652  0.87663  1.0000
  F   F193      1.0  0.00265  0.36941  0.07504  1.0000
  F   F194      1.0  0.01005  0.34994  0.57194  1.0000
  F   F195      1.0  0.00459  0.86596  0.07508  1.0000
  F   F196      1.0  0.00796  0.86846  0.58259  1.0000
  F   F197      1.0  0.25868  0.36178  0.07752  1.0000
  F   F198      1.0  0.25727  0.35785  0.57911  1.0000
  F   F199      1.0  0.25839  0.86288  0.08536  1.0000
  F   F200      1.0  0.25978  0.86882  0.56468  1.0000
  F   F201      1.0  0.51015  0.36221  0.08388  1.0000
  F   F202      1.0  0.50697  0.34596  0.57667  1.0000
  F   F203      1.0  0.51232  0.85966  0.05947  1.0000
  F   F204      1.0  0.50536  0.84861  0.58554  1.0000
  F   F205      1.0  0.75538  0.35839  0.09620  1.0000
  F   F206      1.0  0.75675  0.35817  0.58568  1.0000
  F   F207      1.0  0.75647  0.84234  0.09385  1.0000
  F   F208      1.0  0.75885  0.85203  0.57160  1.0000
  F   F209      1.0  0.06689  0.49196  0.18420  1.0000
  F   F210      1.0  0.06520  0.48596  0.67368  1.0000
  F   F211      1.0  0.06880  0.98638  0.17718  1.0000
  F   F212      1.0  0.07025  0.99254  0.67070  1.0000
  F   F213      1.0  0.31975  0.49524  0.17861  1.0000
  F   F214      1.0  0.31374  0.48084  0.67972  1.0000
  F   F215      1.0  0.31979  0.99132  0.16896  1.0000
  F   F216      1.0  0.32116  0.98973  0.67049  1.0000
  F   F217      1.0  0.56736  0.48299  0.18422  1.0000
  F   F218      1.0  0.55549  0.48859  0.68763  1.0000
  F   F219      1.0  0.57466  0.98491  0.16951  1.0000
  F   F220      1.0  0.57291  0.99167  0.66251  1.0000
  F   F221      1.0  0.81413  0.48120  0.19844  1.0000
  F   F222      1.0  0.81914  0.47607  0.68491  1.0000
  F   F223      1.0  0.81695  0.97671  0.18934  1.0000
  F   F224      1.0  0.82174  0.98708  0.66591  1.0000
  F   F225      1.0  0.23466  0.14804  0.43036  1.0000
  F   F226      1.0  0.24274  0.12999  0.93862  1.0000
  F   F227      1.0  0.24060  0.63010  0.44227  1.0000
  F   F228      1.0  0.23849  0.64140  0.92551  1.0000
  F   F229      1.0  0.49914  0.13542  0.40349  1.0000
  F   F230      1.0  0.49347  0.13024  0.92989  1.0000
  F   F231      1.0  0.49546  0.63570  0.42302  1.0000
  F   F232      1.0  0.49697  0.63057  0.93938  1.0000
  F   F233      1.0  0.74195  0.14059  0.43046  1.0000
  F   F234      1.0  0.74015  0.14607  0.92779  1.0000
  F   F235      1.0  0.74056  0.62471  0.43797  1.0000
  F   F236      1.0  0.74034  0.63367  0.92967  1.0000
  F   F237      1.0  0.99510  0.14094  0.41135  1.0000
  F   F238      1.0  0.99308  0.14532  0.92205  1.0000
  F   F239      1.0  0.99172  0.63742  0.42388  1.0000
  F   F240      1.0  0.99397  0.63055  0.92781  1.0000
  F   F241      1.0  0.17334  0.01843  0.32637  1.0000
  F   F242      1.0  0.16950  0.01211  0.83495  1.0000
  F   F243      1.0  0.18166  0.51015  0.33018  1.0000
  F   F244      1.0  0.17263  0.51160  0.83947  1.0000
  F   F245      1.0  0.43052  0.01795  0.31791  1.0000
  F   F246      1.0  0.43395  0.01763  0.80823  1.0000
  F   F247      1.0  0.43545  0.51160  0.32957  1.0000
  F   F248      1.0  0.43397  0.49518  0.82859  1.0000
  F   F249      1.0  0.68118  0.00551  0.33663  1.0000
  F   F250      1.0  0.68056  0.01372  0.82145  1.0000
  F   F251      1.0  0.67935  0.51129  0.34603  1.0000
  F   F252      1.0  0.68592  0.52016  0.81865  1.0000
  F   F253      1.0  0.93211  0.01744  0.32303  1.0000
  F   F254      1.0  0.93677  0.01433  0.82432  1.0000
  F   F255      1.0  0.92271  0.50866  0.34142  1.0000
  F   F256      1.0  0.93244  0.51828  0.81482  1.0000
  F   F257      1.0  0.00301  0.25082  0.01526  1.0000
  F   F258      1.0  0.99253  0.23164  0.51458  1.0000
  F   F259      1.0  0.99928  0.73778  0.00530  1.0000
  F   F260      1.0  0.00736  0.75986  0.47976  1.0000
  F   F261      1.0  0.25052  0.24128  0.00524  1.0000
  F   F262      1.0  0.24965  0.24887  0.49909  1.0000
  F   F263      1.0  0.24840  0.75352  0.00532  1.0000
  F   F264      1.0  0.24502  0.74714  0.50341  1.0000
  F   F265      1.0  0.50881  0.27746  0.97202  1.0000
  F   F266      1.0  0.49836  0.25504  0.49290  1.0000
  F   F267      1.0  0.50857  0.75284  0.99285  1.0000
  F   F268      1.0  0.49645  0.75539  0.49152  1.0000
  F   F269      1.0  0.75727  0.27040  0.98133  1.0000
  F   F270      1.0  0.74707  0.25837  0.50501  1.0000
  F   F271      1.0  0.75337  0.76630  0.98804  1.0000
  F   F272      1.0  0.74806  0.73820  0.50742  1.0000
  F   F273      1.0  0.12035  0.00676  0.25851  1.0000
  F   F274      1.0  0.12063  0.99794  0.75413  1.0000
  F   F275      1.0  0.12770  0.50918  0.25019  1.0000
  F   F276      1.0  0.12034  0.49019  0.75723  1.0000
  F   F277      1.0  0.37327  0.00135  0.25266  1.0000
  F   F278      1.0  0.36939  0.00024  0.75372  1.0000
  F   F279      1.0  0.37826  0.49844  0.25095  1.0000
  F   F280      1.0  0.37195  0.49949  0.74921  1.0000
  F   F281      1.0  0.62508  0.00444  0.25175  1.0000
  F   F282      1.0  0.62938  0.99854  0.74061  1.0000
  F   F283      1.0  0.64187  0.50939  0.22982  1.0000
  F   F284      1.0  0.63029  0.50233  0.72968  1.0000
  F   F285      1.0  0.87485  0.00176  0.25169  1.0000
  F   F286      1.0  0.87769  0.99282  0.74978  1.0000
  F   F287      1.0  0.87490  0.49540  0.25165  1.0000
  F   F288      1.0  0.86727  0.50271  0.76102  1.0000
  F   F289      1.0  0.04178  0.02719  0.02722  1.0000
  F   F290      1.0  0.04722  0.03370  0.51501  1.0000
  F   F291      1.0  0.04818  0.54093  0.00646  1.0000
  F   F292      1.0  0.04833  0.53635  0.50466  1.0000
  F   F293      1.0  0.28896  0.02888  0.03673  1.0000
  F   F294      1.0  0.30613  0.02858  0.51001  1.0000
  F   F295      1.0  0.28646  0.53095  0.03287  1.0000
  F   F296      1.0  0.28946  0.52541  0.52363  1.0000
  F   F297      1.0  0.54433  0.02608  0.02656  1.0000
  F   F298      1.0  0.54187  0.02134  0.52065  1.0000
  F   F299      1.0  0.55240  0.52586  0.02453  1.0000
  F   F300      1.0  0.53894  0.51550  0.53008  1.0000
  F   F301      1.0  0.78584  0.03157  0.03181  1.0000
  F   F302      1.0  0.79287  0.02428  0.52327  1.0000
  F   F303      1.0  0.79431  0.52658  0.02425  1.0000
  F   F304      1.0  0.79608  0.52898  0.51690  1.0000
  F   F305      1.0  0.23231  0.42100  0.21955  1.0000
  F   F306      1.0  0.23213  0.41258  0.72478  1.0000
  F   F307      1.0  0.23121  0.91874  0.23826  1.0000
  F   F308      1.0  0.23690  0.92242  0.71617  1.0000
  F   F309      1.0  0.48899  0.41302  0.22176  1.0000
  F   F310      1.0  0.48219  0.40311  0.73658  1.0000
  F   F311      1.0  0.48580  0.91375  0.23437  1.0000
  F   F312      1.0  0.48805  0.91102  0.73501  1.0000
  F   F313      1.0  0.73101  0.42581  0.23542  1.0000
  F   F314      1.0  0.73033  0.42139  0.72572  1.0000
  F   F315      1.0  0.73901  0.92734  0.22152  1.0000
  F   F316      1.0  0.73501  0.91810  0.71069  1.0000
  F   F317      1.0  0.98359  0.41605  0.22681  1.0000
  F   F318      1.0  0.98342  0.42606  0.70595  1.0000
  F   F319      1.0  0.98466  0.88603  0.24137  1.0000
  F   F320      1.0  0.98486  0.91376  0.72554  1.0000
  F   F321      1.0  0.20547  0.46341  0.48350  1.0000
  F   F322      1.0  0.20027  0.47712  0.99298  1.0000
  F   F323      1.0  0.20751  0.97429  0.47073  1.0000
  F   F324      1.0  0.21613  0.97356  0.96028  1.0000
  F   F325      1.0  0.45711  0.46213  0.48600  1.0000
  F   F326      1.0  0.45072  0.46383  0.99192  1.0000
  F   F327      1.0  0.44897  0.97428  0.47635  1.0000
  F   F328      1.0  0.46133  0.96783  0.96971  1.0000
  F   F329      1.0  0.70986  0.46794  0.48191  1.0000
  F   F330      1.0  0.71189  0.46317  0.98029  1.0000
  F   F331      1.0  0.70397  0.97661  0.47595  1.0000
  F   F332      1.0  0.70323  0.98410  0.97466  1.0000
  F   F333      1.0  0.95054  0.46493  0.48764  1.0000
  F   F334      1.0  0.95595  0.47635  0.96341  1.0000
  F   F335      1.0  0.96089  0.98020  0.47412  1.0000
  F   F336      1.0  0.95066  0.97553  0.98812  1.0000
  F   F337      1.0  0.01543  0.08641  0.26760  1.0000
  F   F338      1.0  0.01599  0.08568  0.76751  1.0000
  F   F339      1.0  0.01084  0.58150  0.28622  1.0000
  F   F340      1.0  0.02005  0.58039  0.77015  1.0000
  F   F341      1.0  0.26080  0.08056  0.27958  1.0000
  F   F342      1.0  0.26333  0.09314  0.76480  1.0000
  F   F343      1.0  0.26316  0.59400  0.27584  1.0000
  F   F344      1.0  0.26251  0.58097  0.78180  1.0000
  F   F345      1.0  0.51973  0.07724  0.26470  1.0000
  F   F346      1.0  0.51413  0.07389  0.77936  1.0000
  F   F347      1.0  0.51393  0.58849  0.27374  1.0000
  F   F348      1.0  0.51467  0.58812  0.78120  1.0000
  F   F349      1.0  0.76853  0.08001  0.29576  1.0000
  F   F350      1.0  0.76103  0.07999  0.77088  1.0000
  F   F351      1.0  0.76282  0.60592  0.26775  1.0000
  F   F352      1.0  0.76670  0.59671  0.76453  1.0000
  F   F353      1.0  0.09946  0.41410  0.45797  1.0000
  F   F354      1.0  0.09612  0.39744  0.96337  1.0000
  F   F355      1.0  0.10446  0.90182  0.46464  1.0000
  F   F356      1.0  0.09789  0.90247  0.96396  1.0000
  F   F357      1.0  0.35126  0.41022  0.45842  1.0000
  F   F358      1.0  0.34921  0.40176  0.95812  1.0000
  F   F359      1.0  0.35355  0.89646  0.47338  1.0000
  F   F360      1.0  0.35138  0.91617  0.96517  1.0000
  F   F361      1.0  0.59318  0.39453  0.46485  1.0000
  F   F362      1.0  0.59966  0.41665  0.94963  1.0000
  F   F363      1.0  0.59751  0.90589  0.47007  1.0000
  F   F364      1.0  0.60557  0.90113  0.96169  1.0000
  F   F365      1.0  0.84898  0.40878  0.45610  1.0000
  F   F366      1.0  0.85903  0.39937  0.96642  1.0000
  F   F367      1.0  0.85064  0.90352  0.46348  1.0000
  F   F368      1.0  0.85233  0.93074  0.95175  1.0000
  F   F369      1.0  0.04194  0.30745  0.28912  1.0000
  F   F370      1.0  0.04403  0.30292  0.80040  1.0000
  F   F371      1.0  0.05212  0.79540  0.27858  1.0000
  F   F372      1.0  0.04437  0.80623  0.79977  1.0000
  F   F373      1.0  0.28978  0.29520  0.29286  1.0000
  F   F374      1.0  0.28903  0.29073  0.78895  1.0000
  F   F375      1.0  0.29091  0.79898  0.30240  1.0000
  F   F376      1.0  0.30098  0.80099  0.79321  1.0000
  F   F377      1.0  0.55815  0.30964  0.27737  1.0000
  F   F378      1.0  0.55374  0.29085  0.77935  1.0000
  F   F379      1.0  0.54798  0.79334  0.29106  1.0000
  F   F380      1.0  0.55746  0.79396  0.77967  1.0000
  F   F381      1.0  0.79619  0.29727  0.28554  1.0000
  F   F382      1.0  0.79404  0.28626  0.79147  1.0000
  F   F383      1.0  0.78702  0.78343  0.28986  1.0000
  F   F384      1.0  0.80073  0.80639  0.77895  1.0000
