data_image0
_chemical_formula_structural       Hf96F384
_chemical_formula_sum              "Hf96 F384"
_cell_length_a       31.0523
_cell_length_b       15.5267
_cell_length_c       15.5174
_cell_angle_alpha    63.342
_cell_angle_beta     63.342
_cell_angle_gamma    80.1625

_space_group_name_H-M_alt    "P 1"
_space_group_IT_number       1

loop_
  _space_group_symop_operation_xyz
  'x, y, z'

loop_
  _atom_site_type_symbol
  _atom_site_label
  _atom_site_symmetry_multiplicity
  _atom_site_fract_x
  _atom_site_fract_y
  _atom_site_fract_z
  _atom_site_occupancy
  Hf  Hf1       1.0  0.19969  0.09860  0.37142  1.0000
  Hf  Hf2       1.0  0.19894  0.11121  0.86904  1.0000
  Hf  Hf3       1.0  0.19558  0.60652  0.37433  1.0000
  Hf  Hf4       1.0  0.19257  0.59682  0.88720  1.0000
  Hf  Hf5       1.0  0.44645  0.10883  0.37237  1.0000
  Hf  Hf6       1.0  0.44642  0.10407  0.87830  1.0000
  Hf  Hf7       1.0  0.44586  0.61748  0.38195  1.0000
  Hf  Hf8       1.0  0.44485  0.60557  0.87553  1.0000
  Hf  Hf9       1.0  0.70021  0.11742  0.37075  1.0000
  Hf  Hf10      1.0  0.69568  0.11270  0.86763  1.0000
  Hf  Hf11      1.0  0.69730  0.60921  0.37410  1.0000
  Hf  Hf12      1.0  0.69601  0.60736  0.87435  1.0000
  Hf  Hf13      1.0  0.94648  0.11241  0.37167  1.0000
  Hf  Hf14      1.0  0.94706  0.10899  0.86683  1.0000
  Hf  Hf15      1.0  0.93963  0.60841  0.38428  1.0000
  Hf  Hf16      1.0  0.94489  0.60470  0.87605  1.0000
  Hf  Hf17      1.0  0.05325  0.39219  0.12132  1.0000
  Hf  Hf18      1.0  0.05539  0.39450  0.61664  1.0000
  Hf  Hf19      1.0  0.05991  0.88821  0.12046  1.0000
  Hf  Hf20      1.0  0.05868  0.88995  0.61447  1.0000
  Hf  Hf21      1.0  0.30375  0.38877  0.12601  1.0000
  Hf  Hf22      1.0  0.29763  0.37528  0.64498  1.0000
  Hf  Hf23      1.0  0.30399  0.88370  0.12715  1.0000
  Hf  Hf24      1.0  0.30011  0.88733  0.63458  1.0000
  Hf  Hf25      1.0  0.55725  0.39935  0.12419  1.0000
  Hf  Hf26      1.0  0.55401  0.38948  0.62842  1.0000
  Hf  Hf27      1.0  0.55254  0.89383  0.13246  1.0000
  Hf  Hf28      1.0  0.55195  0.89647  0.62856  1.0000
  Hf  Hf29      1.0  0.80303  0.39734  0.12363  1.0000
  Hf  Hf30      1.0  0.80068  0.39041  0.62972  1.0000
  Hf  Hf31      1.0  0.80685  0.89079  0.11639  1.0000
  Hf  Hf32      1.0  0.80843  0.89774  0.61715  1.0000
  Hf  Hf33      1.0  0.05622  0.18017  0.41699  1.0000
  Hf  Hf34      1.0  0.05699  0.18245  0.91312  1.0000
  Hf  Hf35      1.0  0.05699  0.68302  0.41740  1.0000
  Hf  Hf36      1.0  0.05376  0.68407  0.91506  1.0000
  Hf  Hf37      1.0  0.30684  0.17569  0.42169  1.0000
  Hf  Hf38      1.0  0.30885  0.17788  0.91863  1.0000
  Hf  Hf39      1.0  0.30496  0.67338  0.42634  1.0000
  Hf  Hf40      1.0  0.30211  0.67919  0.92528  1.0000
  Hf  Hf41      1.0  0.55999  0.18526  0.41462  1.0000
  Hf  Hf42      1.0  0.55335  0.18481  0.90902  1.0000
  Hf  Hf43      1.0  0.55614  0.68152  0.42293  1.0000
  Hf  Hf44      1.0  0.55180  0.69009  0.92200  1.0000
  Hf  Hf45      1.0  0.80678  0.18507  0.40767  1.0000
  Hf  Hf46      1.0  0.80309  0.18062  0.91689  1.0000
  Hf  Hf47      1.0  0.80535  0.68223  0.41431  1.0000
  Hf  Hf48      1.0  0.80569  0.69038  0.91441  1.0000
  Hf  Hf49      1.0  0.16331  0.39022  0.32075  1.0000
  Hf  Hf50      1.0  0.15451  0.37758  0.84673  1.0000
  Hf  Hf51      1.0  0.16215  0.88740  0.32819  1.0000
  Hf  Hf52      1.0  0.16208  0.88764  0.83213  1.0000
  Hf  Hf53      1.0  0.41138  0.39555  0.33177  1.0000
  Hf  Hf54      1.0  0.40793  0.38199  0.83927  1.0000
  Hf  Hf55      1.0  0.40575  0.89196  0.34033  1.0000
  Hf  Hf56      1.0  0.40686  0.88780  0.84506  1.0000
  Hf  Hf57      1.0  0.65817  0.38494  0.33410  1.0000
  Hf  Hf58      1.0  0.65572  0.38966  0.83595  1.0000
  Hf  Hf59      1.0  0.66134  0.88958  0.33211  1.0000
  Hf  Hf60      1.0  0.65773  0.88966  0.83877  1.0000
  Hf  Hf61      1.0  0.91098  0.39141  0.32344  1.0000
  Hf  Hf62      1.0  0.90877  0.38674  0.83215  1.0000
  Hf  Hf63      1.0  0.90793  0.89150  0.32723  1.0000
  Hf  Hf64      1.0  0.91261  0.88350  0.83004  1.0000
  Hf  Hf65      1.0  0.19578  0.30614  0.08104  1.0000
  Hf  Hf66      1.0  0.19525  0.32016  0.57886  1.0000
  Hf  Hf67      1.0  0.19402  0.81750  0.08646  1.0000
  Hf  Hf68      1.0  0.19580  0.81707  0.57998  1.0000
  Hf  Hf69      1.0  0.44569  0.32388  0.07624  1.0000
  Hf  Hf70      1.0  0.44257  0.32258  0.58282  1.0000
  Hf  Hf71      1.0  0.44394  0.81562  0.09346  1.0000
  Hf  Hf72      1.0  0.44550  0.82559  0.57810  1.0000
  Hf  Hf73      1.0  0.69722  0.32299  0.07589  1.0000
  Hf  Hf74      1.0  0.69607  0.31989  0.58270  1.0000
  Hf  Hf75      1.0  0.69392  0.82121  0.08796  1.0000
  Hf  Hf76      1.0  0.69359  0.82499  0.58077  1.0000
  Hf  Hf77      1.0  0.94119  0.32067  0.07961  1.0000
  Hf  Hf78      1.0  0.94389  0.30894  0.57877  1.0000
  Hf  Hf79      1.0  0.95057  0.82332  0.07352  1.0000
  Hf  Hf80      1.0  0.94632  0.82361  0.57548  1.0000
  Hf  Hf81      1.0  0.09021  0.11191  0.16699  1.0000
  Hf  Hf82      1.0  0.09371  0.11493  0.66483  1.0000
  Hf  Hf83      1.0  0.09089  0.60986  0.16834  1.0000
  Hf  Hf84      1.0  0.09306  0.60106  0.67364  1.0000
  Hf  Hf85      1.0  0.34582  0.11417  0.15441  1.0000
  Hf  Hf86      1.0  0.34287  0.10372  0.66792  1.0000
  Hf  Hf87      1.0  0.33508  0.60593  0.17903  1.0000
  Hf  Hf88      1.0  0.33313  0.60478  0.68365  1.0000
  Hf  Hf89      1.0  0.59228  0.11917  0.15985  1.0000
  Hf  Hf90      1.0  0.59109  0.11401  0.66076  1.0000
  Hf  Hf91      1.0  0.58927  0.61568  0.16542  1.0000
  Hf  Hf92      1.0  0.59314  0.61815  0.66456  1.0000
  Hf  Hf93      1.0  0.84094  0.11830  0.15149  1.0000
  Hf  Hf94      1.0  0.83997  0.11087  0.66302  1.0000
  Hf  Hf95      1.0  0.84419  0.61264  0.16164  1.0000
  Hf  Hf96      1.0  0.84056  0.61323  0.66766  1.0000
  F   F1        1.0  0.08225  0.11914  0.31779  1.0000
  F   F2        1.0  0.08428  0.12866  0.79193  1.0000
  F   F3        1.0  0.07444  0.61748  0.31032  1.0000
  F   F4        1.0  0.08404  0.61996  0.80052  1.0000
  F   F5        1.0  0.33347  0.13921  0.29415  1.0000
  F   F6        1.0  0.34270  0.13470  0.79510  1.0000
  F   F7        1.0  0.32518  0.61766  0.31319  1.0000
  F   F8        1.0  0.32946  0.62313  0.80686  1.0000
  F   F9        1.0  0.57121  0.12184  0.31985  1.0000
  F   F10       1.0  0.57476  0.12600  0.80217  1.0000
  F   F11       1.0  0.58333  0.61569  0.30887  1.0000
  F   F12       1.0  0.58253  0.63962  0.80128  1.0000
  F   F13       1.0  0.82993  0.13727  0.29771  1.0000
  F   F14       1.0  0.82278  0.13766  0.79766  1.0000
  F   F15       1.0  0.83202  0.63618  0.29399  1.0000
  F   F16       1.0  0.82187  0.63271  0.80694  1.0000
  F   F17       1.0  0.18181  0.33142  0.45245  1.0000
  F   F18       1.0  0.17596  0.32498  0.96207  1.0000
  F   F19       1.0  0.19534  0.84468  0.42665  1.0000
  F   F20       1.0  0.18374  0.83315  0.95395  1.0000
  F   F21       1.0  0.43820  0.33904  0.44714  1.0000
  F   F22       1.0  0.43649  0.34462  0.94395  1.0000
  F   F23       1.0  0.43152  0.84411  0.45340  1.0000
  F   F24       1.0  0.44283  0.84966  0.94200  1.0000
  F   F25       1.0  0.68813  0.34346  0.44728  1.0000
  F   F26       1.0  0.68383  0.32699  0.94594  1.0000
  F   F27       1.0  0.68659  0.83448  0.44784  1.0000
  F   F28       1.0  0.68816  0.84811  0.95110  1.0000
  F   F29       1.0  0.94486  0.35607  0.43792  1.0000
  F   F30       1.0  0.93552  0.33951  0.94296  1.0000
  F   F31       1.0  0.92785  0.83121  0.46124  1.0000
  F   F32       1.0  0.94264  0.84640  0.93860  1.0000
  F   F33       1.0  0.17146  0.36288  0.19075  1.0000
  F   F34       1.0  0.16812  0.35457  0.70579  1.0000
  F   F35       1.0  0.16000  0.86188  0.20322  1.0000
  F   F36       1.0  0.17754  0.86841  0.69514  1.0000
  F   F37       1.0  0.42514  0.40237  0.18391  1.0000
  F   F38       1.0  0.41184  0.35516  0.71249  1.0000
  F   F39       1.0  0.41673  0.87019  0.21493  1.0000
  F   F40       1.0  0.43371  0.87196  0.69385  1.0000
  F   F41       1.0  0.66573  0.35083  0.20503  1.0000
  F   F42       1.0  0.66994  0.37756  0.69335  1.0000
  F   F43       1.0  0.66847  0.88016  0.19423  1.0000
  F   F44       1.0  0.67408  0.88432  0.69408  1.0000
  F   F45       1.0  0.92217  0.36237  0.20355  1.0000
  F   F46       1.0  0.91744  0.35557  0.69976  1.0000
  F   F47       1.0  0.92890  0.88524  0.18519  1.0000
  F   F48       1.0  0.91812  0.87958  0.70235  1.0000
  F   F49       1.0  0.06621  0.15740  0.05270  1.0000
  F   F50       1.0  0.06137  0.15480  0.55892  1.0000
  F   F51       1.0  0.06621  0.66170  0.05068  1.0000
  F   F52       1.0  0.06450  0.65531  0.55812  1.0000
  F   F53       1.0  0.30264  0.15917  0.06868  1.0000
  F   F54       1.0  0.31653  0.16435  0.55479  1.0000
  F   F55       1.0  0.30517  0.65515  0.06194  1.0000
  F   F56       1.0  0.30333  0.63998  0.57686  1.0000
  F   F57       1.0  0.56390  0.15764  0.05394  1.0000
  F   F58       1.0  0.57227  0.16715  0.53682  1.0000
  F   F59       1.0  0.56133  0.68329  0.05582  1.0000
  F   F60       1.0  0.55792  0.66734  0.56154  1.0000
  F   F61       1.0  0.80759  0.15949  0.04978  1.0000
  F   F62       1.0  0.81963  0.17083  0.54168  1.0000
  F   F63       1.0  0.81275  0.64957  0.05568  1.0000
  F   F64       1.0  0.81170  0.65565  0.55297  1.0000
  F   F65       1.0  0.20933  0.19609  0.19802  1.0000
  F   F66       1.0  0.20818  0.20209  0.71580  1.0000
  F   F67       1.0  0.20020  0.68891  0.21533  1.0000
  F   F68       1.0  0.19096  0.70788  0.71290  1.0000
  F   F69       1.0  0.45017  0.22004  0.21684  1.0000
  F   F70       1.0  0.44705  0.19078  0.72274  1.0000
  F   F71       1.0  0.45555  0.70853  0.21804  1.0000
  F   F72       1.0  0.45877  0.69555  0.73023  1.0000
  F   F73       1.0  0.70912  0.20171  0.20896  1.0000
  F   F74       1.0  0.70147  0.19852  0.71398  1.0000
  F   F75       1.0  0.70637  0.69747  0.20943  1.0000
  F   F76       1.0  0.70908  0.72409  0.70330  1.0000
  F   F77       1.0  0.95452  0.19641  0.20982  1.0000
  F   F78       1.0  0.95394  0.19091  0.70605  1.0000
  F   F79       1.0  0.94178  0.70730  0.21169  1.0000
  F   F80       1.0  0.95557  0.70425  0.71642  1.0000
  F   F81       1.0  0.14819  0.10162  0.04824  1.0000
  F   F82       1.0  0.15128  0.10831  0.53833  1.0000
  F   F83       1.0  0.14608  0.58234  0.04436  1.0000
  F   F84       1.0  0.15360  0.56738  0.53175  1.0000
  F   F85       1.0  0.40449  0.11324  0.03457  1.0000
  F   F86       1.0  0.39429  0.06821  0.56040  1.0000
  F   F87       1.0  0.39333  0.60395  0.05155  1.0000
  F   F88       1.0  0.39196  0.61732  0.55616  1.0000
  F   F89       1.0  0.65223  0.11595  0.03473  1.0000
  F   F90       1.0  0.64604  0.08768  0.54013  1.0000
  F   F91       1.0  0.64731  0.59100  0.05089  1.0000
  F   F92       1.0  0.64482  0.58620  0.54383  1.0000
  F   F93       1.0  0.90296  0.08277  0.03172  1.0000
  F   F94       1.0  0.90168  0.09875  0.53730  1.0000
  F   F95       1.0  0.89393  0.57247  0.02809  1.0000
  F   F96       1.0  0.89535  0.59229  0.54568  1.0000
  F   F97       1.0  0.14814  0.19890  0.13888  1.0000
  F   F98       1.0  0.15198  0.20586  0.63266  1.0000
  F   F99       1.0  0.14820  0.68933  0.12336  1.0000
  F   F100      1.0  0.15293  0.69623  0.60455  1.0000
  F   F101      1.0  0.40580  0.20117  0.12367  1.0000
  F   F102      1.0  0.40525  0.19114  0.61453  1.0000
  F   F103      1.0  0.39667  0.69987  0.15123  1.0000
  F   F104      1.0  0.40207  0.71665  0.65763  1.0000
  F   F105      1.0  0.65328  0.20421  0.12930  1.0000
  F   F106      1.0  0.64183  0.19847  0.62784  1.0000
  F   F107      1.0  0.64698  0.70359  0.11811  1.0000
  F   F108      1.0  0.65910  0.69715  0.63301  1.0000
  F   F109      1.0  0.89987  0.19386  0.10933  1.0000
  F   F110      1.0  0.89661  0.20143  0.61821  1.0000
  F   F111      1.0  0.90056  0.69011  0.09381  1.0000
  F   F112      1.0  0.90594  0.69345  0.63018  1.0000
  F   F113      1.0  0.10419  0.29476  0.36912  1.0000
  F   F114      1.0  0.09883  0.29647  0.89144  1.0000
  F   F115      1.0  0.09030  0.80055  0.38737  1.0000
  F   F116      1.0  0.10012  0.79633  0.85119  1.0000
  F   F117      1.0  0.33503  0.30249  0.36920  1.0000
  F   F118      1.0  0.34834  0.29579  0.88340  1.0000
  F   F119      1.0  0.34621  0.76851  0.41128  1.0000
  F   F120      1.0  0.34553  0.80233  0.87939  1.0000
  F   F121      1.0  0.60000  0.30750  0.38007  1.0000
  F   F122      1.0  0.59776  0.30845  0.87078  1.0000
  F   F123      1.0  0.59121  0.80898  0.38030  1.0000
  F   F124      1.0  0.59977  0.80656  0.86565  1.0000
  F   F125      1.0  0.84762  0.29673  0.36423  1.0000
  F   F126      1.0  0.85374  0.30896  0.86572  1.0000
  F   F127      1.0  0.84702  0.81071  0.37648  1.0000
  F   F128      1.0  0.84604  0.80206  0.88990  1.0000
  F   F129      1.0  0.07048  0.25380  0.14262  1.0000
  F   F130      1.0  0.07076  0.25405  0.64446  1.0000
  F   F131      1.0  0.06202  0.73935  0.15203  1.0000
  F   F132      1.0  0.06691  0.75660  0.62131  1.0000
  F   F133      1.0  0.33190  0.26684  0.09837  1.0000
  F   F134      1.0  0.31642  0.24391  0.64696  1.0000
  F   F135      1.0  0.31376  0.74779  0.14044  1.0000
  F   F136      1.0  0.31738  0.74534  0.64648  1.0000
  F   F137      1.0  0.57376  0.27149  0.12328  1.0000
  F   F138      1.0  0.55168  0.24976  0.65707  1.0000
  F   F139      1.0  0.56293  0.75690  0.15130  1.0000
  F   F140      1.0  0.57017  0.76057  0.63791  1.0000
  F   F141      1.0  0.81015  0.24934  0.14371  1.0000
  F   F142      1.0  0.80830  0.25158  0.64620  1.0000
  F   F143      1.0  0.81489  0.75007  0.13678  1.0000
  F   F144      1.0  0.82033  0.75295  0.64084  1.0000
  F   F145      1.0  0.12561  0.37583  0.09337  1.0000
  F   F146      1.0  0.12491  0.37473  0.60537  1.0000
  F   F147      1.0  0.12697  0.87323  0.09730  1.0000
  F   F148      1.0  0.12515  0.86581  0.61923  1.0000
  F   F149      1.0  0.37972  0.39076  0.09651  1.0000
  F   F150      1.0  0.36717  0.36686  0.61779  1.0000
  F   F151      1.0  0.37695  0.88496  0.09682  1.0000
  F   F152      1.0  0.37106  0.88299  0.61349  1.0000
  F   F153      1.0  0.62400  0.39964  0.10325  1.0000
  F   F154      1.0  0.62132  0.35351  0.62327  1.0000
  F   F155      1.0  0.62623  0.88343  0.10044  1.0000
  F   F156      1.0  0.62569  0.86633  0.61598  1.0000
  F   F157      1.0  0.87265  0.36058  0.12558  1.0000
  F   F158      1.0  0.87349  0.37146  0.59440  1.0000
  F   F159      1.0  0.87556  0.84852  0.11870  1.0000
  F   F160      1.0  0.87983  0.87957  0.60905  1.0000
  F   F161      1.0  0.18976  0.24449  0.33630  1.0000
  F   F162      1.0  0.18578  0.24540  0.86011  1.0000
  F   F163      1.0  0.18679  0.74997  0.34154  1.0000
  F   F164      1.0  0.17966  0.74573  0.86645  1.0000
  F   F165      1.0  0.42080  0.24663  0.37891  1.0000
  F   F166      1.0  0.43973  0.24256  0.86279  1.0000
  F   F167      1.0  0.43623  0.74962  0.36475  1.0000
  F   F168      1.0  0.42379  0.74775  0.88874  1.0000
  F   F169      1.0  0.69196  0.25389  0.35259  1.0000
  F   F170      1.0  0.68811  0.25467  0.83519  1.0000
  F   F171      1.0  0.68451  0.74979  0.35734  1.0000
  F   F172      1.0  0.67702  0.74380  0.88646  1.0000
  F   F173      1.0  0.92819  0.24671  0.37606  1.0000
  F   F174      1.0  0.93523  0.23655  0.86760  1.0000
  F   F175      1.0  0.92775  0.75508  0.35749  1.0000
  F   F176      1.0  0.93279  0.74126  0.87304  1.0000
  F   F177      1.0  0.12656  0.11010  0.40953  1.0000
  F   F178      1.0  0.12693  0.14272  0.87556  1.0000
  F   F179      1.0  0.12317  0.62485  0.39356  1.0000
  F   F180      1.0  0.12114  0.61686  0.90142  1.0000
  F   F181      1.0  0.37284  0.10686  0.40734  1.0000
  F   F182      1.0  0.37571  0.12817  0.92133  1.0000
  F   F183      1.0  0.37657  0.61889  0.39827  1.0000
  F   F184      1.0  0.37588  0.61783  0.89970  1.0000
  F   F185      1.0  0.62851  0.13754  0.37509  1.0000
  F   F186      1.0  0.62115  0.12746  0.90105  1.0000
  F   F187      1.0  0.62450  0.65485  0.39262  1.0000
  F   F188      1.0  0.62749  0.62117  0.90095  1.0000
  F   F189      1.0  0.87605  0.12170  0.38971  1.0000
  F   F190      1.0  0.87428  0.13343  0.88766  1.0000
  F   F191      1.0  0.87256  0.62764  0.40351  1.0000
  F   F192      1.0  0.87738  0.63839  0.87002  1.0000
  F   F193      1.0  0.00553  0.34733  0.08314  1.0000
  F   F194      1.0  0.01070  0.35373  0.56866  1.0000
  F   F195      1.0  0.01183  0.85604  0.06738  1.0000
  F   F196      1.0  0.00998  0.87566  0.55207  1.0000
  F   F197      1.0  0.25751  0.34973  0.08481  1.0000
  F   F198      1.0  0.25674  0.36423  0.58103  1.0000
  F   F199      1.0  0.25016  0.86125  0.08947  1.0000
  F   F200      1.0  0.25465  0.84540  0.59728  1.0000
  F   F201      1.0  0.50828  0.35411  0.08163  1.0000
  F   F202      1.0  0.50409  0.36077  0.56772  1.0000
  F   F203      1.0  0.50978  0.86568  0.06801  1.0000
  F   F204      1.0  0.51285  0.86959  0.56106  1.0000
  F   F205      1.0  0.75516  0.37165  0.06922  1.0000
  F   F206      1.0  0.75845  0.35939  0.57106  1.0000
  F   F207      1.0  0.75790  0.86968  0.06454  1.0000
  F   F208      1.0  0.75679  0.87659  0.57795  1.0000
  F   F209      1.0  0.06556  0.48030  0.18405  1.0000
  F   F210      1.0  0.06237  0.48576  0.66888  1.0000
  F   F211      1.0  0.06481  0.98429  0.17553  1.0000
  F   F212      1.0  0.07345  0.99768  0.65573  1.0000
  F   F213      1.0  0.31390  0.47855  0.18547  1.0000
  F   F214      1.0  0.31055  0.47489  0.69868  1.0000
  F   F215      1.0  0.31962  0.99106  0.16166  1.0000
  F   F216      1.0  0.31408  0.97666  0.69474  1.0000
  F   F217      1.0  0.55427  0.49342  0.19375  1.0000
  F   F218      1.0  0.56934  0.49065  0.66267  1.0000
  F   F219      1.0  0.57360  0.99387  0.16296  1.0000
  F   F220      1.0  0.56861  0.97920  0.68427  1.0000
  F   F221      1.0  0.82276  0.48222  0.17509  1.0000
  F   F222      1.0  0.82091  0.48362  0.67198  1.0000
  F   F223      1.0  0.81977  0.99428  0.15745  1.0000
  F   F224      1.0  0.82358  0.99345  0.66453  1.0000
  F   F225      1.0  0.24369  0.13145  0.42843  1.0000
  F   F226      1.0  0.24266  0.15158  0.91569  1.0000
  F   F227      1.0  0.24293  0.63103  0.42803  1.0000
  F   F228      1.0  0.23646  0.63047  0.94243  1.0000
  F   F229      1.0  0.48931  0.14495  0.41658  1.0000
  F   F230      1.0  0.49531  0.13026  0.91884  1.0000
  F   F231      1.0  0.49113  0.62985  0.44397  1.0000
  F   F232      1.0  0.49460  0.63763  0.91490  1.0000
  F   F233      1.0  0.74253  0.13115  0.43075  1.0000
  F   F234      1.0  0.74192  0.14391  0.91773  1.0000
  F   F235      1.0  0.74212  0.63667  0.42548  1.0000
  F   F236      1.0  0.74033  0.64180  0.92638  1.0000
  F   F237      1.0  0.98988  0.12660  0.43768  1.0000
  F   F238      1.0  0.99250  0.12903  0.93430  1.0000
  F   F239      1.0  0.99041  0.66474  0.40302  1.0000
  F   F240      1.0  0.98371  0.62953  0.93729  1.0000
  F   F241      1.0  0.18537  0.02707  0.31380  1.0000
  F   F242      1.0  0.17218  0.01024  0.84047  1.0000
  F   F243      1.0  0.18446  0.50590  0.32189  1.0000
  F   F244      1.0  0.17586  0.51623  0.82802  1.0000
  F   F245      1.0  0.43390  0.01586  0.30774  1.0000
  F   F246      1.0  0.42899  0.00792  0.83124  1.0000
  F   F247      1.0  0.43337  0.51720  0.32729  1.0000
  F   F248      1.0  0.43949  0.51192  0.82015  1.0000
  F   F249      1.0  0.68335  0.00691  0.33476  1.0000
  F   F250      1.0  0.68900  0.01828  0.81088  1.0000
  F   F251      1.0  0.67590  0.51423  0.33631  1.0000
  F   F252      1.0  0.68528  0.51863  0.81756  1.0000
  F   F253      1.0  0.93381  0.01453  0.31281  1.0000
  F   F254      1.0  0.93806  0.01544  0.81222  1.0000
  F   F255      1.0  0.92687  0.51405  0.33169  1.0000
  F   F256      1.0  0.93580  0.51873  0.81108  1.0000
  F   F257      1.0  0.99535  0.23883  0.00955  1.0000
  F   F258      1.0  0.00189  0.25182  0.49473  1.0000
  F   F259      1.0  0.99729  0.73284  0.00727  1.0000
  F   F260      1.0  0.00131  0.74985  0.50110  1.0000
  F   F261      1.0  0.25542  0.25687  0.98444  1.0000
  F   F262      1.0  0.24978  0.24569  0.49516  1.0000
  F   F263      1.0  0.24882  0.75134  0.99551  1.0000
  F   F264      1.0  0.24377  0.73363  0.52704  1.0000
  F   F265      1.0  0.49808  0.24258  0.00113  1.0000
  F   F266      1.0  0.50420  0.25097  0.49530  1.0000
  F   F267      1.0  0.49523  0.74154  0.01138  1.0000
  F   F268      1.0  0.50054  0.76401  0.49134  1.0000
  F   F269      1.0  0.74994  0.26081  0.99039  1.0000
  F   F270      1.0  0.74649  0.24010  0.50316  1.0000
  F   F271      1.0  0.75187  0.75295  0.99694  1.0000
  F   F272      1.0  0.75076  0.74829  0.49874  1.0000
  F   F273      1.0  0.12475  0.99630  0.25511  1.0000
  F   F274      1.0  0.12531  0.00216  0.75245  1.0000
  F   F275      1.0  0.11846  0.48641  0.26213  1.0000
  F   F276      1.0  0.11578  0.48355  0.76240  1.0000
  F   F277      1.0  0.36548  0.98923  0.26036  1.0000
  F   F278      1.0  0.36682  0.98940  0.77494  1.0000
  F   F279      1.0  0.36748  0.49783  0.27201  1.0000
  F   F280      1.0  0.37623  0.49445  0.75027  1.0000
  F   F281      1.0  0.62630  0.01333  0.25128  1.0000
  F   F282      1.0  0.62537  0.00475  0.74179  1.0000
  F   F283      1.0  0.62187  0.49646  0.24535  1.0000
  F   F284      1.0  0.61673  0.49410  0.75863  1.0000
  F   F285      1.0  0.86320  0.99798  0.25259  1.0000
  F   F286      1.0  0.87478  0.00690  0.75460  1.0000
  F   F287      1.0  0.88290  0.51195  0.23684  1.0000
  F   F288      1.0  0.86718  0.49034  0.77262  1.0000
  F   F289      1.0  0.05300  0.03716  0.01006  1.0000
  F   F290      1.0  0.03788  0.02121  0.52775  1.0000
  F   F291      1.0  0.04027  0.53458  0.01845  1.0000
  F   F292      1.0  0.03656  0.52995  0.52799  1.0000
  F   F293      1.0  0.29593  0.02001  0.01892  1.0000
  F   F294      1.0  0.28792  0.01896  0.54238  1.0000
  F   F295      1.0  0.29158  0.53172  0.01803  1.0000
  F   F296      1.0  0.29562  0.51659  0.53340  1.0000
  F   F297      1.0  0.54080  0.03895  0.02482  1.0000
  F   F298      1.0  0.54318  0.03488  0.54293  1.0000
  F   F299      1.0  0.54421  0.53469  0.03033  1.0000
  F   F300      1.0  0.54509  0.53157  0.52612  1.0000
  F   F301      1.0  0.79445  0.03709  0.00203  1.0000
  F   F302      1.0  0.78617  0.03843  0.53080  1.0000
  F   F303      1.0  0.80289  0.52874  0.01991  1.0000
  F   F304      1.0  0.79383  0.52272  0.51480  1.0000
  F   F305      1.0  0.23066  0.43328  0.20354  1.0000
  F   F306      1.0  0.22675  0.41540  0.73370  1.0000
  F   F307      1.0  0.23280  0.93055  0.21638  1.0000
  F   F308      1.0  0.23206  0.92715  0.72603  1.0000
  F   F309      1.0  0.49005  0.40681  0.23088  1.0000
  F   F310      1.0  0.48059  0.40279  0.72361  1.0000
  F   F311      1.0  0.48533  0.90324  0.22529  1.0000
  F   F312      1.0  0.48535  0.91541  0.73544  1.0000
  F   F313      1.0  0.72957  0.41638  0.22039  1.0000
  F   F314      1.0  0.73442  0.41036  0.73776  1.0000
  F   F315      1.0  0.73325  0.90885  0.22567  1.0000
  F   F316      1.0  0.74116  0.90111  0.73408  1.0000
  F   F317      1.0  0.98524  0.40868  0.23131  1.0000
  F   F318      1.0  0.98173  0.40122  0.72338  1.0000
  F   F319      1.0  0.99143  0.89998  0.23206  1.0000
  F   F320      1.0  0.98975  0.89471  0.71831  1.0000
  F   F321      1.0  0.21436  0.46146  0.46212  1.0000
  F   F322      1.0  0.21752  0.45441  0.96061  1.0000
  F   F323      1.0  0.21180  0.97452  0.47347  1.0000
  F   F324      1.0  0.20760  0.97621  0.97778  1.0000
  F   F325      1.0  0.44544  0.48078  0.49828  1.0000
  F   F326      1.0  0.46409  0.47765  0.97007  1.0000
  F   F327      1.0  0.45497  0.97396  0.47097  1.0000
  F   F328      1.0  0.44938  0.97235  0.99111  1.0000
  F   F329      1.0  0.70634  0.47056  0.49135  1.0000
  F   F330      1.0  0.71107  0.47427  0.97189  1.0000
  F   F331      1.0  0.71013  0.97916  0.47672  1.0000
  F   F332      1.0  0.70412  0.98374  0.97742  1.0000
  F   F333      1.0  0.95458  0.48281  0.48983  1.0000
  F   F334      1.0  0.96304  0.45715  0.97227  1.0000
  F   F335      1.0  0.95797  0.97339  0.46574  1.0000
  F   F336      1.0  0.96629  0.96115  0.95886  1.0000
  F   F337      1.0  0.01742  0.08429  0.28293  1.0000
  F   F338      1.0  0.01720  0.09409  0.76983  1.0000
  F   F339      1.0  0.00919  0.58505  0.28058  1.0000
  F   F340      1.0  0.01771  0.58368  0.77301  1.0000
  F   F341      1.0  0.27037  0.10496  0.26100  1.0000
  F   F342      1.0  0.26654  0.08800  0.77880  1.0000
  F   F343      1.0  0.26201  0.58884  0.27238  1.0000
  F   F344      1.0  0.25437  0.60191  0.76607  1.0000
  F   F345      1.0  0.51631  0.09137  0.26298  1.0000
  F   F346      1.0  0.51590  0.07702  0.76728  1.0000
  F   F347      1.0  0.51078  0.60261  0.28143  1.0000
  F   F348      1.0  0.52289  0.57805  0.77898  1.0000
  F   F349      1.0  0.76555  0.08339  0.28171  1.0000
  F   F350      1.0  0.76433  0.07720  0.77285  1.0000
  F   F351      1.0  0.76424  0.57431  0.27520  1.0000
  F   F352      1.0  0.76589  0.59175  0.76716  1.0000
  F   F353      1.0  0.10356  0.42418  0.45066  1.0000
  F   F354      1.0  0.09455  0.41728  0.96037  1.0000
  F   F355      1.0  0.11168  0.91873  0.45307  1.0000
  F   F356      1.0  0.10264  0.88594  0.96779  1.0000
  F   F357      1.0  0.34817  0.38244  0.46358  1.0000
  F   F358      1.0  0.35403  0.42317  0.94645  1.0000
  F   F359      1.0  0.34663  0.90549  0.45889  1.0000
  F   F360      1.0  0.34456  0.89923  0.97164  1.0000
  F   F361      1.0  0.60136  0.41234  0.46397  1.0000
  F   F362      1.0  0.60391  0.41812  0.95323  1.0000
  F   F363      1.0  0.60231  0.91754  0.46392  1.0000
  F   F364      1.0  0.59968  0.89936  0.96265  1.0000
  F   F365      1.0  0.84933  0.39083  0.45799  1.0000
  F   F366      1.0  0.85445  0.39595  0.97756  1.0000
  F   F367      1.0  0.85107  0.92507  0.45951  1.0000
  F   F368      1.0  0.85290  0.91938  0.95976  1.0000
  F   F369      1.0  0.04455  0.29921  0.29337  1.0000
  F   F370      1.0  0.04594  0.29628  0.78869  1.0000
  F   F371      1.0  0.06342  0.80321  0.26589  1.0000
  F   F372      1.0  0.04279  0.78427  0.79179  1.0000
  F   F373      1.0  0.29010  0.29078  0.26978  1.0000
  F   F374      1.0  0.29711  0.28728  0.79572  1.0000
  F   F375      1.0  0.29587  0.79711  0.30037  1.0000
  F   F376      1.0  0.28525  0.77983  0.79180  1.0000
  F   F377      1.0  0.54914  0.29671  0.29029  1.0000
  F   F378      1.0  0.54041  0.31735  0.79644  1.0000
  F   F379      1.0  0.53966  0.79077  0.29873  1.0000
  F   F380      1.0  0.53901  0.79814  0.79267  1.0000
  F   F381      1.0  0.78911  0.30367  0.28600  1.0000
  F   F382      1.0  0.79888  0.31154  0.78973  1.0000
  F   F383      1.0  0.79405  0.79984  0.29915  1.0000
  F   F384      1.0  0.80683  0.80292  0.78421  1.0000
