data_image0
_chemical_formula_structural       Hf96F384
_chemical_formula_sum              "Hf96 F384"
_cell_length_a       31.0261
_cell_length_b       15.5106
_cell_length_c       15.5018
_cell_angle_alpha    63.342
_cell_angle_beta     63.342
_cell_angle_gamma    80.1625

_space_group_name_H-M_alt    "P 1"
_space_group_IT_number       1

loop_
  _space_group_symop_operation_xyz
  'x, y, z'

loop_
  _atom_site_type_symbol
  _atom_site_label
  _atom_site_symmetry_multiplicity
  _atom_site_fract_x
  _atom_site_fract_y
  _atom_site_fract_z
  _atom_site_occupancy
  Hf  Hf1       1.0  0.19609  0.10514  0.37800  1.0000
  Hf  Hf2       1.0  0.20039  0.11060  0.86877  1.0000
  Hf  Hf3       1.0  0.19413  0.60434  0.37689  1.0000
  Hf  Hf4       1.0  0.20020  0.60624  0.86758  1.0000
  Hf  Hf5       1.0  0.44524  0.11341  0.36831  1.0000
  Hf  Hf6       1.0  0.45042  0.11176  0.86419  1.0000
  Hf  Hf7       1.0  0.44732  0.60834  0.36814  1.0000
  Hf  Hf8       1.0  0.44773  0.60846  0.87413  1.0000
  Hf  Hf9       1.0  0.69327  0.10613  0.38376  1.0000
  Hf  Hf10      1.0  0.69350  0.09475  0.88893  1.0000
  Hf  Hf11      1.0  0.69498  0.60522  0.37975  1.0000
  Hf  Hf12      1.0  0.69723  0.60051  0.87124  1.0000
  Hf  Hf13      1.0  0.94442  0.10698  0.38048  1.0000
  Hf  Hf14      1.0  0.94777  0.11056  0.87370  1.0000
  Hf  Hf15      1.0  0.94891  0.60740  0.37049  1.0000
  Hf  Hf16      1.0  0.94568  0.60319  0.88192  1.0000
  Hf  Hf17      1.0  0.05300  0.39676  0.12685  1.0000
  Hf  Hf18      1.0  0.05447  0.38928  0.62720  1.0000
  Hf  Hf19      1.0  0.05656  0.89318  0.11954  1.0000
  Hf  Hf20      1.0  0.05421  0.88826  0.63411  1.0000
  Hf  Hf21      1.0  0.30420  0.39572  0.11175  1.0000
  Hf  Hf22      1.0  0.30125  0.39384  0.61820  1.0000
  Hf  Hf23      1.0  0.29988  0.89610  0.12565  1.0000
  Hf  Hf24      1.0  0.30717  0.89220  0.62015  1.0000
  Hf  Hf25      1.0  0.54876  0.39049  0.12941  1.0000
  Hf  Hf26      1.0  0.55254  0.38951  0.63336  1.0000
  Hf  Hf27      1.0  0.55556  0.89099  0.12066  1.0000
  Hf  Hf28      1.0  0.55604  0.89634  0.62297  1.0000
  Hf  Hf29      1.0  0.80175  0.39170  0.14021  1.0000
  Hf  Hf30      1.0  0.80294  0.39754  0.62717  1.0000
  Hf  Hf31      1.0  0.80544  0.89315  0.12182  1.0000
  Hf  Hf32      1.0  0.80377  0.90148  0.62623  1.0000
  Hf  Hf33      1.0  0.05287  0.17688  0.42251  1.0000
  Hf  Hf34      1.0  0.05357  0.18312  0.92606  1.0000
  Hf  Hf35      1.0  0.05456  0.67831  0.41800  1.0000
  Hf  Hf36      1.0  0.05891  0.68757  0.91628  1.0000
  Hf  Hf37      1.0  0.30567  0.18591  0.41356  1.0000
  Hf  Hf38      1.0  0.30955  0.18553  0.91686  1.0000
  Hf  Hf39      1.0  0.30730  0.68832  0.40798  1.0000
  Hf  Hf40      1.0  0.30557  0.67884  0.91924  1.0000
  Hf  Hf41      1.0  0.55480  0.18455  0.41454  1.0000
  Hf  Hf42      1.0  0.55404  0.17861  0.92289  1.0000
  Hf  Hf43      1.0  0.55527  0.67913  0.42305  1.0000
  Hf  Hf44      1.0  0.55875  0.68371  0.91497  1.0000
  Hf  Hf45      1.0  0.80622  0.18502  0.41452  1.0000
  Hf  Hf46      1.0  0.80365  0.17030  0.92739  1.0000
  Hf  Hf47      1.0  0.80901  0.68115  0.41622  1.0000
  Hf  Hf48      1.0  0.80700  0.68508  0.91366  1.0000
  Hf  Hf49      1.0  0.15977  0.38677  0.32776  1.0000
  Hf  Hf50      1.0  0.15896  0.38757  0.83237  1.0000
  Hf  Hf51      1.0  0.15601  0.88776  0.33886  1.0000
  Hf  Hf52      1.0  0.16164  0.89205  0.83196  1.0000
  Hf  Hf53      1.0  0.40819  0.39500  0.32863  1.0000
  Hf  Hf54      1.0  0.41079  0.39289  0.82400  1.0000
  Hf  Hf55      1.0  0.40966  0.89053  0.33310  1.0000
  Hf  Hf56      1.0  0.40662  0.88762  0.83794  1.0000
  Hf  Hf57      1.0  0.66160  0.39258  0.32927  1.0000
  Hf  Hf58      1.0  0.65820  0.38236  0.83683  1.0000
  Hf  Hf59      1.0  0.65849  0.88665  0.33508  1.0000
  Hf  Hf60      1.0  0.65999  0.88287  0.83046  1.0000
  Hf  Hf61      1.0  0.90946  0.38472  0.33570  1.0000
  Hf  Hf62      1.0  0.90613  0.39007  0.83836  1.0000
  Hf  Hf63      1.0  0.90750  0.88230  0.33511  1.0000
  Hf  Hf64      1.0  0.90853  0.89202  0.82473  1.0000
  Hf  Hf65      1.0  0.19411  0.31491  0.08439  1.0000
  Hf  Hf66      1.0  0.19133  0.31355  0.58425  1.0000
  Hf  Hf67      1.0  0.19560  0.81269  0.08144  1.0000
  Hf  Hf68      1.0  0.19628  0.81618  0.58058  1.0000
  Hf  Hf69      1.0  0.43959  0.31615  0.08830  1.0000
  Hf  Hf70      1.0  0.44341  0.32097  0.57759  1.0000
  Hf  Hf71      1.0  0.44318  0.81696  0.08279  1.0000
  Hf  Hf72      1.0  0.44715  0.82222  0.57927  1.0000
  Hf  Hf73      1.0  0.69248  0.31350  0.09094  1.0000
  Hf  Hf74      1.0  0.69392  0.32001  0.58676  1.0000
  Hf  Hf75      1.0  0.69547  0.80973  0.08238  1.0000
  Hf  Hf76      1.0  0.69380  0.82424  0.57630  1.0000
  Hf  Hf77      1.0  0.93993  0.30801  0.09243  1.0000
  Hf  Hf78      1.0  0.94397  0.31830  0.58627  1.0000
  Hf  Hf79      1.0  0.94602  0.82520  0.07639  1.0000
  Hf  Hf80      1.0  0.94186  0.81777  0.58526  1.0000
  Hf  Hf81      1.0  0.08982  0.11180  0.17144  1.0000
  Hf  Hf82      1.0  0.08856  0.10752  0.67170  1.0000
  Hf  Hf83      1.0  0.09410  0.61129  0.16619  1.0000
  Hf  Hf84      1.0  0.09092  0.60685  0.67353  1.0000
  Hf  Hf85      1.0  0.34190  0.11152  0.16588  1.0000
  Hf  Hf86      1.0  0.33927  0.11569  0.66407  1.0000
  Hf  Hf87      1.0  0.33785  0.60745  0.17196  1.0000
  Hf  Hf88      1.0  0.34427  0.60910  0.66148  1.0000
  Hf  Hf89      1.0  0.58890  0.10509  0.16670  1.0000
  Hf  Hf90      1.0  0.59279  0.11008  0.66772  1.0000
  Hf  Hf91      1.0  0.59227  0.61175  0.16676  1.0000
  Hf  Hf92      1.0  0.59340  0.61417  0.66315  1.0000
  Hf  Hf93      1.0  0.83871  0.10727  0.17105  1.0000
  Hf  Hf94      1.0  0.84156  0.11734  0.66934  1.0000
  Hf  Hf95      1.0  0.83908  0.61653  0.16770  1.0000
  Hf  Hf96      1.0  0.84239  0.62249  0.66218  1.0000
  F   F1        1.0  0.07965  0.13182  0.30475  1.0000
  F   F2        1.0  0.08311  0.12215  0.81209  1.0000
  F   F3        1.0  0.07998  0.63079  0.30100  1.0000
  F   F4        1.0  0.07708  0.62099  0.81038  1.0000
  F   F5        1.0  0.32586  0.12320  0.30487  1.0000
  F   F6        1.0  0.32670  0.13760  0.80077  1.0000
  F   F7        1.0  0.32272  0.62560  0.30974  1.0000
  F   F8        1.0  0.32484  0.62280  0.81055  1.0000
  F   F9        1.0  0.58036  0.14491  0.29586  1.0000
  F   F10       1.0  0.58039  0.12697  0.80448  1.0000
  F   F11       1.0  0.58728  0.63495  0.29532  1.0000
  F   F12       1.0  0.58476  0.61657  0.80505  1.0000
  F   F13       1.0  0.82593  0.12038  0.31098  1.0000
  F   F14       1.0  0.82610  0.11728  0.81009  1.0000
  F   F15       1.0  0.82700  0.63199  0.30059  1.0000
  F   F16       1.0  0.83398  0.64461  0.79532  1.0000
  F   F17       1.0  0.19415  0.34444  0.43422  1.0000
  F   F18       1.0  0.18812  0.34976  0.94284  1.0000
  F   F19       1.0  0.19241  0.83749  0.43442  1.0000
  F   F20       1.0  0.19439  0.85203  0.93616  1.0000
  F   F21       1.0  0.42967  0.34063  0.45044  1.0000
  F   F22       1.0  0.43298  0.34994  0.94046  1.0000
  F   F23       1.0  0.45060  0.84780  0.42995  1.0000
  F   F24       1.0  0.43471  0.84840  0.94825  1.0000
  F   F25       1.0  0.69857  0.35870  0.42089  1.0000
  F   F26       1.0  0.68676  0.34161  0.94600  1.0000
  F   F27       1.0  0.68460  0.83890  0.44580  1.0000
  F   F28       1.0  0.68759  0.84842  0.93909  1.0000
  F   F29       1.0  0.93386  0.34130  0.45021  1.0000
  F   F30       1.0  0.93007  0.33772  0.95876  1.0000
  F   F31       1.0  0.93041  0.83528  0.44940  1.0000
  F   F32       1.0  0.93128  0.83398  0.95091  1.0000
  F   F33       1.0  0.17357  0.36798  0.19094  1.0000
  F   F34       1.0  0.16363  0.36625  0.70247  1.0000
  F   F35       1.0  0.17142  0.88555  0.19970  1.0000
  F   F36       1.0  0.17773  0.88534  0.67572  1.0000
  F   F37       1.0  0.41553  0.37442  0.19832  1.0000
  F   F38       1.0  0.41753  0.37412  0.69661  1.0000
  F   F39       1.0  0.41938  0.87182  0.19327  1.0000
  F   F40       1.0  0.42589  0.87374  0.69379  1.0000
  F   F41       1.0  0.67007  0.37224  0.20102  1.0000
  F   F42       1.0  0.67385  0.38544  0.69197  1.0000
  F   F43       1.0  0.67344  0.87582  0.19154  1.0000
  F   F44       1.0  0.66980  0.87039  0.69114  1.0000
  F   F45       1.0  0.91939  0.36422  0.20386  1.0000
  F   F46       1.0  0.91785  0.36163  0.70954  1.0000
  F   F47       1.0  0.91449  0.85491  0.20359  1.0000
  F   F48       1.0  0.92069  0.85763  0.70655  1.0000
  F   F49       1.0  0.05793  0.14867  0.06215  1.0000
  F   F50       1.0  0.05880  0.16278  0.55850  1.0000
  F   F51       1.0  0.06462  0.65343  0.05467  1.0000
  F   F52       1.0  0.06430  0.66172  0.54258  1.0000
  F   F53       1.0  0.30772  0.14034  0.07104  1.0000
  F   F54       1.0  0.30582  0.15855  0.55700  1.0000
  F   F55       1.0  0.31842  0.65685  0.04954  1.0000
  F   F56       1.0  0.32211  0.65984  0.53979  1.0000
  F   F57       1.0  0.56241  0.15059  0.05102  1.0000
  F   F58       1.0  0.56632  0.16546  0.55407  1.0000
  F   F59       1.0  0.57173  0.66291  0.04304  1.0000
  F   F60       1.0  0.55833  0.65715  0.57169  1.0000
  F   F61       1.0  0.81200  0.15516  0.05335  1.0000
  F   F62       1.0  0.81902  0.17263  0.54544  1.0000
  F   F63       1.0  0.81512  0.65420  0.05767  1.0000
  F   F64       1.0  0.81419  0.66061  0.54506  1.0000
  F   F65       1.0  0.20415  0.20350  0.20784  1.0000
  F   F66       1.0  0.20985  0.19858  0.71017  1.0000
  F   F67       1.0  0.18759  0.70561  0.21404  1.0000
  F   F68       1.0  0.20474  0.70838  0.70821  1.0000
  F   F69       1.0  0.45433  0.20410  0.21143  1.0000
  F   F70       1.0  0.46166  0.20440  0.70548  1.0000
  F   F71       1.0  0.45267  0.70016  0.21511  1.0000
  F   F72       1.0  0.45829  0.71361  0.70793  1.0000
  F   F73       1.0  0.69688  0.21042  0.22345  1.0000
  F   F74       1.0  0.70424  0.21086  0.70600  1.0000
  F   F75       1.0  0.69620  0.69550  0.21125  1.0000
  F   F76       1.0  0.69934  0.70240  0.70252  1.0000
  F   F77       1.0  0.95955  0.20317  0.20026  1.0000
  F   F78       1.0  0.95629  0.20210  0.71455  1.0000
  F   F79       1.0  0.96346  0.69504  0.19545  1.0000
  F   F80       1.0  0.95649  0.69891  0.70527  1.0000
  F   F81       1.0  0.14480  0.10110  0.05210  1.0000
  F   F82       1.0  0.14788  0.10442  0.53558  1.0000
  F   F83       1.0  0.15140  0.58483  0.02739  1.0000
  F   F84       1.0  0.14660  0.58803  0.55405  1.0000
  F   F85       1.0  0.39764  0.10388  0.03022  1.0000
  F   F86       1.0  0.39550  0.11507  0.52871  1.0000
  F   F87       1.0  0.40011  0.58659  0.04141  1.0000
  F   F88       1.0  0.40518  0.59605  0.53245  1.0000
  F   F89       1.0  0.64815  0.10000  0.03903  1.0000
  F   F90       1.0  0.65470  0.07661  0.55017  1.0000
  F   F91       1.0  0.65599  0.58185  0.03311  1.0000
  F   F92       1.0  0.65109  0.59298  0.54520  1.0000
  F   F93       1.0  0.89957  0.09725  0.03147  1.0000
  F   F94       1.0  0.89756  0.08770  0.53318  1.0000
  F   F95       1.0  0.89879  0.60120  0.04565  1.0000
  F   F96       1.0  0.89844  0.60405  0.52857  1.0000
  F   F97       1.0  0.14830  0.21491  0.12296  1.0000
  F   F98       1.0  0.15366  0.19559  0.62756  1.0000
  F   F99       1.0  0.15224  0.69548  0.10128  1.0000
  F   F100      1.0  0.15115  0.69922  0.62519  1.0000
  F   F101      1.0  0.40223  0.20062  0.12354  1.0000
  F   F102      1.0  0.40283  0.19756  0.62848  1.0000
  F   F103      1.0  0.40085  0.70196  0.12566  1.0000
  F   F104      1.0  0.40548  0.69132  0.63206  1.0000
  F   F105      1.0  0.65068  0.20676  0.11588  1.0000
  F   F106      1.0  0.64819  0.20731  0.61958  1.0000
  F   F107      1.0  0.65332  0.68208  0.11713  1.0000
  F   F108      1.0  0.64515  0.71733  0.61304  1.0000
  F   F109      1.0  0.89962  0.18865  0.13160  1.0000
  F   F110      1.0  0.89959  0.20123  0.63113  1.0000
  F   F111      1.0  0.89677  0.71154  0.14114  1.0000
  F   F112      1.0  0.90162  0.69978  0.62841  1.0000
  F   F113      1.0  0.09455  0.30684  0.37669  1.0000
  F   F114      1.0  0.09550  0.29514  0.89294  1.0000
  F   F115      1.0  0.09989  0.80268  0.36027  1.0000
  F   F116      1.0  0.09918  0.81260  0.87366  1.0000
  F   F117      1.0  0.34469  0.30949  0.37826  1.0000
  F   F118      1.0  0.35474  0.29511  0.88358  1.0000
  F   F119      1.0  0.34984  0.81125  0.36648  1.0000
  F   F120      1.0  0.34445  0.80029  0.87186  1.0000
  F   F121      1.0  0.59228  0.30129  0.36948  1.0000
  F   F122      1.0  0.60218  0.29999  0.85644  1.0000
  F   F123      1.0  0.59402  0.80096  0.39164  1.0000
  F   F124      1.0  0.59998  0.80802  0.87129  1.0000
  F   F125      1.0  0.84665  0.30550  0.36932  1.0000
  F   F126      1.0  0.84875  0.30576  0.88254  1.0000
  F   F127      1.0  0.84903  0.80572  0.38873  1.0000
  F   F128      1.0  0.84754  0.81353  0.86478  1.0000
  F   F129      1.0  0.06751  0.25178  0.13735  1.0000
  F   F130      1.0  0.06008  0.24686  0.65611  1.0000
  F   F131      1.0  0.06753  0.75115  0.14040  1.0000
  F   F132      1.0  0.06563  0.74445  0.64907  1.0000
  F   F133      1.0  0.31805  0.26045  0.11639  1.0000
  F   F134      1.0  0.31356  0.25394  0.63208  1.0000
  F   F135      1.0  0.31412  0.74866  0.13932  1.0000
  F   F136      1.0  0.32289  0.75702  0.62540  1.0000
  F   F137      1.0  0.56073  0.24811  0.13324  1.0000
  F   F138      1.0  0.55915  0.24352  0.66388  1.0000
  F   F139      1.0  0.57136  0.75336  0.13855  1.0000
  F   F140      1.0  0.55578  0.75979  0.65163  1.0000
  F   F141      1.0  0.81593  0.24724  0.15257  1.0000
  F   F142      1.0  0.81027  0.25321  0.64714  1.0000
  F   F143      1.0  0.81356  0.75115  0.14394  1.0000
  F   F144      1.0  0.81571  0.75392  0.63136  1.0000
  F   F145      1.0  0.12222  0.39199  0.10185  1.0000
  F   F146      1.0  0.12521  0.36721  0.59496  1.0000
  F   F147      1.0  0.12340  0.85128  0.13056  1.0000
  F   F148      1.0  0.12817  0.87674  0.59825  1.0000
  F   F149      1.0  0.37634  0.38125  0.09632  1.0000
  F   F150      1.0  0.36653  0.35468  0.61736  1.0000
  F   F151      1.0  0.37330  0.88067  0.09835  1.0000
  F   F152      1.0  0.37972  0.86861  0.59328  1.0000
  F   F153      1.0  0.62036  0.36700  0.10640  1.0000
  F   F154      1.0  0.62149  0.37508  0.61756  1.0000
  F   F155      1.0  0.62640  0.85073  0.11748  1.0000
  F   F156      1.0  0.62900  0.89157  0.58075  1.0000
  F   F157      1.0  0.87197  0.37543  0.11022  1.0000
  F   F158      1.0  0.87086  0.36435  0.61387  1.0000
  F   F159      1.0  0.87658  0.89710  0.08595  1.0000
  F   F160      1.0  0.87283  0.87541  0.61401  1.0000
  F   F161      1.0  0.17895  0.25029  0.36600  1.0000
  F   F162      1.0  0.18712  0.24808  0.86040  1.0000
  F   F163      1.0  0.18431  0.74638  0.35978  1.0000
  F   F164      1.0  0.17996  0.74865  0.86055  1.0000
  F   F165      1.0  0.43491  0.25427  0.34649  1.0000
  F   F166      1.0  0.43660  0.26143  0.85075  1.0000
  F   F167      1.0  0.43468  0.74935  0.35880  1.0000
  F   F168      1.0  0.42151  0.75025  0.87513  1.0000
  F   F169      1.0  0.67452  0.24579  0.37717  1.0000
  F   F170      1.0  0.68676  0.24212  0.85058  1.0000
  F   F171      1.0  0.68661  0.74492  0.35355  1.0000
  F   F172      1.0  0.68512  0.74018  0.85360  1.0000
  F   F173      1.0  0.93669  0.25416  0.36004  1.0000
  F   F174      1.0  0.93842  0.24327  0.86163  1.0000
  F   F175      1.0  0.94408  0.75413  0.34044  1.0000
  F   F176      1.0  0.93207  0.74555  0.86726  1.0000
  F   F177      1.0  0.12754  0.11761  0.40231  1.0000
  F   F178      1.0  0.12873  0.13084  0.89302  1.0000
  F   F179      1.0  0.12306  0.62066  0.40046  1.0000
  F   F180      1.0  0.12835  0.63372  0.87510  1.0000
  F   F181      1.0  0.37205  0.12709  0.39505  1.0000
  F   F182      1.0  0.37737  0.11814  0.89669  1.0000
  F   F183      1.0  0.37318  0.63830  0.38568  1.0000
  F   F184      1.0  0.37680  0.63067  0.88747  1.0000
  F   F185      1.0  0.62336  0.13102  0.39798  1.0000
  F   F186      1.0  0.62369  0.12107  0.89920  1.0000
  F   F187      1.0  0.62195  0.62682  0.40758  1.0000
  F   F188      1.0  0.62582  0.61739  0.89576  1.0000
  F   F189      1.0  0.87261  0.12606  0.39460  1.0000
  F   F190      1.0  0.87529  0.12621  0.88751  1.0000
  F   F191      1.0  0.87827  0.66004  0.36653  1.0000
  F   F192      1.0  0.87605  0.62798  0.89066  1.0000
  F   F193      1.0  0.00718  0.35345  0.09605  1.0000
  F   F194      1.0  0.00979  0.35955  0.58286  1.0000
  F   F195      1.0  0.01391  0.84607  0.07219  1.0000
  F   F196      1.0  0.00779  0.85496  0.59413  1.0000
  F   F197      1.0  0.25761  0.36624  0.06777  1.0000
  F   F198      1.0  0.25742  0.35915  0.55939  1.0000
  F   F199      1.0  0.25657  0.84977  0.07765  1.0000
  F   F200      1.0  0.26265  0.85574  0.55598  1.0000
  F   F201      1.0  0.50556  0.36511  0.06737  1.0000
  F   F202      1.0  0.50510  0.35729  0.57699  1.0000
  F   F203      1.0  0.51187  0.85284  0.05970  1.0000
  F   F204      1.0  0.50994  0.87469  0.55160  1.0000
  F   F205      1.0  0.75336  0.35995  0.09212  1.0000
  F   F206      1.0  0.75904  0.36316  0.57746  1.0000
  F   F207      1.0  0.76088  0.85942  0.07414  1.0000
  F   F208      1.0  0.76070  0.86934  0.56415  1.0000
  F   F209      1.0  0.06418  0.48836  0.17892  1.0000
  F   F210      1.0  0.06855  0.48122  0.68255  1.0000
  F   F211      1.0  0.08077  0.98883  0.14825  1.0000
  F   F212      1.0  0.06508  0.99552  0.67583  1.0000
  F   F213      1.0  0.31546  0.47997  0.19563  1.0000
  F   F214      1.0  0.32533  0.48624  0.65696  1.0000
  F   F215      1.0  0.31918  0.97679  0.19085  1.0000
  F   F216      1.0  0.32396  0.98805  0.66347  1.0000
  F   F217      1.0  0.56996  0.49100  0.16939  1.0000
  F   F218      1.0  0.57073  0.48808  0.67660  1.0000
  F   F219      1.0  0.57171  0.97195  0.17363  1.0000
  F   F220      1.0  0.56960  0.98688  0.67193  1.0000
  F   F221      1.0  0.82521  0.48681  0.17537  1.0000
  F   F222      1.0  0.82061  0.49140  0.67260  1.0000
  F   F223      1.0  0.81410  0.98437  0.17556  1.0000
  F   F224      1.0  0.81290  0.99552  0.68508  1.0000
  F   F225      1.0  0.24117  0.13584  0.42475  1.0000
  F   F226      1.0  0.24413  0.13371  0.92789  1.0000
  F   F227      1.0  0.23911  0.63926  0.43637  1.0000
  F   F228      1.0  0.24123  0.63012  0.93409  1.0000
  F   F229      1.0  0.49154  0.14240  0.41209  1.0000
  F   F230      1.0  0.49484  0.14097  0.91747  1.0000
  F   F231      1.0  0.49562  0.62782  0.42759  1.0000
  F   F232      1.0  0.49653  0.64822  0.90636  1.0000
  F   F233      1.0  0.74608  0.14237  0.41459  1.0000
  F   F234      1.0  0.74161  0.14224  0.92765  1.0000
  F   F235      1.0  0.74350  0.63331  0.43294  1.0000
  F   F236      1.0  0.75039  0.63264  0.92063  1.0000
  F   F237      1.0  0.99141  0.13037  0.43495  1.0000
  F   F238      1.0  0.99323  0.14012  0.92895  1.0000
  F   F239      1.0  0.99093  0.63394  0.43502  1.0000
  F   F240      1.0  0.99273  0.63108  0.93221  1.0000
  F   F241      1.0  0.18157  0.01320  0.31841  1.0000
  F   F242      1.0  0.19084  0.01539  0.80806  1.0000
  F   F243      1.0  0.18487  0.51533  0.31341  1.0000
  F   F244      1.0  0.18717  0.51967  0.79626  1.0000
  F   F245      1.0  0.43299  0.01339  0.32639  1.0000
  F   F246      1.0  0.42871  0.00853  0.83004  1.0000
  F   F247      1.0  0.43530  0.51455  0.33468  1.0000
  F   F248      1.0  0.43768  0.52733  0.81242  1.0000
  F   F249      1.0  0.67947  0.02093  0.32700  1.0000
  F   F250      1.0  0.68056  0.00419  0.83501  1.0000
  F   F251      1.0  0.67356  0.52776  0.32557  1.0000
  F   F252      1.0  0.68272  0.51601  0.81557  1.0000
  F   F253      1.0  0.93266  0.01278  0.32779  1.0000
  F   F254      1.0  0.93405  0.02633  0.82189  1.0000
  F   F255      1.0  0.92340  0.51227  0.34923  1.0000
  F   F256      1.0  0.93089  0.51696  0.82642  1.0000
  F   F257      1.0  0.99962  0.25951  0.99972  1.0000
  F   F258      1.0  0.99814  0.25499  0.49558  1.0000
  F   F259      1.0  0.00267  0.75204  0.98991  1.0000
  F   F260      1.0  0.99898  0.77274  0.48842  1.0000
  F   F261      1.0  0.25017  0.24432  0.00277  1.0000
  F   F262      1.0  0.24715  0.24493  0.49877  1.0000
  F   F263      1.0  0.25018  0.74024  0.01540  1.0000
  F   F264      1.0  0.24627  0.73687  0.51265  1.0000
  F   F265      1.0  0.49727  0.24917  0.00057  1.0000
  F   F266      1.0  0.49565  0.25012  0.49934  1.0000
  F   F267      1.0  0.50057  0.74140  0.00278  1.0000
  F   F268      1.0  0.49776  0.73669  0.50578  1.0000
  F   F269      1.0  0.74883  0.23935  0.01278  1.0000
  F   F270      1.0  0.75282  0.24373  0.49800  1.0000
  F   F271      1.0  0.75247  0.75006  0.99243  1.0000
  F   F272      1.0  0.74865  0.74644  0.49823  1.0000
  F   F273      1.0  0.11893  0.00180  0.26343  1.0000
  F   F274      1.0  0.12261  0.99696  0.74986  1.0000
  F   F275      1.0  0.12350  0.49635  0.25371  1.0000
  F   F276      1.0  0.11667  0.48927  0.76509  1.0000
  F   F277      1.0  0.38906  0.01167  0.23485  1.0000
  F   F278      1.0  0.37616  0.00895  0.74166  1.0000
  F   F279      1.0  0.37964  0.51714  0.24126  1.0000
  F   F280      1.0  0.37047  0.50048  0.75865  1.0000
  F   F281      1.0  0.62561  0.00538  0.24454  1.0000
  F   F282      1.0  0.62618  0.00118  0.75331  1.0000
  F   F283      1.0  0.62075  0.48990  0.25535  1.0000
  F   F284      1.0  0.62884  0.49577  0.74813  1.0000
  F   F285      1.0  0.87901  0.00161  0.22683  1.0000
  F   F286      1.0  0.88588  0.00537  0.72904  1.0000
  F   F287      1.0  0.87689  0.49505  0.25162  1.0000
  F   F288      1.0  0.86999  0.50088  0.75761  1.0000
  F   F289      1.0  0.05163  0.02257  0.01042  1.0000
  F   F290      1.0  0.03511  0.02374  0.53407  1.0000
  F   F291      1.0  0.04010  0.53269  0.02743  1.0000
  F   F292      1.0  0.04018  0.52330  0.53542  1.0000
  F   F293      1.0  0.29534  0.02184  0.02249  1.0000
  F   F294      1.0  0.29367  0.02637  0.51523  1.0000
  F   F295      1.0  0.28798  0.53410  0.03358  1.0000
  F   F296      1.0  0.28849  0.53206  0.52490  1.0000
  F   F297      1.0  0.53745  0.02399  0.01442  1.0000
  F   F298      1.0  0.54445  0.03375  0.52673  1.0000
  F   F299      1.0  0.54471  0.53278  0.01816  1.0000
  F   F300      1.0  0.54835  0.52300  0.52528  1.0000
  F   F301      1.0  0.78544  0.02702  0.03118  1.0000
  F   F302      1.0  0.78805  0.03975  0.53337  1.0000
  F   F303      1.0  0.79316  0.52652  0.02783  1.0000
  F   F304      1.0  0.80189  0.52794  0.51358  1.0000
  F   F305      1.0  0.23308  0.40230  0.22411  1.0000
  F   F306      1.0  0.23257  0.40080  0.72561  1.0000
  F   F307      1.0  0.23472  0.91716  0.22543  1.0000
  F   F308      1.0  0.23785  0.89421  0.72757  1.0000
  F   F309      1.0  0.48131  0.43314  0.22234  1.0000
  F   F310      1.0  0.48243  0.43270  0.71122  1.0000
  F   F311      1.0  0.48300  0.89827  0.22399  1.0000
  F   F312      1.0  0.49073  0.88705  0.74495  1.0000
  F   F313      1.0  0.73160  0.43161  0.22273  1.0000
  F   F314      1.0  0.73684  0.41984  0.73604  1.0000
  F   F315      1.0  0.73156  0.90691  0.23802  1.0000
  F   F316      1.0  0.73017  0.92422  0.71769  1.0000
  F   F317      1.0  0.98374  0.42094  0.23472  1.0000
  F   F318      1.0  0.98165  0.41125  0.73721  1.0000
  F   F319      1.0  0.98399  0.92106  0.22529  1.0000
  F   F320      1.0  0.98440  0.91563  0.73150  1.0000
  F   F321      1.0  0.20385  0.47262  0.48304  1.0000
  F   F322      1.0  0.21552  0.47506  0.94900  1.0000
  F   F323      1.0  0.21339  0.96788  0.47162  1.0000
  F   F324      1.0  0.20226  0.96931  0.98476  1.0000
  F   F325      1.0  0.45519  0.46383  0.47750  1.0000
  F   F326      1.0  0.45725  0.47349  0.97322  1.0000
  F   F327      1.0  0.44981  0.98333  0.47838  1.0000
  F   F328      1.0  0.45824  0.97171  0.97919  1.0000
  F   F329      1.0  0.70938  0.47262  0.47901  1.0000
  F   F330      1.0  0.71438  0.46027  0.96592  1.0000
  F   F331      1.0  0.71497  0.96732  0.46497  1.0000
  F   F332      1.0  0.70052  0.96820  0.99258  1.0000
  F   F333      1.0  0.95361  0.47249  0.48961  1.0000
  F   F334      1.0  0.94999  0.46665  0.99588  1.0000
  F   F335      1.0  0.95394  0.96580  0.49098  1.0000
  F   F336      1.0  0.96105  0.96593  0.97790  1.0000
  F   F337      1.0  0.01550  0.08560  0.28442  1.0000
  F   F338      1.0  0.01699  0.08094  0.78364  1.0000
  F   F339      1.0  0.01865  0.58597  0.28049  1.0000
  F   F340      1.0  0.01557  0.58072  0.77561  1.0000
  F   F341      1.0  0.26541  0.09083  0.26791  1.0000
  F   F342      1.0  0.26813  0.07994  0.76751  1.0000
  F   F343      1.0  0.25869  0.60308  0.26729  1.0000
  F   F344      1.0  0.26593  0.57868  0.76287  1.0000
  F   F345      1.0  0.51654  0.07251  0.27870  1.0000
  F   F346      1.0  0.51437  0.08103  0.76699  1.0000
  F   F347      1.0  0.51608  0.59216  0.26833  1.0000
  F   F348      1.0  0.51360  0.57944  0.77972  1.0000
  F   F349      1.0  0.76082  0.08475  0.27749  1.0000
  F   F350      1.0  0.75980  0.09306  0.77793  1.0000
  F   F351      1.0  0.76055  0.58703  0.27735  1.0000
  F   F352      1.0  0.76703  0.60253  0.75651  1.0000
  F   F353      1.0  0.10058  0.41149  0.45906  1.0000
  F   F354      1.0  0.10055  0.41061  0.96291  1.0000
  F   F355      1.0  0.09919  0.90547  0.46423  1.0000
  F   F356      1.0  0.10623  0.89455  0.96618  1.0000
  F   F357      1.0  0.35057  0.42748  0.44921  1.0000
  F   F358      1.0  0.34931  0.42446  0.95595  1.0000
  F   F359      1.0  0.35648  0.91668  0.44512  1.0000
  F   F360      1.0  0.34730  0.90557  0.96341  1.0000
  F   F361      1.0  0.60532  0.38447  0.46650  1.0000
  F   F362      1.0  0.60097  0.40247  0.96186  1.0000
  F   F363      1.0  0.59920  0.91423  0.45258  1.0000
  F   F364      1.0  0.60660  0.90301  0.96868  1.0000
  F   F365      1.0  0.85527  0.39714  0.45261  1.0000
  F   F366      1.0  0.85024  0.41649  0.95832  1.0000
  F   F367      1.0  0.85361  0.91262  0.45628  1.0000
  F   F368      1.0  0.84922  0.90958  0.95314  1.0000
  F   F369      1.0  0.04480  0.29599  0.28811  1.0000
  F   F370      1.0  0.05650  0.30390  0.78492  1.0000
  F   F371      1.0  0.04284  0.79621  0.29560  1.0000
  F   F372      1.0  0.04569  0.80085  0.78662  1.0000
  F   F373      1.0  0.30092  0.29008  0.27710  1.0000
  F   F374      1.0  0.30050  0.30069  0.79935  1.0000
  F   F375      1.0  0.30053  0.79563  0.27829  1.0000
  F   F376      1.0  0.29928  0.79896  0.78161  1.0000
  F   F377      1.0  0.53889  0.30482  0.28395  1.0000
  F   F378      1.0  0.53785  0.31879  0.78679  1.0000
  F   F379      1.0  0.54002  0.79301  0.29179  1.0000
  F   F380      1.0  0.56828  0.79991  0.77062  1.0000
  F   F381      1.0  0.79256  0.30513  0.29072  1.0000
  F   F382      1.0  0.79948  0.28969  0.80151  1.0000
  F   F383      1.0  0.80098  0.80450  0.28042  1.0000
  F   F384      1.0  0.79577  0.80592  0.78542  1.0000
