data_image0
_chemical_formula_structural       Hf96F384
_chemical_formula_sum              "Hf96 F384"
_cell_length_a       31.0505
_cell_length_b       15.5265
_cell_length_c       15.519
_cell_angle_alpha    63.342
_cell_angle_beta     63.342
_cell_angle_gamma    80.1625

_space_group_name_H-M_alt    "P 1"
_space_group_IT_number       1

loop_
  _space_group_symop_operation_xyz
  'x, y, z'

loop_
  _atom_site_type_symbol
  _atom_site_label
  _atom_site_symmetry_multiplicity
  _atom_site_fract_x
  _atom_site_fract_y
  _atom_site_fract_z
  _atom_site_occupancy
  Hf  Hf1       1.0  0.19239  0.11105  0.38098  1.0000
  Hf  Hf2       1.0  0.19758  0.10975  0.87204  1.0000
  Hf  Hf3       1.0  0.19731  0.60475  0.38176  1.0000
  Hf  Hf4       1.0  0.19865  0.60567  0.87924  1.0000
  Hf  Hf5       1.0  0.44525  0.11104  0.37034  1.0000
  Hf  Hf6       1.0  0.44516  0.10500  0.88267  1.0000
  Hf  Hf7       1.0  0.44713  0.60870  0.36681  1.0000
  Hf  Hf8       1.0  0.44563  0.61769  0.86190  1.0000
  Hf  Hf9       1.0  0.69973  0.09694  0.37389  1.0000
  Hf  Hf10      1.0  0.69403  0.10961  0.87724  1.0000
  Hf  Hf11      1.0  0.69894  0.60186  0.37303  1.0000
  Hf  Hf12      1.0  0.69751  0.60090  0.88191  1.0000
  Hf  Hf13      1.0  0.94634  0.10909  0.37711  1.0000
  Hf  Hf14      1.0  0.94497  0.10833  0.87314  1.0000
  Hf  Hf15      1.0  0.95014  0.60828  0.37068  1.0000
  Hf  Hf16      1.0  0.94863  0.61076  0.86917  1.0000
  Hf  Hf17      1.0  0.05247  0.39814  0.11716  1.0000
  Hf  Hf18      1.0  0.05787  0.40412  0.61163  1.0000
  Hf  Hf19      1.0  0.05795  0.89529  0.12556  1.0000
  Hf  Hf20      1.0  0.05480  0.89383  0.62035  1.0000
  Hf  Hf21      1.0  0.29967  0.39312  0.13179  1.0000
  Hf  Hf22      1.0  0.29688  0.38793  0.63779  1.0000
  Hf  Hf23      1.0  0.30762  0.89238  0.12180  1.0000
  Hf  Hf24      1.0  0.29984  0.89574  0.62428  1.0000
  Hf  Hf25      1.0  0.55051  0.39631  0.12280  1.0000
  Hf  Hf26      1.0  0.55569  0.38760  0.61984  1.0000
  Hf  Hf27      1.0  0.55269  0.89224  0.12714  1.0000
  Hf  Hf28      1.0  0.55374  0.89133  0.62238  1.0000
  Hf  Hf29      1.0  0.80443  0.38442  0.13013  1.0000
  Hf  Hf30      1.0  0.80398  0.38289  0.63565  1.0000
  Hf  Hf31      1.0  0.80452  0.89066  0.12808  1.0000
  Hf  Hf32      1.0  0.79625  0.88650  0.63879  1.0000
  Hf  Hf33      1.0  0.05753  0.18869  0.41115  1.0000
  Hf  Hf34      1.0  0.05621  0.18577  0.90813  1.0000
  Hf  Hf35      1.0  0.05879  0.69330  0.41058  1.0000
  Hf  Hf36      1.0  0.05172  0.67851  0.92103  1.0000
  Hf  Hf37      1.0  0.30495  0.18808  0.41189  1.0000
  Hf  Hf38      1.0  0.30565  0.18320  0.90995  1.0000
  Hf  Hf39      1.0  0.30457  0.68514  0.41697  1.0000
  Hf  Hf40      1.0  0.30261  0.68025  0.91873  1.0000
  Hf  Hf41      1.0  0.55454  0.17197  0.42461  1.0000
  Hf  Hf42      1.0  0.55852  0.18204  0.91508  1.0000
  Hf  Hf43      1.0  0.55761  0.68454  0.41455  1.0000
  Hf  Hf44      1.0  0.55796  0.68702  0.90957  1.0000
  Hf  Hf45      1.0  0.80514  0.17453  0.42293  1.0000
  Hf  Hf46      1.0  0.80526  0.17828  0.92294  1.0000
  Hf  Hf47      1.0  0.80346  0.66956  0.43247  1.0000
  Hf  Hf48      1.0  0.81084  0.67575  0.92027  1.0000
  Hf  Hf49      1.0  0.15603  0.39515  0.33222  1.0000
  Hf  Hf50      1.0  0.15402  0.38525  0.84057  1.0000
  Hf  Hf51      1.0  0.16090  0.89034  0.32758  1.0000
  Hf  Hf52      1.0  0.15649  0.89153  0.83850  1.0000
  Hf  Hf53      1.0  0.40767  0.38842  0.33707  1.0000
  Hf  Hf54      1.0  0.40627  0.38810  0.83251  1.0000
  Hf  Hf55      1.0  0.40688  0.88761  0.33068  1.0000
  Hf  Hf56      1.0  0.40572  0.88963  0.83690  1.0000
  Hf  Hf57      1.0  0.66082  0.38287  0.33291  1.0000
  Hf  Hf58      1.0  0.65760  0.39118  0.83729  1.0000
  Hf  Hf59      1.0  0.66214  0.88631  0.32583  1.0000
  Hf  Hf60      1.0  0.65411  0.88580  0.84180  1.0000
  Hf  Hf61      1.0  0.91108  0.38834  0.32816  1.0000
  Hf  Hf62      1.0  0.91686  0.39149  0.82471  1.0000
  Hf  Hf63      1.0  0.91136  0.88540  0.34115  1.0000
  Hf  Hf64      1.0  0.90947  0.88662  0.83246  1.0000
  Hf  Hf65      1.0  0.19114  0.31826  0.08490  1.0000
  Hf  Hf66      1.0  0.19413  0.31979  0.57517  1.0000
  Hf  Hf67      1.0  0.19640  0.82274  0.08101  1.0000
  Hf  Hf68      1.0  0.19398  0.81138  0.58592  1.0000
  Hf  Hf69      1.0  0.44661  0.32542  0.07457  1.0000
  Hf  Hf70      1.0  0.44751  0.31124  0.58734  1.0000
  Hf  Hf71      1.0  0.44629  0.82165  0.07689  1.0000
  Hf  Hf72      1.0  0.44286  0.82575  0.57710  1.0000
  Hf  Hf73      1.0  0.69429  0.30834  0.08785  1.0000
  Hf  Hf74      1.0  0.69300  0.31667  0.58840  1.0000
  Hf  Hf75      1.0  0.69238  0.81030  0.08028  1.0000
  Hf  Hf76      1.0  0.69226  0.81205  0.59051  1.0000
  Hf  Hf77      1.0  0.94416  0.31789  0.08431  1.0000
  Hf  Hf78      1.0  0.94598  0.31267  0.59256  1.0000
  Hf  Hf79      1.0  0.94473  0.81739  0.08718  1.0000
  Hf  Hf80      1.0  0.94024  0.82069  0.58489  1.0000
  Hf  Hf81      1.0  0.09007  0.12487  0.15920  1.0000
  Hf  Hf82      1.0  0.08805  0.10913  0.67380  1.0000
  Hf  Hf83      1.0  0.09086  0.62213  0.16185  1.0000
  Hf  Hf84      1.0  0.09385  0.61673  0.66223  1.0000
  Hf  Hf85      1.0  0.34218  0.11712  0.16321  1.0000
  Hf  Hf86      1.0  0.34158  0.10732  0.65950  1.0000
  Hf  Hf87      1.0  0.33832  0.61492  0.16244  1.0000
  Hf  Hf88      1.0  0.34639  0.61843  0.65337  1.0000
  Hf  Hf89      1.0  0.59115  0.11331  0.16876  1.0000
  Hf  Hf90      1.0  0.59357  0.11094  0.66217  1.0000
  Hf  Hf91      1.0  0.58766  0.60319  0.17189  1.0000
  Hf  Hf92      1.0  0.59278  0.61191  0.66272  1.0000
  Hf  Hf93      1.0  0.84521  0.11007  0.16533  1.0000
  Hf  Hf94      1.0  0.84053  0.11674  0.66466  1.0000
  Hf  Hf95      1.0  0.84014  0.60680  0.16963  1.0000
  Hf  Hf96      1.0  0.84288  0.61028  0.67020  1.0000
  F   F1        1.0  0.07989  0.14604  0.29504  1.0000
  F   F2        1.0  0.07290  0.11148  0.81390  1.0000
  F   F3        1.0  0.07760  0.65177  0.29652  1.0000
  F   F4        1.0  0.08564  0.62677  0.79979  1.0000
  F   F5        1.0  0.32724  0.13365  0.30617  1.0000
  F   F6        1.0  0.32993  0.14014  0.79514  1.0000
  F   F7        1.0  0.32510  0.63542  0.29668  1.0000
  F   F8        1.0  0.33157  0.63750  0.79142  1.0000
  F   F9        1.0  0.58243  0.12988  0.29546  1.0000
  F   F10       1.0  0.57842  0.12335  0.80034  1.0000
  F   F11       1.0  0.57555  0.63843  0.30381  1.0000
  F   F12       1.0  0.57500  0.61600  0.81096  1.0000
  F   F13       1.0  0.83504  0.11690  0.31083  1.0000
  F   F14       1.0  0.82610  0.14396  0.79850  1.0000
  F   F15       1.0  0.83693  0.64149  0.29732  1.0000
  F   F16       1.0  0.83182  0.61887  0.80885  1.0000
  F   F17       1.0  0.18239  0.34081  0.44070  1.0000
  F   F18       1.0  0.18045  0.35499  0.94892  1.0000
  F   F19       1.0  0.19346  0.84393  0.44072  1.0000
  F   F20       1.0  0.19323  0.85471  0.93973  1.0000
  F   F21       1.0  0.43104  0.32071  0.45452  1.0000
  F   F22       1.0  0.43865  0.34037  0.94421  1.0000
  F   F23       1.0  0.43705  0.85918  0.43885  1.0000
  F   F24       1.0  0.43077  0.84103  0.94965  1.0000
  F   F25       1.0  0.68850  0.32384  0.44940  1.0000
  F   F26       1.0  0.68649  0.33390  0.95274  1.0000
  F   F27       1.0  0.67981  0.83130  0.45609  1.0000
  F   F28       1.0  0.68721  0.84925  0.94166  1.0000
  F   F29       1.0  0.93326  0.34340  0.45068  1.0000
  F   F30       1.0  0.94081  0.33978  0.93975  1.0000
  F   F31       1.0  0.93573  0.84391  0.45119  1.0000
  F   F32       1.0  0.94168  0.84240  0.93904  1.0000
  F   F33       1.0  0.17203  0.37290  0.19994  1.0000
  F   F34       1.0  0.16000  0.34441  0.71168  1.0000
  F   F35       1.0  0.17316  0.89416  0.18948  1.0000
  F   F36       1.0  0.16693  0.86470  0.69863  1.0000
  F   F37       1.0  0.41360  0.37498  0.18994  1.0000
  F   F38       1.0  0.43180  0.38450  0.68987  1.0000
  F   F39       1.0  0.42568  0.86656  0.19792  1.0000
  F   F40       1.0  0.41845  0.88001  0.69563  1.0000
  F   F41       1.0  0.67150  0.37402  0.19737  1.0000
  F   F42       1.0  0.66867  0.38607  0.69350  1.0000
  F   F43       1.0  0.66687  0.85836  0.20212  1.0000
  F   F44       1.0  0.67066  0.87733  0.69154  1.0000
  F   F45       1.0  0.92193  0.36453  0.19793  1.0000
  F   F46       1.0  0.93217  0.36779  0.70145  1.0000
  F   F47       1.0  0.92412  0.86342  0.21180  1.0000
  F   F48       1.0  0.90948  0.85360  0.71006  1.0000
  F   F49       1.0  0.05938  0.15527  0.05923  1.0000
  F   F50       1.0  0.06791  0.16744  0.55497  1.0000
  F   F51       1.0  0.06344  0.67127  0.04607  1.0000
  F   F52       1.0  0.06364  0.66684  0.55114  1.0000
  F   F53       1.0  0.32051  0.17315  0.04625  1.0000
  F   F54       1.0  0.30862  0.16054  0.54844  1.0000
  F   F55       1.0  0.30819  0.66276  0.05271  1.0000
  F   F56       1.0  0.31413  0.65974  0.54473  1.0000
  F   F57       1.0  0.56048  0.15869  0.05747  1.0000
  F   F58       1.0  0.56260  0.14326  0.56291  1.0000
  F   F59       1.0  0.56351  0.66256  0.05577  1.0000
  F   F60       1.0  0.56476  0.67308  0.55231  1.0000
  F   F61       1.0  0.82342  0.15069  0.05332  1.0000
  F   F62       1.0  0.81519  0.16190  0.54957  1.0000
  F   F63       1.0  0.80502  0.63162  0.07414  1.0000
  F   F64       1.0  0.82473  0.66270  0.54544  1.0000
  F   F65       1.0  0.18980  0.19876  0.22486  1.0000
  F   F66       1.0  0.20746  0.19391  0.70979  1.0000
  F   F67       1.0  0.20397  0.70260  0.20199  1.0000
  F   F68       1.0  0.20354  0.69852  0.71965  1.0000
  F   F69       1.0  0.45364  0.20580  0.19684  1.0000
  F   F70       1.0  0.44758  0.20438  0.71464  1.0000
  F   F71       1.0  0.46282  0.70418  0.20817  1.0000
  F   F72       1.0  0.44384  0.70327  0.71511  1.0000
  F   F73       1.0  0.70565  0.19084  0.20911  1.0000
  F   F74       1.0  0.69941  0.20107  0.72499  1.0000
  F   F75       1.0  0.69741  0.68230  0.21910  1.0000
  F   F76       1.0  0.70257  0.70389  0.72475  1.0000
  F   F77       1.0  0.96147  0.19133  0.19968  1.0000
  F   F78       1.0  0.96104  0.20529  0.70640  1.0000
  F   F79       1.0  0.95773  0.71184  0.20784  1.0000
  F   F80       1.0  0.94687  0.70303  0.71886  1.0000
  F   F81       1.0  0.14368  0.07621  0.02503  1.0000
  F   F82       1.0  0.14674  0.10121  0.53434  1.0000
  F   F83       1.0  0.14158  0.58183  0.04445  1.0000
  F   F84       1.0  0.15223  0.59076  0.54229  1.0000
  F   F85       1.0  0.40505  0.08553  0.04021  1.0000
  F   F86       1.0  0.39795  0.10146  0.52515  1.0000
  F   F87       1.0  0.39718  0.60823  0.03792  1.0000
  F   F88       1.0  0.39800  0.58347  0.53273  1.0000
  F   F89       1.0  0.65169  0.09435  0.03270  1.0000
  F   F90       1.0  0.65162  0.09751  0.54392  1.0000
  F   F91       1.0  0.65181  0.58981  0.02949  1.0000
  F   F92       1.0  0.65128  0.60198  0.52946  1.0000
  F   F93       1.0  0.90045  0.08106  0.03073  1.0000
  F   F94       1.0  0.89824  0.10707  0.53503  1.0000
  F   F95       1.0  0.89564  0.59588  0.05351  1.0000
  F   F96       1.0  0.90313  0.58888  0.54788  1.0000
  F   F97       1.0  0.15434  0.19583  0.10011  1.0000
  F   F98       1.0  0.14148  0.19910  0.63274  1.0000
  F   F99       1.0  0.15345  0.69518  0.10730  1.0000
  F   F100      1.0  0.15941  0.68697  0.60969  1.0000
  F   F101      1.0  0.39518  0.20935  0.11034  1.0000
  F   F102      1.0  0.40538  0.18270  0.62042  1.0000
  F   F103      1.0  0.40227  0.71045  0.13248  1.0000
  F   F104      1.0  0.40025  0.70787  0.60704  1.0000
  F   F105      1.0  0.65278  0.19772  0.11823  1.0000
  F   F106      1.0  0.65015  0.20382  0.63945  1.0000
  F   F107      1.0  0.64724  0.68802  0.11112  1.0000
  F   F108      1.0  0.64760  0.69223  0.64223  1.0000
  F   F109      1.0  0.90340  0.19301  0.12132  1.0000
  F   F110      1.0  0.90212  0.19630  0.63364  1.0000
  F   F111      1.0  0.90161  0.69956  0.12222  1.0000
  F   F112      1.0  0.89803  0.70698  0.63377  1.0000
  F   F113      1.0  0.09779  0.30503  0.36923  1.0000
  F   F114      1.0  0.09193  0.31171  0.90333  1.0000
  F   F115      1.0  0.10236  0.80190  0.36879  1.0000
  F   F116      1.0  0.09872  0.81811  0.86486  1.0000
  F   F117      1.0  0.34733  0.30099  0.38417  1.0000
  F   F118      1.0  0.35253  0.28765  0.85233  1.0000
  F   F119      1.0  0.34431  0.81998  0.35883  1.0000
  F   F120      1.0  0.34665  0.81161  0.87264  1.0000
  F   F121      1.0  0.60082  0.28832  0.37605  1.0000
  F   F122      1.0  0.59588  0.31385  0.87928  1.0000
  F   F123      1.0  0.60259  0.80095  0.38831  1.0000
  F   F124      1.0  0.59668  0.81060  0.86171  1.0000
  F   F125      1.0  0.85154  0.28941  0.39371  1.0000
  F   F126      1.0  0.84232  0.30007  0.87944  1.0000
  F   F127      1.0  0.84452  0.78724  0.37104  1.0000
  F   F128      1.0  0.85014  0.78407  0.91011  1.0000
  F   F129      1.0  0.06314  0.26208  0.13048  1.0000
  F   F130      1.0  0.05887  0.25094  0.65943  1.0000
  F   F131      1.0  0.05634  0.75036  0.15258  1.0000
  F   F132      1.0  0.06713  0.74347  0.64453  1.0000
  F   F133      1.0  0.30498  0.25699  0.15612  1.0000
  F   F134      1.0  0.31208  0.24974  0.64859  1.0000
  F   F135      1.0  0.32656  0.75577  0.11981  1.0000
  F   F136      1.0  0.31648  0.75778  0.63284  1.0000
  F   F137      1.0  0.56646  0.25438  0.13461  1.0000
  F   F138      1.0  0.57044  0.25233  0.63201  1.0000
  F   F139      1.0  0.55539  0.74287  0.16111  1.0000
  F   F140      1.0  0.55603  0.74762  0.65371  1.0000
  F   F141      1.0  0.81964  0.24382  0.15040  1.0000
  F   F142      1.0  0.81820  0.25775  0.62281  1.0000
  F   F143      1.0  0.81993  0.75135  0.13044  1.0000
  F   F144      1.0  0.80691  0.74503  0.65274  1.0000
  F   F145      1.0  0.12272  0.34669  0.12237  1.0000
  F   F146      1.0  0.12906  0.39504  0.58620  1.0000
  F   F147      1.0  0.12262  0.84211  0.13492  1.0000
  F   F148      1.0  0.12633  0.86247  0.60498  1.0000
  F   F149      1.0  0.37481  0.38800  0.08051  1.0000
  F   F150      1.0  0.37777  0.35498  0.61752  1.0000
  F   F151      1.0  0.37409  0.87858  0.10432  1.0000
  F   F152      1.0  0.37301  0.86649  0.61827  1.0000
  F   F153      1.0  0.62361  0.36705  0.11666  1.0000
  F   F154      1.0  0.62591  0.37065  0.59733  1.0000
  F   F155      1.0  0.62506  0.86676  0.10407  1.0000
  F   F156      1.0  0.62478  0.85095  0.61895  1.0000
  F   F157      1.0  0.88174  0.36663  0.10100  1.0000
  F   F158      1.0  0.87795  0.37159  0.61342  1.0000
  F   F159      1.0  0.87295  0.85873  0.12575  1.0000
  F   F160      1.0  0.86766  0.89201  0.59641  1.0000
  F   F161      1.0  0.20150  0.26041  0.33646  1.0000
  F   F162      1.0  0.18299  0.24806  0.87044  1.0000
  F   F163      1.0  0.19136  0.75842  0.34075  1.0000
  F   F164      1.0  0.18404  0.74430  0.87117  1.0000
  F   F165      1.0  0.43981  0.25330  0.33789  1.0000
  F   F166      1.0  0.42942  0.24822  0.86645  1.0000
  F   F167      1.0  0.42570  0.74270  0.38040  1.0000
  F   F168      1.0  0.42883  0.75401  0.85469  1.0000
  F   F169      1.0  0.68701  0.24074  0.35328  1.0000
  F   F170      1.0  0.67792  0.24808  0.86644  1.0000
  F   F171      1.0  0.69006  0.75029  0.33979  1.0000
  F   F172      1.0  0.68261  0.75111  0.86342  1.0000
  F   F173      1.0  0.93465  0.24754  0.35903  1.0000
  F   F174      1.0  0.92483  0.24781  0.86386  1.0000
  F   F175      1.0  0.92983  0.74090  0.37342  1.0000
  F   F176      1.0  0.93730  0.74573  0.85142  1.0000
  F   F177      1.0  0.12270  0.13919  0.39291  1.0000
  F   F178      1.0  0.12451  0.15646  0.86834  1.0000
  F   F179      1.0  0.12981  0.64610  0.38814  1.0000
  F   F180      1.0  0.12345  0.63658  0.89177  1.0000
  F   F181      1.0  0.37507  0.12820  0.39314  1.0000
  F   F182      1.0  0.37655  0.11561  0.89723  1.0000
  F   F183      1.0  0.37927  0.64459  0.36892  1.0000
  F   F184      1.0  0.37437  0.62877  0.89033  1.0000
  F   F185      1.0  0.62400  0.11526  0.40204  1.0000
  F   F186      1.0  0.62597  0.13857  0.88115  1.0000
  F   F187      1.0  0.62414  0.62003  0.39524  1.0000
  F   F188      1.0  0.62657  0.63771  0.89158  1.0000
  F   F189      1.0  0.87617  0.11655  0.39722  1.0000
  F   F190      1.0  0.87897  0.12529  0.88312  1.0000
  F   F191      1.0  0.88055  0.61338  0.40406  1.0000
  F   F192      1.0  0.87439  0.61461  0.90967  1.0000
  F   F193      1.0  0.00063  0.35924  0.08300  1.0000
  F   F194      1.0  0.00779  0.37967  0.57245  1.0000
  F   F195      1.0  0.00706  0.86357  0.08056  1.0000
  F   F196      1.0  0.00632  0.84829  0.59185  1.0000
  F   F197      1.0  0.25377  0.37858  0.07449  1.0000
  F   F198      1.0  0.25396  0.37974  0.57397  1.0000
  F   F199      1.0  0.26075  0.84431  0.08218  1.0000
  F   F200      1.0  0.25426  0.86698  0.56620  1.0000
  F   F201      1.0  0.50468  0.36561  0.07483  1.0000
  F   F202      1.0  0.51130  0.34445  0.57689  1.0000
  F   F203      1.0  0.51058  0.88863  0.05818  1.0000
  F   F204      1.0  0.50945  0.87240  0.54529  1.0000
  F   F205      1.0  0.75336  0.35417  0.08865  1.0000
  F   F206      1.0  0.76028  0.35945  0.57567  1.0000
  F   F207      1.0  0.75646  0.85249  0.07844  1.0000
  F   F208      1.0  0.75429  0.86843  0.56717  1.0000
  F   F209      1.0  0.06539  0.48983  0.15744  1.0000
  F   F210      1.0  0.06894  0.49080  0.67711  1.0000
  F   F211      1.0  0.06930  0.98649  0.18054  1.0000
  F   F212      1.0  0.06918  0.97917  0.67311  1.0000
  F   F213      1.0  0.31675  0.49545  0.17596  1.0000
  F   F214      1.0  0.31336  0.48777  0.67502  1.0000
  F   F215      1.0  0.32520  0.99262  0.16772  1.0000
  F   F216      1.0  0.32096  0.98559  0.65673  1.0000
  F   F217      1.0  0.56578  0.48560  0.17278  1.0000
  F   F218      1.0  0.57625  0.47779  0.67023  1.0000
  F   F219      1.0  0.57195  0.99026  0.17054  1.0000
  F   F220      1.0  0.57433  0.97772  0.67195  1.0000
  F   F221      1.0  0.82494  0.46946  0.18470  1.0000
  F   F222      1.0  0.82008  0.47203  0.68111  1.0000
  F   F223      1.0  0.82316  0.98627  0.17607  1.0000
  F   F224      1.0  0.81144  0.97531  0.71260  1.0000
  F   F225      1.0  0.24052  0.14694  0.42754  1.0000
  F   F226      1.0  0.23795  0.13320  0.93367  1.0000
  F   F227      1.0  0.24647  0.62627  0.42929  1.0000
  F   F228      1.0  0.24279  0.62707  0.93907  1.0000
  F   F229      1.0  0.49699  0.14380  0.41891  1.0000
  F   F230      1.0  0.48947  0.13688  0.92232  1.0000
  F   F231      1.0  0.48969  0.64331  0.41698  1.0000
  F   F232      1.0  0.49088  0.65530  0.90300  1.0000
  F   F233      1.0  0.74477  0.13386  0.42321  1.0000
  F   F234      1.0  0.73931  0.14175  0.93239  1.0000
  F   F235      1.0  0.74654  0.63627  0.41629  1.0000
  F   F236      1.0  0.74727  0.63729  0.91279  1.0000
  F   F237      1.0  0.99229  0.13098  0.43262  1.0000
  F   F238      1.0  0.99524  0.15890  0.90357  1.0000
  F   F239      1.0  0.99664  0.64928  0.41474  1.0000
  F   F240      1.0  0.98631  0.63673  0.93488  1.0000
  F   F241      1.0  0.18493  0.01546  0.32632  1.0000
  F   F242      1.0  0.17738  0.02436  0.82383  1.0000
  F   F243      1.0  0.16753  0.51571  0.35137  1.0000
  F   F244      1.0  0.18093  0.51873  0.83160  1.0000
  F   F245      1.0  0.43340  0.02605  0.32174  1.0000
  F   F246      1.0  0.43322  0.01776  0.81551  1.0000
  F   F247      1.0  0.42598  0.51056  0.34388  1.0000
  F   F248      1.0  0.42793  0.51736  0.80141  1.0000
  F   F249      1.0  0.68029  0.00725  0.33236  1.0000
  F   F250      1.0  0.67872  0.02086  0.82388  1.0000
  F   F251      1.0  0.68607  0.50235  0.32777  1.0000
  F   F252      1.0  0.67760  0.51739  0.82860  1.0000
  F   F253      1.0  0.93446  0.01317  0.33388  1.0000
  F   F254      1.0  0.93183  0.01207  0.82447  1.0000
  F   F255      1.0  0.93587  0.51577  0.31591  1.0000
  F   F256      1.0  0.93598  0.51598  0.81414  1.0000
  F   F257      1.0  0.99918  0.25347  0.99687  1.0000
  F   F258      1.0  0.00250  0.25952  0.50367  1.0000
  F   F259      1.0  0.99807  0.74997  0.99847  1.0000
  F   F260      1.0  0.00322  0.75846  0.49318  1.0000
  F   F261      1.0  0.24849  0.24127  0.01734  1.0000
  F   F262      1.0  0.25314  0.27293  0.48198  1.0000
  F   F263      1.0  0.24967  0.75124  0.98466  1.0000
  F   F264      1.0  0.25176  0.74787  0.49732  1.0000
  F   F265      1.0  0.50696  0.26528  0.97675  1.0000
  F   F266      1.0  0.50511  0.25197  0.49363  1.0000
  F   F267      1.0  0.49950  0.75643  0.98719  1.0000
  F   F268      1.0  0.49733  0.75812  0.49553  1.0000
  F   F269      1.0  0.75490  0.23979  0.00771  1.0000
  F   F270      1.0  0.74444  0.23187  0.52238  1.0000
  F   F271      1.0  0.74770  0.73824  0.00811  1.0000
  F   F272      1.0  0.74365  0.72345  0.52075  1.0000
  F   F273      1.0  0.11696  0.00669  0.26803  1.0000
  F   F274      1.0  0.13031  0.00247  0.74228  1.0000
  F   F275      1.0  0.11546  0.50780  0.25637  1.0000
  F   F276      1.0  0.13426  0.49995  0.74493  1.0000
  F   F277      1.0  0.38163  0.01329  0.23901  1.0000
  F   F278      1.0  0.37302  0.00300  0.75074  1.0000
  F   F279      1.0  0.37986  0.51559  0.24564  1.0000
  F   F280      1.0  0.37035  0.50611  0.74359  1.0000
  F   F281      1.0  0.62638  0.99818  0.25153  1.0000
  F   F282      1.0  0.62082  0.99926  0.76063  1.0000
  F   F283      1.0  0.62556  0.49978  0.25052  1.0000
  F   F284      1.0  0.62618  0.51238  0.73934  1.0000
  F   F285      1.0  0.88132  0.00136  0.24193  1.0000
  F   F286      1.0  0.87785  0.99159  0.74995  1.0000
  F   F287      1.0  0.87316  0.49771  0.26019  1.0000
  F   F288      1.0  0.86982  0.48377  0.76859  1.0000
  F   F289      1.0  0.03938  0.03805  0.02572  1.0000
  F   F290      1.0  0.04136  0.03824  0.52275  1.0000
  F   F291      1.0  0.03198  0.52763  0.02299  1.0000
  F   F292      1.0  0.05004  0.53809  0.50860  1.0000
  F   F293      1.0  0.29289  0.04414  0.03152  1.0000
  F   F294      1.0  0.29157  0.03754  0.51821  1.0000
  F   F295      1.0  0.29492  0.52433  0.01798  1.0000
  F   F296      1.0  0.30611  0.53171  0.50995  1.0000
  F   F297      1.0  0.53981  0.02747  0.03340  1.0000
  F   F298      1.0  0.54021  0.03290  0.52150  1.0000
  F   F299      1.0  0.53476  0.53993  0.02021  1.0000
  F   F300      1.0  0.54032  0.52516  0.53685  1.0000
  F   F301      1.0  0.78973  0.03297  0.03586  1.0000
  F   F302      1.0  0.78808  0.02615  0.54636  1.0000
  F   F303      1.0  0.79487  0.52029  0.02237  1.0000
  F   F304      1.0  0.78886  0.52420  0.53675  1.0000
  F   F305      1.0  0.23415  0.43166  0.22639  1.0000
  F   F306      1.0  0.22740  0.41005  0.73048  1.0000
  F   F307      1.0  0.24173  0.93837  0.21088  1.0000
  F   F308      1.0  0.23194  0.91340  0.72842  1.0000
  F   F309      1.0  0.47881  0.43243  0.21547  1.0000
  F   F310      1.0  0.49142  0.39791  0.74262  1.0000
  F   F311      1.0  0.48382  0.89758  0.24711  1.0000
  F   F312      1.0  0.48803  0.90178  0.73035  1.0000
  F   F313      1.0  0.74193  0.39937  0.23868  1.0000
  F   F314      1.0  0.73225  0.41568  0.72767  1.0000
  F   F315      1.0  0.72959  0.92338  0.22357  1.0000
  F   F316      1.0  0.73261  0.89792  0.74054  1.0000
  F   F317      1.0  0.98320  0.40723  0.23658  1.0000
  F   F318      1.0  0.98799  0.41107  0.73626  1.0000
  F   F319      1.0  0.98679  0.90788  0.24116  1.0000
  F   F320      1.0  0.98250  0.91535  0.72069  1.0000
  F   F321      1.0  0.21120  0.46789  0.46773  1.0000
  F   F322      1.0  0.21039  0.46431  0.98187  1.0000
  F   F323      1.0  0.20637  0.98208  0.47624  1.0000
  F   F324      1.0  0.21365  0.96870  0.97428  1.0000
  F   F325      1.0  0.46313  0.46564  0.47666  1.0000
  F   F326      1.0  0.46171  0.47823  0.95465  1.0000
  F   F327      1.0  0.45197  0.98342  0.47181  1.0000
  F   F328      1.0  0.45718  0.96360  0.97835  1.0000
  F   F329      1.0  0.70546  0.46565  0.48260  1.0000
  F   F330      1.0  0.70939  0.45910  0.97832  1.0000
  F   F331      1.0  0.70553  0.96574  0.47664  1.0000
  F   F332      1.0  0.70387  0.96806  0.99350  1.0000
  F   F333      1.0  0.95906  0.47404  0.47703  1.0000
  F   F334      1.0  0.95246  0.47700  0.97903  1.0000
  F   F335      1.0  0.95184  0.97553  0.49515  1.0000
  F   F336      1.0  0.95497  0.95918  0.98059  1.0000
  F   F337      1.0  0.01974  0.09004  0.26884  1.0000
  F   F338      1.0  0.01225  0.07630  0.76881  1.0000
  F   F339      1.0  0.02035  0.57479  0.27504  1.0000
  F   F340      1.0  0.01966  0.59420  0.77502  1.0000
  F   F341      1.0  0.26577  0.10058  0.26479  1.0000
  F   F342      1.0  0.27033  0.08099  0.76442  1.0000
  F   F343      1.0  0.26171  0.60077  0.26957  1.0000
  F   F344      1.0  0.26737  0.59394  0.77186  1.0000
  F   F345      1.0  0.51711  0.07713  0.28270  1.0000
  F   F346      1.0  0.51403  0.07696  0.77043  1.0000
  F   F347      1.0  0.51703  0.56701  0.28510  1.0000
  F   F348      1.0  0.51139  0.58913  0.76498  1.0000
  F   F349      1.0  0.77254  0.07880  0.27598  1.0000
  F   F350      1.0  0.76404  0.09693  0.77075  1.0000
  F   F351      1.0  0.76718  0.56672  0.28668  1.0000
  F   F352      1.0  0.77026  0.58578  0.76055  1.0000
  F   F353      1.0  0.09314  0.40267  0.46353  1.0000
  F   F354      1.0  0.09918  0.42788  0.96893  1.0000
  F   F355      1.0  0.09929  0.88870  0.46343  1.0000
  F   F356      1.0  0.10332  0.91206  0.97613  1.0000
  F   F357      1.0  0.34457  0.39401  0.46971  1.0000
  F   F358      1.0  0.34524  0.37958  0.96204  1.0000
  F   F359      1.0  0.35219  0.91161  0.46562  1.0000
  F   F360      1.0  0.35356  0.91654  0.95425  1.0000
  F   F361      1.0  0.60112  0.39757  0.45818  1.0000
  F   F362      1.0  0.60389  0.42412  0.95900  1.0000
  F   F363      1.0  0.60036  0.91087  0.47362  1.0000
  F   F364      1.0  0.59880  0.87779  0.97990  1.0000
  F   F365      1.0  0.85109  0.41177  0.46910  1.0000
  F   F366      1.0  0.85329  0.38777  0.97311  1.0000
  F   F367      1.0  0.84972  0.87900  0.46721  1.0000
  F   F368      1.0  0.85646  0.91015  0.96998  1.0000
  F   F369      1.0  0.04765  0.30242  0.28231  1.0000
  F   F370      1.0  0.06450  0.30029  0.77644  1.0000
  F   F371      1.0  0.04615  0.81810  0.28944  1.0000
  F   F372      1.0  0.03974  0.78501  0.79226  1.0000
  F   F373      1.0  0.29579  0.31743  0.28584  1.0000
  F   F374      1.0  0.28568  0.30082  0.80087  1.0000
  F   F375      1.0  0.29723  0.79564  0.28408  1.0000
  F   F376      1.0  0.29466  0.80822  0.78284  1.0000
  F   F377      1.0  0.53912  0.30354  0.27654  1.0000
  F   F378      1.0  0.55897  0.29380  0.78330  1.0000
  F   F379      1.0  0.55162  0.80460  0.29439  1.0000
  F   F380      1.0  0.54748  0.79350  0.78885  1.0000
  F   F381      1.0  0.80906  0.29213  0.29557  1.0000
  F   F382      1.0  0.79519  0.29450  0.79347  1.0000
  F   F383      1.0  0.78599  0.80188  0.27720  1.0000
  F   F384      1.0  0.80218  0.78788  0.79400  1.0000
