data_image0
_chemical_formula_structural       Hf96F384
_chemical_formula_sum              "Hf96 F384"
_cell_length_a       31.0159
_cell_length_b       15.5076
_cell_length_c       15.4999
_cell_angle_alpha    63.342
_cell_angle_beta     63.342
_cell_angle_gamma    80.1625

_space_group_name_H-M_alt    "P 1"
_space_group_IT_number       1

loop_
  _space_group_symop_operation_xyz
  'x, y, z'

loop_
  _atom_site_type_symbol
  _atom_site_label
  _atom_site_symmetry_multiplicity
  _atom_site_fract_x
  _atom_site_fract_y
  _atom_site_fract_z
  _atom_site_occupancy
  Hf  Hf1       1.0  0.19794  0.10226  0.36805  1.0000
  Hf  Hf2       1.0  0.19504  0.09837  0.88231  1.0000
  Hf  Hf3       1.0  0.19706  0.59896  0.37802  1.0000
  Hf  Hf4       1.0  0.19206  0.59769  0.87985  1.0000
  Hf  Hf5       1.0  0.44573  0.10998  0.37060  1.0000
  Hf  Hf6       1.0  0.44512  0.11254  0.87259  1.0000
  Hf  Hf7       1.0  0.44323  0.60725  0.38056  1.0000
  Hf  Hf8       1.0  0.44471  0.60991  0.87263  1.0000
  Hf  Hf9       1.0  0.69614  0.11809  0.37554  1.0000
  Hf  Hf10      1.0  0.69536  0.11569  0.86623  1.0000
  Hf  Hf11      1.0  0.69674  0.60681  0.37771  1.0000
  Hf  Hf12      1.0  0.69830  0.60569  0.87256  1.0000
  Hf  Hf13      1.0  0.94796  0.10492  0.37412  1.0000
  Hf  Hf14      1.0  0.94984  0.10689  0.86779  1.0000
  Hf  Hf15      1.0  0.94566  0.60541  0.37500  1.0000
  Hf  Hf16      1.0  0.94753  0.61404  0.86728  1.0000
  Hf  Hf17      1.0  0.05128  0.38691  0.12525  1.0000
  Hf  Hf18      1.0  0.05377  0.37912  0.63924  1.0000
  Hf  Hf19      1.0  0.05434  0.88942  0.12802  1.0000
  Hf  Hf20      1.0  0.05548  0.89458  0.62162  1.0000
  Hf  Hf21      1.0  0.30144  0.39787  0.12794  1.0000
  Hf  Hf22      1.0  0.30320  0.39254  0.63165  1.0000
  Hf  Hf23      1.0  0.30579  0.88920  0.12448  1.0000
  Hf  Hf24      1.0  0.30238  0.89063  0.63320  1.0000
  Hf  Hf25      1.0  0.55468  0.38883  0.11943  1.0000
  Hf  Hf26      1.0  0.55357  0.40100  0.62072  1.0000
  Hf  Hf27      1.0  0.55770  0.89604  0.12437  1.0000
  Hf  Hf28      1.0  0.55233  0.90055  0.62073  1.0000
  Hf  Hf29      1.0  0.80361  0.38918  0.13294  1.0000
  Hf  Hf30      1.0  0.80282  0.39322  0.62307  1.0000
  Hf  Hf31      1.0  0.80209  0.89011  0.11960  1.0000
  Hf  Hf32      1.0  0.80291  0.90122  0.62016  1.0000
  Hf  Hf33      1.0  0.05894  0.18441  0.41363  1.0000
  Hf  Hf34      1.0  0.05680  0.17905  0.91792  1.0000
  Hf  Hf35      1.0  0.05541  0.67588  0.42097  1.0000
  Hf  Hf36      1.0  0.05353  0.68327  0.91650  1.0000
  Hf  Hf37      1.0  0.30432  0.18603  0.41571  1.0000
  Hf  Hf38      1.0  0.30540  0.17853  0.91855  1.0000
  Hf  Hf39      1.0  0.30236  0.67008  0.43313  1.0000
  Hf  Hf40      1.0  0.30067  0.68606  0.92264  1.0000
  Hf  Hf41      1.0  0.55445  0.18492  0.40800  1.0000
  Hf  Hf42      1.0  0.55533  0.18776  0.91117  1.0000
  Hf  Hf43      1.0  0.55483  0.68586  0.41866  1.0000
  Hf  Hf44      1.0  0.55251  0.68773  0.91358  1.0000
  Hf  Hf45      1.0  0.80926  0.18633  0.41397  1.0000
  Hf  Hf46      1.0  0.80421  0.18533  0.91943  1.0000
  Hf  Hf47      1.0  0.80629  0.68797  0.41255  1.0000
  Hf  Hf48      1.0  0.80610  0.68489  0.91371  1.0000
  Hf  Hf49      1.0  0.15837  0.37804  0.34489  1.0000
  Hf  Hf50      1.0  0.15737  0.38769  0.83318  1.0000
  Hf  Hf51      1.0  0.16018  0.88658  0.33073  1.0000
  Hf  Hf52      1.0  0.15772  0.88087  0.83951  1.0000
  Hf  Hf53      1.0  0.40765  0.38591  0.34053  1.0000
  Hf  Hf54      1.0  0.40792  0.38912  0.83135  1.0000
  Hf  Hf55      1.0  0.40928  0.89169  0.33212  1.0000
  Hf  Hf56      1.0  0.40623  0.89029  0.83308  1.0000
  Hf  Hf57      1.0  0.65607  0.38614  0.33201  1.0000
  Hf  Hf58      1.0  0.65988  0.38667  0.83242  1.0000
  Hf  Hf59      1.0  0.66004  0.89627  0.33019  1.0000
  Hf  Hf60      1.0  0.65863  0.88287  0.83762  1.0000
  Hf  Hf61      1.0  0.90895  0.39203  0.33158  1.0000
  Hf  Hf62      1.0  0.91059  0.38639  0.83599  1.0000
  Hf  Hf63      1.0  0.91041  0.89428  0.32556  1.0000
  Hf  Hf64      1.0  0.90749  0.88601  0.84091  1.0000
  Hf  Hf65      1.0  0.19763  0.31550  0.07619  1.0000
  Hf  Hf66      1.0  0.19547  0.31363  0.59550  1.0000
  Hf  Hf67      1.0  0.19524  0.81594  0.08918  1.0000
  Hf  Hf68      1.0  0.19302  0.80907  0.59226  1.0000
  Hf  Hf69      1.0  0.43973  0.31842  0.08475  1.0000
  Hf  Hf70      1.0  0.44589  0.31424  0.57911  1.0000
  Hf  Hf71      1.0  0.44387  0.82234  0.08187  1.0000
  Hf  Hf72      1.0  0.44206  0.81720  0.58521  1.0000
  Hf  Hf73      1.0  0.69427  0.32395  0.08136  1.0000
  Hf  Hf74      1.0  0.69413  0.32102  0.57934  1.0000
  Hf  Hf75      1.0  0.69189  0.81253  0.08521  1.0000
  Hf  Hf76      1.0  0.69596  0.82138  0.58630  1.0000
  Hf  Hf77      1.0  0.94726  0.31987  0.08199  1.0000
  Hf  Hf78      1.0  0.94547  0.31478  0.58281  1.0000
  Hf  Hf79      1.0  0.94302  0.81303  0.08757  1.0000
  Hf  Hf80      1.0  0.94233  0.81925  0.58283  1.0000
  Hf  Hf81      1.0  0.09321  0.10784  0.16879  1.0000
  Hf  Hf82      1.0  0.09322  0.10436  0.66583  1.0000
  Hf  Hf83      1.0  0.09515  0.60844  0.16615  1.0000
  Hf  Hf84      1.0  0.08954  0.60578  0.67036  1.0000
  Hf  Hf85      1.0  0.34310  0.11339  0.16306  1.0000
  Hf  Hf86      1.0  0.34029  0.10832  0.66991  1.0000
  Hf  Hf87      1.0  0.34361  0.60773  0.16700  1.0000
  Hf  Hf88      1.0  0.33942  0.60920  0.67575  1.0000
  Hf  Hf89      1.0  0.59211  0.12148  0.16202  1.0000
  Hf  Hf90      1.0  0.59213  0.12051  0.65963  1.0000
  Hf  Hf91      1.0  0.58802  0.61524  0.16545  1.0000
  Hf  Hf92      1.0  0.59375  0.62215  0.65978  1.0000
  Hf  Hf93      1.0  0.83876  0.11431  0.16728  1.0000
  Hf  Hf94      1.0  0.84555  0.11299  0.66276  1.0000
  Hf  Hf95      1.0  0.84596  0.60586  0.16265  1.0000
  Hf  Hf96      1.0  0.84528  0.61960  0.65593  1.0000
  F   F1        1.0  0.07431  0.12610  0.30258  1.0000
  F   F2        1.0  0.08345  0.11651  0.80631  1.0000
  F   F3        1.0  0.08204  0.61497  0.30825  1.0000
  F   F4        1.0  0.07678  0.63987  0.80088  1.0000
  F   F5        1.0  0.32939  0.14351  0.29893  1.0000
  F   F6        1.0  0.32982  0.12595  0.79914  1.0000
  F   F7        1.0  0.32464  0.62289  0.31714  1.0000
  F   F8        1.0  0.32149  0.61933  0.82120  1.0000
  F   F9        1.0  0.57916  0.12749  0.30336  1.0000
  F   F10       1.0  0.57961  0.14559  0.79072  1.0000
  F   F11       1.0  0.58249  0.64514  0.30052  1.0000
  F   F12       1.0  0.58168  0.62092  0.80216  1.0000
  F   F13       1.0  0.83445  0.13692  0.29491  1.0000
  F   F14       1.0  0.82446  0.12528  0.81106  1.0000
  F   F15       1.0  0.83466  0.63402  0.29130  1.0000
  F   F16       1.0  0.83140  0.63497  0.79885  1.0000
  F   F17       1.0  0.18464  0.33730  0.46343  1.0000
  F   F18       1.0  0.19592  0.33889  0.93802  1.0000
  F   F19       1.0  0.18358  0.83942  0.45146  1.0000
  F   F20       1.0  0.17945  0.84224  0.95760  1.0000
  F   F21       1.0  0.44331  0.35059  0.43434  1.0000
  F   F22       1.0  0.43029  0.34626  0.94896  1.0000
  F   F23       1.0  0.43866  0.83362  0.44045  1.0000
  F   F24       1.0  0.43687  0.85501  0.94575  1.0000
  F   F25       1.0  0.68882  0.35196  0.43983  1.0000
  F   F26       1.0  0.68019  0.33558  0.95479  1.0000
  F   F27       1.0  0.68478  0.85320  0.44153  1.0000
  F   F28       1.0  0.68377  0.83993  0.94854  1.0000
  F   F29       1.0  0.93251  0.33978  0.44937  1.0000
  F   F30       1.0  0.93299  0.33998  0.94445  1.0000
  F   F31       1.0  0.92610  0.84176  0.45184  1.0000
  F   F32       1.0  0.93882  0.84370  0.94243  1.0000
  F   F33       1.0  0.17480  0.36004  0.19615  1.0000
  F   F34       1.0  0.17008  0.38117  0.70072  1.0000
  F   F35       1.0  0.16933  0.86222  0.20368  1.0000
  F   F36       1.0  0.16827  0.85955  0.70507  1.0000
  F   F37       1.0  0.41627  0.37520  0.20056  1.0000
  F   F38       1.0  0.42648  0.36913  0.69865  1.0000
  F   F39       1.0  0.41930  0.88186  0.19358  1.0000
  F   F40       1.0  0.41395  0.86446  0.70874  1.0000
  F   F41       1.0  0.67096  0.38373  0.19005  1.0000
  F   F42       1.0  0.67110  0.36781  0.69578  1.0000
  F   F43       1.0  0.67735  0.88287  0.19051  1.0000
  F   F44       1.0  0.66942  0.86708  0.70411  1.0000
  F   F45       1.0  0.92909  0.38098  0.18469  1.0000
  F   F46       1.0  0.91839  0.37313  0.68471  1.0000
  F   F47       1.0  0.92472  0.88188  0.18925  1.0000
  F   F48       1.0  0.91996  0.86309  0.70225  1.0000
  F   F49       1.0  0.07108  0.14723  0.05115  1.0000
  F   F50       1.0  0.06655  0.15871  0.55195  1.0000
  F   F51       1.0  0.06362  0.66009  0.05612  1.0000
  F   F52       1.0  0.05243  0.64518  0.56919  1.0000
  F   F53       1.0  0.31782  0.14595  0.05757  1.0000
  F   F54       1.0  0.31794  0.15805  0.54966  1.0000
  F   F55       1.0  0.31536  0.66278  0.05604  1.0000
  F   F56       1.0  0.31728  0.63975  0.56163  1.0000
  F   F57       1.0  0.56210  0.15658  0.05623  1.0000
  F   F58       1.0  0.57213  0.16882  0.53895  1.0000
  F   F59       1.0  0.56594  0.66499  0.04814  1.0000
  F   F60       1.0  0.56466  0.67752  0.54420  1.0000
  F   F61       1.0  0.80968  0.15681  0.05376  1.0000
  F   F62       1.0  0.82574  0.17252  0.53313  1.0000
  F   F63       1.0  0.81812  0.66479  0.04996  1.0000
  F   F64       1.0  0.81823  0.66132  0.53715  1.0000
  F   F65       1.0  0.21229  0.19179  0.20196  1.0000
  F   F66       1.0  0.20063  0.19527  0.71525  1.0000
  F   F67       1.0  0.20553  0.69081  0.21592  1.0000
  F   F68       1.0  0.20423  0.68308  0.72519  1.0000
  F   F69       1.0  0.44870  0.20213  0.21710  1.0000
  F   F70       1.0  0.44870  0.20075  0.71536  1.0000
  F   F71       1.0  0.45187  0.69622  0.20815  1.0000
  F   F72       1.0  0.45024  0.70798  0.71059  1.0000
  F   F73       1.0  0.71198  0.21319  0.20704  1.0000
  F   F74       1.0  0.70096  0.19918  0.70715  1.0000
  F   F75       1.0  0.70462  0.69585  0.20683  1.0000
  F   F76       1.0  0.70804  0.70042  0.71566  1.0000
  F   F77       1.0  0.95738  0.20470  0.20265  1.0000
  F   F78       1.0  0.95412  0.19749  0.71684  1.0000
  F   F79       1.0  0.94565  0.69393  0.21250  1.0000
  F   F80       1.0  0.96036  0.70690  0.70817  1.0000
  F   F81       1.0  0.15670  0.09036  0.03851  1.0000
  F   F82       1.0  0.14911  0.08287  0.52661  1.0000
  F   F83       1.0  0.14898  0.59331  0.04355  1.0000
  F   F84       1.0  0.14265  0.59954  0.53375  1.0000
  F   F85       1.0  0.39902  0.08959  0.04505  1.0000
  F   F86       1.0  0.40098  0.09550  0.53418  1.0000
  F   F87       1.0  0.39671  0.57701  0.04689  1.0000
  F   F88       1.0  0.40391  0.59285  0.53480  1.0000
  F   F89       1.0  0.65302  0.11030  0.03491  1.0000
  F   F90       1.0  0.65303  0.08882  0.53169  1.0000
  F   F91       1.0  0.64609  0.58989  0.04199  1.0000
  F   F92       1.0  0.65086  0.60509  0.54008  1.0000
  F   F93       1.0  0.90268  0.10195  0.02394  1.0000
  F   F94       1.0  0.90175  0.08413  0.54289  1.0000
  F   F95       1.0  0.89892  0.58357  0.02463  1.0000
  F   F96       1.0  0.89809  0.58634  0.54353  1.0000
  F   F97       1.0  0.14871  0.20208  0.13132  1.0000
  F   F98       1.0  0.15267  0.18565  0.60738  1.0000
  F   F99       1.0  0.15109  0.70051  0.13933  1.0000
  F   F100      1.0  0.14858  0.68587  0.64222  1.0000
  F   F101      1.0  0.40491  0.20474  0.11478  1.0000
  F   F102      1.0  0.39699  0.21534  0.60039  1.0000
  F   F103      1.0  0.39624  0.69765  0.12338  1.0000
  F   F104      1.0  0.39984  0.69121  0.62946  1.0000
  F   F105      1.0  0.65061  0.19336  0.15037  1.0000
  F   F106      1.0  0.65317  0.19615  0.62029  1.0000
  F   F107      1.0  0.64830  0.69380  0.12453  1.0000
  F   F108      1.0  0.65216  0.70613  0.62134  1.0000
  F   F109      1.0  0.89961  0.19778  0.11927  1.0000
  F   F110      1.0  0.90351  0.19468  0.62062  1.0000
  F   F111      1.0  0.90071  0.69770  0.10755  1.0000
  F   F112      1.0  0.91095  0.69425  0.61503  1.0000
  F   F113      1.0  0.09870  0.30824  0.37307  1.0000
  F   F114      1.0  0.09628  0.29980  0.87590  1.0000
  F   F115      1.0  0.09975  0.78064  0.40022  1.0000
  F   F116      1.0  0.09395  0.80926  0.87991  1.0000
  F   F117      1.0  0.34535  0.30759  0.36677  1.0000
  F   F118      1.0  0.35292  0.30681  0.86529  1.0000
  F   F119      1.0  0.35664  0.79637  0.37870  1.0000
  F   F120      1.0  0.33630  0.80555  0.88038  1.0000
  F   F121      1.0  0.59785  0.31027  0.36928  1.0000
  F   F122      1.0  0.60242  0.29821  0.87668  1.0000
  F   F123      1.0  0.59908  0.81440  0.38354  1.0000
  F   F124      1.0  0.59687  0.80822  0.87831  1.0000
  F   F125      1.0  0.85136  0.30981  0.34966  1.0000
  F   F126      1.0  0.85058  0.30707  0.88371  1.0000
  F   F127      1.0  0.85017  0.80703  0.37782  1.0000
  F   F128      1.0  0.83948  0.80589  0.87912  1.0000
  F   F129      1.0  0.05753  0.24411  0.15706  1.0000
  F   F130      1.0  0.06600  0.23946  0.64486  1.0000
  F   F131      1.0  0.07403  0.75316  0.14110  1.0000
  F   F132      1.0  0.07009  0.73806  0.64167  1.0000
  F   F133      1.0  0.31348  0.25191  0.13652  1.0000
  F   F134      1.0  0.32114  0.25024  0.63064  1.0000
  F   F135      1.0  0.31505  0.74555  0.14425  1.0000
  F   F136      1.0  0.32360  0.74774  0.62925  1.0000
  F   F137      1.0  0.57768  0.25817  0.12305  1.0000
  F   F138      1.0  0.56374  0.26779  0.63156  1.0000
  F   F139      1.0  0.56105  0.75482  0.15065  1.0000
  F   F140      1.0  0.55880  0.75620  0.64145  1.0000
  F   F141      1.0  0.80787  0.24746  0.14545  1.0000
  F   F142      1.0  0.81949  0.24876  0.63601  1.0000
  F   F143      1.0  0.81126  0.75088  0.14346  1.0000
  F   F144      1.0  0.82189  0.75665  0.62100  1.0000
  F   F145      1.0  0.11965  0.36321  0.10465  1.0000
  F   F146      1.0  0.12228  0.34043  0.64025  1.0000
  F   F147      1.0  0.12951  0.88078  0.09677  1.0000
  F   F148      1.0  0.12465  0.86387  0.60436  1.0000
  F   F149      1.0  0.37184  0.37233  0.10975  1.0000
  F   F150      1.0  0.37666  0.37862  0.60946  1.0000
  F   F151      1.0  0.37533  0.86716  0.11210  1.0000
  F   F152      1.0  0.37134  0.87276  0.61907  1.0000
  F   F153      1.0  0.62434  0.37594  0.10948  1.0000
  F   F154      1.0  0.62792  0.37730  0.59741  1.0000
  F   F155      1.0  0.62310  0.85728  0.12697  1.0000
  F   F156      1.0  0.62464  0.86282  0.60968  1.0000
  F   F157      1.0  0.87358  0.34995  0.12499  1.0000
  F   F158      1.0  0.87415  0.37350  0.59208  1.0000
  F   F159      1.0  0.87366  0.85572  0.11756  1.0000
  F   F160      1.0  0.87165  0.86174  0.62502  1.0000
  F   F161      1.0  0.18505  0.24304  0.36220  1.0000
  F   F162      1.0  0.18036  0.24649  0.85863  1.0000
  F   F163      1.0  0.18781  0.74755  0.36035  1.0000
  F   F164      1.0  0.18051  0.74444  0.86536  1.0000
  F   F165      1.0  0.42606  0.24371  0.36456  1.0000
  F   F166      1.0  0.42772  0.24775  0.87226  1.0000
  F   F167      1.0  0.43331  0.75224  0.34253  1.0000
  F   F168      1.0  0.42804  0.74670  0.87356  1.0000
  F   F169      1.0  0.68308  0.25272  0.36833  1.0000
  F   F170      1.0  0.68919  0.25391  0.84569  1.0000
  F   F171      1.0  0.68621  0.74548  0.35803  1.0000
  F   F172      1.0  0.68935  0.75179  0.85715  1.0000
  F   F173      1.0  0.93143  0.25010  0.35252  1.0000
  F   F174      1.0  0.94082  0.25680  0.84223  1.0000
  F   F175      1.0  0.93550  0.74895  0.35597  1.0000
  F   F176      1.0  0.92967  0.74916  0.86374  1.0000
  F   F177      1.0  0.12579  0.14724  0.37437  1.0000
  F   F178      1.0  0.12791  0.12437  0.89400  1.0000
  F   F179      1.0  0.12388  0.62489  0.39705  1.0000
  F   F180      1.0  0.12222  0.62460  0.89629  1.0000
  F   F181      1.0  0.37212  0.11604  0.40068  1.0000
  F   F182      1.0  0.37544  0.13028  0.88956  1.0000
  F   F183      1.0  0.37662  0.61108  0.39988  1.0000
  F   F184      1.0  0.37757  0.64327  0.87891  1.0000
  F   F185      1.0  0.62320  0.14618  0.38320  1.0000
  F   F186      1.0  0.62681  0.12934  0.88689  1.0000
  F   F187      1.0  0.62535  0.62760  0.40301  1.0000
  F   F188      1.0  0.62457  0.62897  0.88838  1.0000
  F   F189      1.0  0.87779  0.12459  0.38975  1.0000
  F   F190      1.0  0.87523  0.13568  0.89068  1.0000
  F   F191      1.0  0.87556  0.63207  0.38707  1.0000
  F   F192      1.0  0.87689  0.65098  0.87017  1.0000
  F   F193      1.0  0.01235  0.36574  0.06441  1.0000
  F   F194      1.0  0.00531  0.35877  0.58298  1.0000
  F   F195      1.0  0.00879  0.84495  0.08468  1.0000
  F   F196      1.0  0.01042  0.87632  0.56702  1.0000
  F   F197      1.0  0.25931  0.36961  0.06305  1.0000
  F   F198      1.0  0.25539  0.35303  0.59320  1.0000
  F   F199      1.0  0.25863  0.85953  0.07853  1.0000
  F   F200      1.0  0.26083  0.84464  0.58582  1.0000
  F   F201      1.0  0.50836  0.35384  0.07313  1.0000
  F   F202      1.0  0.50874  0.36373  0.57134  1.0000
  F   F203      1.0  0.50404  0.86377  0.07848  1.0000
  F   F204      1.0  0.50108  0.87066  0.56972  1.0000
  F   F205      1.0  0.75712  0.37286  0.07105  1.0000
  F   F206      1.0  0.75998  0.35863  0.57563  1.0000
  F   F207      1.0  0.75838  0.85342  0.07274  1.0000
  F   F208      1.0  0.75888  0.86058  0.57505  1.0000
  F   F209      1.0  0.07159  0.48283  0.18042  1.0000
  F   F210      1.0  0.07445  0.48060  0.65841  1.0000
  F   F211      1.0  0.06803  0.97812  0.17932  1.0000
  F   F212      1.0  0.07321  0.98322  0.66203  1.0000
  F   F213      1.0  0.31274  0.47630  0.19206  1.0000
  F   F214      1.0  0.31897  0.48590  0.68048  1.0000
  F   F215      1.0  0.31257  0.97432  0.18473  1.0000
  F   F216      1.0  0.31603  0.97375  0.70156  1.0000
  F   F217      1.0  0.56676  0.48688  0.16758  1.0000
  F   F218      1.0  0.56868  0.48795  0.68135  1.0000
  F   F219      1.0  0.58064  0.98950  0.15069  1.0000
  F   F220      1.0  0.56128  0.98612  0.67852  1.0000
  F   F221      1.0  0.82269  0.46760  0.18921  1.0000
  F   F222      1.0  0.82075  0.48831  0.66829  1.0000
  F   F223      1.0  0.82823  0.99963  0.14010  1.0000
  F   F224      1.0  0.81925  0.99594  0.66511  1.0000
  F   F225      1.0  0.24447  0.13409  0.42296  1.0000
  F   F226      1.0  0.24369  0.12945  0.92927  1.0000
  F   F227      1.0  0.23778  0.63770  0.42952  1.0000
  F   F228      1.0  0.23483  0.62577  0.94195  1.0000
  F   F229      1.0  0.49052  0.14355  0.42367  1.0000
  F   F230      1.0  0.49283  0.14274  0.91532  1.0000
  F   F231      1.0  0.49167  0.65757  0.41904  1.0000
  F   F232      1.0  0.49095  0.63457  0.93686  1.0000
  F   F233      1.0  0.74478  0.14068  0.41259  1.0000
  F   F234      1.0  0.73998  0.14818  0.92624  1.0000
  F   F235      1.0  0.74821  0.63381  0.42079  1.0000
  F   F236      1.0  0.74488  0.62294  0.92283  1.0000
  F   F237      1.0  0.99093  0.14127  0.42119  1.0000
  F   F238      1.0  0.00069  0.14041  0.90715  1.0000
  F   F239      1.0  0.99092  0.64273  0.42117  1.0000
  F   F240      1.0  0.99494  0.63750  0.91304  1.0000
  F   F241      1.0  0.18248  0.01542  0.31525  1.0000
  F   F242      1.0  0.18352  0.00678  0.81524  1.0000
  F   F243      1.0  0.18324  0.49467  0.34560  1.0000
  F   F244      1.0  0.18048  0.51009  0.82238  1.0000
  F   F245      1.0  0.43123  0.01909  0.31404  1.0000
  F   F246      1.0  0.42706  0.01900  0.82225  1.0000
  F   F247      1.0  0.43409  0.51766  0.31391  1.0000
  F   F248      1.0  0.43040  0.52095  0.82805  1.0000
  F   F249      1.0  0.68082  0.02770  0.32128  1.0000
  F   F250      1.0  0.68575  0.01427  0.81340  1.0000
  F   F251      1.0  0.67877  0.52109  0.32129  1.0000
  F   F252      1.0  0.68625  0.51402  0.81717  1.0000
  F   F253      1.0  0.92873  0.01729  0.31751  1.0000
  F   F254      1.0  0.93008  0.00811  0.83280  1.0000
  F   F255      1.0  0.93027  0.51068  0.33281  1.0000
  F   F256      1.0  0.93057  0.52622  0.81771  1.0000
  F   F257      1.0  0.00194  0.24741  0.00064  1.0000
  F   F258      1.0  0.00322  0.25118  0.49904  1.0000
  F   F259      1.0  0.99598  0.73801  0.00184  1.0000
  F   F260      1.0  0.00260  0.76938  0.48402  1.0000
  F   F261      1.0  0.25824  0.24541  0.00139  1.0000
  F   F262      1.0  0.24629  0.24657  0.50993  1.0000
  F   F263      1.0  0.24735  0.74541  0.00500  1.0000
  F   F264      1.0  0.24553  0.72977  0.52476  1.0000
  F   F265      1.0  0.49791  0.26065  0.99829  1.0000
  F   F266      1.0  0.50189  0.25140  0.48911  1.0000
  F   F267      1.0  0.49956  0.75602  0.99002  1.0000
  F   F268      1.0  0.49997  0.75140  0.50591  1.0000
  F   F269      1.0  0.75118  0.27439  0.99002  1.0000
  F   F270      1.0  0.75326  0.25372  0.50004  1.0000
  F   F271      1.0  0.74550  0.73957  0.00188  1.0000
  F   F272      1.0  0.75318  0.75471  0.49809  1.0000
  F   F273      1.0  0.12630  0.00130  0.24150  1.0000
  F   F274      1.0  0.12875  0.98838  0.74497  1.0000
  F   F275      1.0  0.13215  0.49289  0.25646  1.0000
  F   F276      1.0  0.11833  0.49573  0.75993  1.0000
  F   F277      1.0  0.37015  0.00371  0.25718  1.0000
  F   F278      1.0  0.37564  0.00413  0.74432  1.0000
  F   F279      1.0  0.37266  0.50166  0.26033  1.0000
  F   F280      1.0  0.37440  0.50204  0.75278  1.0000
  F   F281      1.0  0.61844  0.99497  0.26010  1.0000
  F   F282      1.0  0.61993  0.00781  0.74356  1.0000
  F   F283      1.0  0.61575  0.50213  0.26330  1.0000
  F   F284      1.0  0.62597  0.49690  0.74609  1.0000
  F   F285      1.0  0.86764  0.99126  0.26425  1.0000
  F   F286      1.0  0.87523  0.00192  0.75109  1.0000
  F   F287      1.0  0.88557  0.50686  0.23346  1.0000
  F   F288      1.0  0.88096  0.50709  0.74779  1.0000
  F   F289      1.0  0.03894  0.02485  0.03362  1.0000
  F   F290      1.0  0.04177  0.03409  0.51699  1.0000
  F   F291      1.0  0.04420  0.53349  0.02073  1.0000
  F   F292      1.0  0.03432  0.52341  0.52588  1.0000
  F   F293      1.0  0.30020  0.02600  0.01843  1.0000
  F   F294      1.0  0.28888  0.02797  0.53772  1.0000
  F   F295      1.0  0.29934  0.53428  0.02220  1.0000
  F   F296      1.0  0.28797  0.52488  0.52883  1.0000
  F   F297      1.0  0.54494  0.04127  0.01257  1.0000
  F   F298      1.0  0.53700  0.03732  0.52547  1.0000
  F   F299      1.0  0.54140  0.52288  0.02903  1.0000
  F   F300      1.0  0.53970  0.53938  0.53089  1.0000
  F   F301      1.0  0.79564  0.03373  0.00731  1.0000
  F   F302      1.0  0.78987  0.04331  0.52960  1.0000
  F   F303      1.0  0.80067  0.53940  0.02477  1.0000
  F   F304      1.0  0.79484  0.53482  0.51921  1.0000
  F   F305      1.0  0.23206  0.42663  0.22476  1.0000
  F   F306      1.0  0.23415  0.40634  0.74226  1.0000
  F   F307      1.0  0.23602  0.91891  0.21498  1.0000
  F   F308      1.0  0.23174  0.90876  0.72600  1.0000
  F   F309      1.0  0.48230  0.39808  0.22958  1.0000
  F   F310      1.0  0.48270  0.41249  0.73687  1.0000
  F   F311      1.0  0.48902  0.91761  0.22271  1.0000
  F   F312      1.0  0.47816  0.90102  0.74306  1.0000
  F   F313      1.0  0.73540  0.40464  0.23409  1.0000
  F   F314      1.0  0.73460  0.40208  0.73642  1.0000
  F   F315      1.0  0.73950  0.91532  0.22142  1.0000
  F   F316      1.0  0.73315  0.91328  0.71650  1.0000
  F   F317      1.0  0.98500  0.41301  0.22906  1.0000
  F   F318      1.0  0.98613  0.42011  0.73557  1.0000
  F   F319      1.0  0.98490  0.90864  0.23624  1.0000
  F   F320      1.0  0.98013  0.91399  0.72736  1.0000
  F   F321      1.0  0.21137  0.46407  0.48682  1.0000
  F   F322      1.0  0.20015  0.46677  0.98202  1.0000
  F   F323      1.0  0.20866  0.96331  0.47526  1.0000
  F   F324      1.0  0.20626  0.96506  0.97255  1.0000
  F   F325      1.0  0.45653  0.47502  0.47227  1.0000
  F   F326      1.0  0.45358  0.46597  0.98376  1.0000
  F   F327      1.0  0.44688  0.97002  0.48239  1.0000
  F   F328      1.0  0.45985  0.98351  0.97718  1.0000
  F   F329      1.0  0.70817  0.47457  0.48566  1.0000
  F   F330      1.0  0.69980  0.46697  0.98746  1.0000
  F   F331      1.0  0.71387  0.97236  0.47021  1.0000
  F   F332      1.0  0.70510  0.96195  0.98176  1.0000
  F   F333      1.0  0.96272  0.46816  0.47012  1.0000
  F   F334      1.0  0.96002  0.46035  0.96711  1.0000
  F   F335      1.0  0.95478  0.96091  0.47615  1.0000
  F   F336      1.0  0.95613  0.97548  0.98068  1.0000
  F   F337      1.0  0.01114  0.08741  0.26269  1.0000
  F   F338      1.0  0.01645  0.08202  0.77504  1.0000
  F   F339      1.0  0.01317  0.60705  0.25508  1.0000
  F   F340      1.0  0.01493  0.58493  0.76970  1.0000
  F   F341      1.0  0.26614  0.08460  0.28070  1.0000
  F   F342      1.0  0.26130  0.09032  0.77655  1.0000
  F   F343      1.0  0.26345  0.58043  0.28223  1.0000
  F   F344      1.0  0.26335  0.59107  0.78180  1.0000
  F   F345      1.0  0.51779  0.08552  0.27341  1.0000
  F   F346      1.0  0.51732  0.09814  0.76016  1.0000
  F   F347      1.0  0.51472  0.59153  0.27550  1.0000
  F   F348      1.0  0.51409  0.59318  0.77332  1.0000
  F   F349      1.0  0.76322  0.08602  0.26542  1.0000
  F   F350      1.0  0.76367  0.09145  0.77233  1.0000
  F   F351      1.0  0.76688  0.58058  0.26885  1.0000
  F   F352      1.0  0.76861  0.59249  0.76642  1.0000
  F   F353      1.0  0.09880  0.41171  0.47623  1.0000
  F   F354      1.0  0.10287  0.40554  0.96042  1.0000
  F   F355      1.0  0.10326  0.90786  0.44979  1.0000
  F   F356      1.0  0.09613  0.90937  0.96496  1.0000
  F   F357      1.0  0.35190  0.40051  0.46649  1.0000
  F   F358      1.0  0.35032  0.41548  0.95184  1.0000
  F   F359      1.0  0.35099  0.90754  0.46439  1.0000
  F   F360      1.0  0.35199  0.90248  0.96563  1.0000
  F   F361      1.0  0.59951  0.41106  0.46280  1.0000
  F   F362      1.0  0.59745  0.40632  0.95563  1.0000
  F   F363      1.0  0.59471  0.90719  0.47681  1.0000
  F   F364      1.0  0.60043  0.90132  0.97748  1.0000
  F   F365      1.0  0.85235  0.41875  0.44594  1.0000
  F   F366      1.0  0.85131  0.42064  0.96393  1.0000
  F   F367      1.0  0.84657  0.92813  0.46736  1.0000
  F   F368      1.0  0.85237  0.89915  0.97300  1.0000
  F   F369      1.0  0.04470  0.30209  0.28942  1.0000
  F   F370      1.0  0.04214  0.28820  0.79731  1.0000
  F   F371      1.0  0.05446  0.79772  0.28246  1.0000
  F   F372      1.0  0.04477  0.80615  0.77815  1.0000
  F   F373      1.0  0.29124  0.30290  0.29183  1.0000
  F   F374      1.0  0.29498  0.29128  0.79084  1.0000
  F   F375      1.0  0.30237  0.79255  0.29443  1.0000
  F   F376      1.0  0.29303  0.78909  0.79068  1.0000
  F   F377      1.0  0.55136  0.29576  0.27193  1.0000
  F   F378      1.0  0.54525  0.30807  0.78685  1.0000
  F   F379      1.0  0.54935  0.81077  0.29025  1.0000
  F   F380      1.0  0.54857  0.78615  0.78488  1.0000
  F   F381      1.0  0.79085  0.29818  0.29517  1.0000
  F   F382      1.0  0.79898  0.29899  0.78662  1.0000
  F   F383      1.0  0.80402  0.80033  0.28419  1.0000
  F   F384      1.0  0.79354  0.79675  0.78720  1.0000
