data_image0
_chemical_formula_structural       Hf96F384
_chemical_formula_sum              "Hf96 F384"
_cell_length_a       31.0568
_cell_length_b       15.5255
_cell_length_c       15.5123
_cell_angle_alpha    63.342
_cell_angle_beta     63.342
_cell_angle_gamma    80.1625

_space_group_name_H-M_alt    "P 1"
_space_group_IT_number       1

loop_
  _space_group_symop_operation_xyz
  'x, y, z'

loop_
  _atom_site_type_symbol
  _atom_site_label
  _atom_site_symmetry_multiplicity
  _atom_site_fract_x
  _atom_site_fract_y
  _atom_site_fract_z
  _atom_site_occupancy
  Hf  Hf1       1.0  0.19405  0.11555  0.36927  1.0000
  Hf  Hf2       1.0  0.19595  0.10508  0.87919  1.0000
  Hf  Hf3       1.0  0.19464  0.61059  0.37599  1.0000
  Hf  Hf4       1.0  0.19697  0.60963  0.88165  1.0000
  Hf  Hf5       1.0  0.44824  0.10759  0.37165  1.0000
  Hf  Hf6       1.0  0.44495  0.10465  0.87415  1.0000
  Hf  Hf7       1.0  0.44597  0.60249  0.37991  1.0000
  Hf  Hf8       1.0  0.44811  0.60150  0.87202  1.0000
  Hf  Hf9       1.0  0.70125  0.11506  0.36000  1.0000
  Hf  Hf10      1.0  0.69502  0.10458  0.88405  1.0000
  Hf  Hf11      1.0  0.69989  0.60442  0.37326  1.0000
  Hf  Hf12      1.0  0.69770  0.60934  0.86818  1.0000
  Hf  Hf13      1.0  0.94448  0.10427  0.38352  1.0000
  Hf  Hf14      1.0  0.94385  0.10644  0.87242  1.0000
  Hf  Hf15      1.0  0.94891  0.61151  0.36522  1.0000
  Hf  Hf16      1.0  0.94977  0.60661  0.86753  1.0000
  Hf  Hf17      1.0  0.05515  0.39448  0.11997  1.0000
  Hf  Hf18      1.0  0.04897  0.38212  0.63951  1.0000
  Hf  Hf19      1.0  0.05563  0.88748  0.12544  1.0000
  Hf  Hf20      1.0  0.04766  0.88982  0.63429  1.0000
  Hf  Hf21      1.0  0.30622  0.38244  0.12773  1.0000
  Hf  Hf22      1.0  0.30518  0.39004  0.62247  1.0000
  Hf  Hf23      1.0  0.30282  0.89331  0.12782  1.0000
  Hf  Hf24      1.0  0.30426  0.88227  0.63383  1.0000
  Hf  Hf25      1.0  0.54919  0.40288  0.12352  1.0000
  Hf  Hf26      1.0  0.55249  0.38304  0.63772  1.0000
  Hf  Hf27      1.0  0.55571  0.88971  0.12775  1.0000
  Hf  Hf28      1.0  0.54969  0.90112  0.62244  1.0000
  Hf  Hf29      1.0  0.80042  0.39041  0.12958  1.0000
  Hf  Hf30      1.0  0.80446  0.38754  0.62642  1.0000
  Hf  Hf31      1.0  0.80697  0.89462  0.11840  1.0000
  Hf  Hf32      1.0  0.80667  0.90718  0.60508  1.0000
  Hf  Hf33      1.0  0.05440  0.19074  0.41385  1.0000
  Hf  Hf34      1.0  0.05466  0.18408  0.91654  1.0000
  Hf  Hf35      1.0  0.05286  0.67936  0.42704  1.0000
  Hf  Hf36      1.0  0.05964  0.68399  0.90882  1.0000
  Hf  Hf37      1.0  0.30799  0.17774  0.41976  1.0000
  Hf  Hf38      1.0  0.30590  0.18430  0.91529  1.0000
  Hf  Hf39      1.0  0.30283  0.68830  0.42136  1.0000
  Hf  Hf40      1.0  0.30908  0.66882  0.92351  1.0000
  Hf  Hf41      1.0  0.55504  0.18821  0.41763  1.0000
  Hf  Hf42      1.0  0.55510  0.18390  0.92495  1.0000
  Hf  Hf43      1.0  0.55502  0.67915  0.41828  1.0000
  Hf  Hf44      1.0  0.55488  0.69149  0.90726  1.0000
  Hf  Hf45      1.0  0.80480  0.18853  0.41711  1.0000
  Hf  Hf46      1.0  0.80616  0.19196  0.91750  1.0000
  Hf  Hf47      1.0  0.80651  0.69111  0.40479  1.0000
  Hf  Hf48      1.0  0.80749  0.67123  0.91800  1.0000
  Hf  Hf49      1.0  0.16044  0.39002  0.33171  1.0000
  Hf  Hf50      1.0  0.15797  0.38792  0.83324  1.0000
  Hf  Hf51      1.0  0.15454  0.89012  0.34263  1.0000
  Hf  Hf52      1.0  0.16202  0.89060  0.83384  1.0000
  Hf  Hf53      1.0  0.40794  0.38387  0.34055  1.0000
  Hf  Hf54      1.0  0.40960  0.38325  0.83175  1.0000
  Hf  Hf55      1.0  0.41129  0.88499  0.33085  1.0000
  Hf  Hf56      1.0  0.40417  0.88444  0.83532  1.0000
  Hf  Hf57      1.0  0.65762  0.37957  0.34617  1.0000
  Hf  Hf58      1.0  0.65845  0.38972  0.82919  1.0000
  Hf  Hf59      1.0  0.66213  0.89011  0.32969  1.0000
  Hf  Hf60      1.0  0.66228  0.88831  0.83120  1.0000
  Hf  Hf61      1.0  0.90944  0.38449  0.33388  1.0000
  Hf  Hf62      1.0  0.90958  0.39728  0.82690  1.0000
  Hf  Hf63      1.0  0.91452  0.89261  0.32482  1.0000
  Hf  Hf64      1.0  0.90685  0.88101  0.83353  1.0000
  Hf  Hf65      1.0  0.19363  0.31814  0.08342  1.0000
  Hf  Hf66      1.0  0.19270  0.31034  0.58471  1.0000
  Hf  Hf67      1.0  0.19550  0.81424  0.08525  1.0000
  Hf  Hf68      1.0  0.19399  0.82362  0.58055  1.0000
  Hf  Hf69      1.0  0.44314  0.32092  0.07731  1.0000
  Hf  Hf70      1.0  0.44820  0.32409  0.57950  1.0000
  Hf  Hf71      1.0  0.44247  0.81181  0.08948  1.0000
  Hf  Hf72      1.0  0.44087  0.82002  0.58398  1.0000
  Hf  Hf73      1.0  0.69118  0.31768  0.07599  1.0000
  Hf  Hf74      1.0  0.69527  0.31696  0.59183  1.0000
  Hf  Hf75      1.0  0.69635  0.82094  0.07720  1.0000
  Hf  Hf76      1.0  0.69617  0.82835  0.57350  1.0000
  Hf  Hf77      1.0  0.94281  0.31505  0.08222  1.0000
  Hf  Hf78      1.0  0.94142  0.32349  0.58187  1.0000
  Hf  Hf79      1.0  0.94671  0.81829  0.07862  1.0000
  Hf  Hf80      1.0  0.93930  0.81762  0.58416  1.0000
  Hf  Hf81      1.0  0.08814  0.10706  0.17170  1.0000
  Hf  Hf82      1.0  0.08997  0.10343  0.66858  1.0000
  Hf  Hf83      1.0  0.09448  0.61558  0.16419  1.0000
  Hf  Hf84      1.0  0.09468  0.61924  0.66295  1.0000
  Hf  Hf85      1.0  0.33699  0.10504  0.17750  1.0000
  Hf  Hf86      1.0  0.34088  0.11584  0.66809  1.0000
  Hf  Hf87      1.0  0.33817  0.60111  0.17881  1.0000
  Hf  Hf88      1.0  0.34127  0.60396  0.67188  1.0000
  Hf  Hf89      1.0  0.58829  0.11479  0.17308  1.0000
  Hf  Hf90      1.0  0.58646  0.10466  0.67665  1.0000
  Hf  Hf91      1.0  0.59321  0.60811  0.16659  1.0000
  Hf  Hf92      1.0  0.59728  0.61215  0.65622  1.0000
  Hf  Hf93      1.0  0.84146  0.11407  0.16473  1.0000
  Hf  Hf94      1.0  0.83828  0.11424  0.67040  1.0000
  Hf  Hf95      1.0  0.84124  0.61046  0.16213  1.0000
  Hf  Hf96      1.0  0.83869  0.60869  0.66442  1.0000
  F   F1        1.0  0.07614  0.12130  0.30835  1.0000
  F   F2        1.0  0.08747  0.14079  0.79123  1.0000
  F   F3        1.0  0.07579  0.61805  0.31690  1.0000
  F   F4        1.0  0.08040  0.64317  0.79782  1.0000
  F   F5        1.0  0.33099  0.10866  0.31953  1.0000
  F   F6        1.0  0.32136  0.11455  0.81684  1.0000
  F   F7        1.0  0.32434  0.63424  0.30755  1.0000
  F   F8        1.0  0.33319  0.60945  0.81252  1.0000
  F   F9        1.0  0.57929  0.14085  0.30163  1.0000
  F   F10       1.0  0.57756  0.12387  0.80546  1.0000
  F   F11       1.0  0.57744  0.62556  0.30580  1.0000
  F   F12       1.0  0.58712  0.63834  0.79382  1.0000
  F   F13       1.0  0.83358  0.13651  0.29328  1.0000
  F   F14       1.0  0.83051  0.12083  0.81152  1.0000
  F   F15       1.0  0.82371  0.63066  0.30101  1.0000
  F   F16       1.0  0.82572  0.61434  0.80851  1.0000
  F   F17       1.0  0.19506  0.35126  0.43273  1.0000
  F   F18       1.0  0.17711  0.33478  0.95991  1.0000
  F   F19       1.0  0.18320  0.84394  0.44779  1.0000
  F   F20       1.0  0.19162  0.83950  0.95100  1.0000
  F   F21       1.0  0.43470  0.33206  0.45648  1.0000
  F   F22       1.0  0.43686  0.34347  0.94147  1.0000
  F   F23       1.0  0.44533  0.84677  0.43332  1.0000
  F   F24       1.0  0.43025  0.83892  0.95566  1.0000
  F   F25       1.0  0.68069  0.32745  0.46318  1.0000
  F   F26       1.0  0.68214  0.33987  0.94011  1.0000
  F   F27       1.0  0.69477  0.85299  0.43520  1.0000
  F   F28       1.0  0.68924  0.84589  0.94830  1.0000
  F   F29       1.0  0.94548  0.35339  0.42430  1.0000
  F   F30       1.0  0.93306  0.34516  0.93976  1.0000
  F   F31       1.0  0.93504  0.85062  0.44340  1.0000
  F   F32       1.0  0.93007  0.84170  0.94701  1.0000
  F   F33       1.0  0.17265  0.37786  0.20025  1.0000
  F   F34       1.0  0.16424  0.35794  0.71121  1.0000
  F   F35       1.0  0.16220  0.86858  0.20749  1.0000
  F   F36       1.0  0.17381  0.85617  0.70680  1.0000
  F   F37       1.0  0.41864  0.37274  0.18809  1.0000
  F   F38       1.0  0.42186  0.37233  0.69453  1.0000
  F   F39       1.0  0.42454  0.87081  0.19935  1.0000
  F   F40       1.0  0.41138  0.87089  0.69873  1.0000
  F   F41       1.0  0.66656  0.35519  0.19464  1.0000
  F   F42       1.0  0.67664  0.38389  0.68678  1.0000
  F   F43       1.0  0.67454  0.87716  0.19870  1.0000
  F   F44       1.0  0.67856  0.89570  0.67505  1.0000
  F   F45       1.0  0.92628  0.37800  0.18441  1.0000
  F   F46       1.0  0.91698  0.39156  0.68057  1.0000
  F   F47       1.0  0.92951  0.88278  0.17860  1.0000
  F   F48       1.0  0.91721  0.88498  0.68677  1.0000
  F   F49       1.0  0.05437  0.15097  0.06877  1.0000
  F   F50       1.0  0.06611  0.16270  0.55371  1.0000
  F   F51       1.0  0.06354  0.67346  0.05561  1.0000
  F   F52       1.0  0.06584  0.65770  0.55631  1.0000
  F   F53       1.0  0.31343  0.16276  0.05193  1.0000
  F   F54       1.0  0.32160  0.16426  0.54690  1.0000
  F   F55       1.0  0.31716  0.64366  0.05790  1.0000
  F   F56       1.0  0.31522  0.65988  0.54824  1.0000
  F   F57       1.0  0.57108  0.16008  0.05426  1.0000
  F   F58       1.0  0.56264  0.15475  0.55648  1.0000
  F   F59       1.0  0.56408  0.66066  0.04730  1.0000
  F   F60       1.0  0.57266  0.64682  0.54799  1.0000
  F   F61       1.0  0.81608  0.17531  0.04742  1.0000
  F   F62       1.0  0.81804  0.17467  0.54259  1.0000
  F   F63       1.0  0.81444  0.64489  0.05608  1.0000
  F   F64       1.0  0.81229  0.66220  0.55398  1.0000
  F   F65       1.0  0.20692  0.20370  0.21136  1.0000
  F   F66       1.0  0.19993  0.19763  0.71325  1.0000
  F   F67       1.0  0.19874  0.68730  0.21921  1.0000
  F   F68       1.0  0.21143  0.69379  0.72482  1.0000
  F   F69       1.0  0.46175  0.20569  0.20362  1.0000
  F   F70       1.0  0.45185  0.20026  0.70544  1.0000
  F   F71       1.0  0.45508  0.70147  0.20187  1.0000
  F   F72       1.0  0.46119  0.68062  0.70634  1.0000
  F   F73       1.0  0.70632  0.19171  0.20680  1.0000
  F   F74       1.0  0.71075  0.21146  0.71535  1.0000
  F   F75       1.0  0.70357  0.69886  0.22315  1.0000
  F   F76       1.0  0.69405  0.70916  0.70176  1.0000
  F   F77       1.0  0.94102  0.20591  0.22204  1.0000
  F   F78       1.0  0.94890  0.21119  0.71394  1.0000
  F   F79       1.0  0.96195  0.69872  0.20630  1.0000
  F   F80       1.0  0.95040  0.69861  0.70581  1.0000
  F   F81       1.0  0.14797  0.10218  0.03668  1.0000
  F   F82       1.0  0.14586  0.07832  0.52733  1.0000
  F   F83       1.0  0.15330  0.58237  0.05874  1.0000
  F   F84       1.0  0.15193  0.59634  0.52811  1.0000
  F   F85       1.0  0.39672  0.09126  0.04458  1.0000
  F   F86       1.0  0.40048  0.09832  0.55034  1.0000
  F   F87       1.0  0.40084  0.59668  0.03721  1.0000
  F   F88       1.0  0.40296  0.60883  0.53151  1.0000
  F   F89       1.0  0.65196  0.07868  0.04098  1.0000
  F   F90       1.0  0.64682  0.10832  0.55319  1.0000
  F   F91       1.0  0.64855  0.58762  0.03653  1.0000
  F   F92       1.0  0.65711  0.57422  0.54251  1.0000
  F   F93       1.0  0.90024  0.08848  0.02557  1.0000
  F   F94       1.0  0.90158  0.12471  0.53283  1.0000
  F   F95       1.0  0.90353  0.60250  0.02134  1.0000
  F   F96       1.0  0.89413  0.59001  0.52990  1.0000
  F   F97       1.0  0.15072  0.20213  0.12552  1.0000
  F   F98       1.0  0.15292  0.17457  0.61635  1.0000
  F   F99       1.0  0.15151  0.69982  0.12294  1.0000
  F   F100      1.0  0.15709  0.69811  0.63393  1.0000
  F   F101      1.0  0.40021  0.20277  0.13206  1.0000
  F   F102      1.0  0.39771  0.19264  0.64634  1.0000
  F   F103      1.0  0.39791  0.68739  0.14363  1.0000
  F   F104      1.0  0.39507  0.70857  0.63995  1.0000
  F   F105      1.0  0.65256  0.19855  0.12362  1.0000
  F   F106      1.0  0.65338  0.20069  0.64974  1.0000
  F   F107      1.0  0.65424  0.69418  0.12638  1.0000
  F   F108      1.0  0.65212  0.70415  0.59621  1.0000
  F   F109      1.0  0.90075  0.19524  0.10552  1.0000
  F   F110      1.0  0.89733  0.21919  0.62910  1.0000
  F   F111      1.0  0.89569  0.70052  0.12906  1.0000
  F   F112      1.0  0.90615  0.69929  0.60740  1.0000
  F   F113      1.0  0.10133  0.30380  0.37640  1.0000
  F   F114      1.0  0.09484  0.31193  0.87933  1.0000
  F   F115      1.0  0.10084  0.80684  0.39131  1.0000
  F   F116      1.0  0.09597  0.79886  0.87872  1.0000
  F   F117      1.0  0.34647  0.29755  0.37284  1.0000
  F   F118      1.0  0.34994  0.30111  0.86942  1.0000
  F   F119      1.0  0.34363  0.80905  0.37058  1.0000
  F   F120      1.0  0.34835  0.80732  0.86284  1.0000
  F   F121      1.0  0.60543  0.29681  0.37402  1.0000
  F   F122      1.0  0.59765  0.30376  0.86443  1.0000
  F   F123      1.0  0.60377  0.79815  0.36267  1.0000
  F   F124      1.0  0.59679  0.80985  0.84292  1.0000
  F   F125      1.0  0.84868  0.31010  0.35428  1.0000
  F   F126      1.0  0.85294  0.31421  0.85942  1.0000
  F   F127      1.0  0.85557  0.82496  0.36433  1.0000
  F   F128      1.0  0.85093  0.78887  0.89314  1.0000
  F   F129      1.0  0.07208  0.25303  0.14267  1.0000
  F   F130      1.0  0.05157  0.23935  0.66606  1.0000
  F   F131      1.0  0.06558  0.75170  0.15920  1.0000
  F   F132      1.0  0.06614  0.75505  0.63868  1.0000
  F   F133      1.0  0.31707  0.25148  0.13690  1.0000
  F   F134      1.0  0.31813  0.25642  0.63504  1.0000
  F   F135      1.0  0.31243  0.74760  0.15295  1.0000
  F   F136      1.0  0.31455  0.73645  0.64328  1.0000
  F   F137      1.0  0.56184  0.25733  0.14844  1.0000
  F   F138      1.0  0.56772  0.24494  0.63852  1.0000
  F   F139      1.0  0.57245  0.74791  0.12692  1.0000
  F   F140      1.0  0.56481  0.75867  0.64343  1.0000
  F   F141      1.0  0.81374  0.24961  0.14933  1.0000
  F   F142      1.0  0.80595  0.23944  0.66816  1.0000
  F   F143      1.0  0.81380  0.75448  0.14819  1.0000
  F   F144      1.0  0.81019  0.74687  0.65927  1.0000
  F   F145      1.0  0.12828  0.37472  0.11286  1.0000
  F   F146      1.0  0.12162  0.32728  0.63135  1.0000
  F   F147      1.0  0.12883  0.87003  0.10666  1.0000
  F   F148      1.0  0.12391  0.86775  0.61206  1.0000
  F   F149      1.0  0.37984  0.40481  0.07767  1.0000
  F   F150      1.0  0.37769  0.37818  0.59644  1.0000
  F   F151      1.0  0.37466  0.87347  0.11749  1.0000
  F   F152      1.0  0.37736  0.89122  0.57806  1.0000
  F   F153      1.0  0.62375  0.39395  0.07817  1.0000
  F   F154      1.0  0.62210  0.38333  0.59690  1.0000
  F   F155      1.0  0.62512  0.87500  0.12034  1.0000
  F   F156      1.0  0.62645  0.89131  0.59050  1.0000
  F   F157      1.0  0.87473  0.37030  0.10111  1.0000
  F   F158      1.0  0.87214  0.38306  0.59385  1.0000
  F   F159      1.0  0.87105  0.87413  0.12053  1.0000
  F   F160      1.0  0.87042  0.86023  0.60662  1.0000
  F   F161      1.0  0.18657  0.25339  0.35743  1.0000
  F   F162      1.0  0.18384  0.24947  0.85433  1.0000
  F   F163      1.0  0.19305  0.75344  0.34860  1.0000
  F   F164      1.0  0.17510  0.74710  0.88869  1.0000
  F   F165      1.0  0.42793  0.24643  0.36894  1.0000
  F   F166      1.0  0.43372  0.23529  0.86440  1.0000
  F   F167      1.0  0.44377  0.75237  0.34626  1.0000
  F   F168      1.0  0.43442  0.74489  0.85659  1.0000
  F   F169      1.0  0.69334  0.25193  0.34320  1.0000
  F   F170      1.0  0.67644  0.24324  0.86935  1.0000
  F   F171      1.0  0.68537  0.74284  0.37739  1.0000
  F   F172      1.0  0.68371  0.74768  0.85885  1.0000
  F   F173      1.0  0.94252  0.25452  0.34529  1.0000
  F   F174      1.0  0.94422  0.25059  0.84814  1.0000
  F   F175      1.0  0.93550  0.75036  0.35415  1.0000
  F   F176      1.0  0.94392  0.75866  0.82981  1.0000
  F   F177      1.0  0.12411  0.14111  0.37864  1.0000
  F   F178      1.0  0.12389  0.13186  0.90671  1.0000
  F   F179      1.0  0.12478  0.63812  0.39659  1.0000
  F   F180      1.0  0.12794  0.62356  0.89322  1.0000
  F   F181      1.0  0.37728  0.10832  0.40406  1.0000
  F   F182      1.0  0.37010  0.13026  0.90282  1.0000
  F   F183      1.0  0.37655  0.64257  0.38497  1.0000
  F   F184      1.0  0.37487  0.61492  0.90568  1.0000
  F   F185      1.0  0.62644  0.12726  0.40502  1.0000
  F   F186      1.0  0.63070  0.13562  0.87026  1.0000
  F   F187      1.0  0.62853  0.61972  0.38747  1.0000
  F   F188      1.0  0.62500  0.62110  0.90931  1.0000
  F   F189      1.0  0.87168  0.13270  0.40080  1.0000
  F   F190      1.0  0.87280  0.15232  0.88488  1.0000
  F   F191      1.0  0.87712  0.64930  0.36762  1.0000
  F   F192      1.0  0.87501  0.62563  0.88971  1.0000
  F   F193      1.0  0.01593  0.36014  0.05792  1.0000
  F   F194      1.0  0.00644  0.37028  0.57849  1.0000
  F   F195      1.0  0.01232  0.85536  0.07395  1.0000
  F   F196      1.0  0.00533  0.87528  0.57280  1.0000
  F   F197      1.0  0.25730  0.35417  0.06908  1.0000
  F   F198      1.0  0.25536  0.35365  0.56477  1.0000
  F   F199      1.0  0.25227  0.86077  0.08022  1.0000
  F   F200      1.0  0.25777  0.85785  0.57934  1.0000
  F   F201      1.0  0.50502  0.36741  0.07545  1.0000
  F   F202      1.0  0.50914  0.35991  0.57748  1.0000
  F   F203      1.0  0.50899  0.86166  0.07532  1.0000
  F   F204      1.0  0.50229  0.86310  0.58101  1.0000
  F   F205      1.0  0.75467  0.35329  0.08542  1.0000
  F   F206      1.0  0.76368  0.35961  0.57718  1.0000
  F   F207      1.0  0.75741  0.87461  0.06104  1.0000
  F   F208      1.0  0.75965  0.87218  0.56132  1.0000
  F   F209      1.0  0.07030  0.48437  0.17119  1.0000
  F   F210      1.0  0.07665  0.49031  0.65891  1.0000
  F   F211      1.0  0.06797  0.98599  0.19152  1.0000
  F   F212      1.0  0.06018  0.97846  0.68551  1.0000
  F   F213      1.0  0.31212  0.46978  0.20391  1.0000
  F   F214      1.0  0.32407  0.49069  0.66256  1.0000
  F   F215      1.0  0.31173  0.98275  0.19182  1.0000
  F   F216      1.0  0.31855  0.98540  0.68075  1.0000
  F   F217      1.0  0.56325  0.48417  0.18711  1.0000
  F   F218      1.0  0.56864  0.48067  0.68767  1.0000
  F   F219      1.0  0.56722  0.98059  0.19596  1.0000
  F   F220      1.0  0.55329  0.98655  0.69065  1.0000
  F   F221      1.0  0.82545  0.48323  0.17371  1.0000
  F   F222      1.0  0.81664  0.48642  0.69048  1.0000
  F   F223      1.0  0.81984  0.99169  0.17319  1.0000
  F   F224      1.0  0.81819  0.99003  0.66170  1.0000
  F   F225      1.0  0.24271  0.14599  0.42083  1.0000
  F   F226      1.0  0.23969  0.13791  0.93560  1.0000
  F   F227      1.0  0.24105  0.63796  0.43357  1.0000
  F   F228      1.0  0.24632  0.64393  0.92428  1.0000
  F   F229      1.0  0.49124  0.14852  0.42219  1.0000
  F   F230      1.0  0.49215  0.13652  0.92993  1.0000
  F   F231      1.0  0.49232  0.62851  0.43089  1.0000
  F   F232      1.0  0.49848  0.62116  0.91422  1.0000
  F   F233      1.0  0.74568  0.14242  0.40678  1.0000
  F   F234      1.0  0.74240  0.14581  0.92566  1.0000
  F   F235      1.0  0.74389  0.63533  0.42608  1.0000
  F   F236      1.0  0.74463  0.63226  0.90768  1.0000
  F   F237      1.0  0.99098  0.13665  0.43116  1.0000
  F   F238      1.0  0.99789  0.13197  0.91938  1.0000
  F   F239      1.0  0.98970  0.63908  0.43037  1.0000
  F   F240      1.0  0.98888  0.63453  0.92929  1.0000
  F   F241      1.0  0.17593  0.02109  0.33008  1.0000
  F   F242      1.0  0.17586  0.01669  0.82665  1.0000
  F   F243      1.0  0.17736  0.51714  0.32533  1.0000
  F   F244      1.0  0.18778  0.51389  0.81242  1.0000
  F   F245      1.0  0.43985  0.01532  0.31022  1.0000
  F   F246      1.0  0.41726  0.00690  0.85311  1.0000
  F   F247      1.0  0.42774  0.50795  0.33397  1.0000
  F   F248      1.0  0.43099  0.49810  0.82860  1.0000
  F   F249      1.0  0.68124  0.01243  0.31287  1.0000
  F   F250      1.0  0.68181  0.01609  0.81472  1.0000
  F   F251      1.0  0.68065  0.49933  0.33584  1.0000
  F   F252      1.0  0.68173  0.52800  0.80807  1.0000
  F   F253      1.0  0.93980  0.01307  0.31909  1.0000
  F   F254      1.0  0.92050  0.03376  0.82560  1.0000
  F   F255      1.0  0.92745  0.52101  0.31994  1.0000
  F   F256      1.0  0.93081  0.51711  0.82795  1.0000
  F   F257      1.0  0.99828  0.23940  0.00459  1.0000
  F   F258      1.0  0.00182  0.24812  0.50327  1.0000
  F   F259      1.0  0.99976  0.74868  0.99612  1.0000
  F   F260      1.0  0.00040  0.75432  0.50101  1.0000
  F   F261      1.0  0.25018  0.25577  0.98829  1.0000
  F   F262      1.0  0.24994  0.22682  0.51498  1.0000
  F   F263      1.0  0.26001  0.74339  0.00548  1.0000
  F   F264      1.0  0.24605  0.75382  0.49695  1.0000
  F   F265      1.0  0.50652  0.27679  0.98185  1.0000
  F   F266      1.0  0.50570  0.26121  0.49674  1.0000
  F   F267      1.0  0.50356  0.75826  0.99054  1.0000
  F   F268      1.0  0.50649  0.75435  0.49021  1.0000
  F   F269      1.0  0.75492  0.26308  0.98798  1.0000
  F   F270      1.0  0.75364  0.26256  0.49444  1.0000
  F   F271      1.0  0.75247  0.73766  0.01817  1.0000
  F   F272      1.0  0.75061  0.75112  0.51148  1.0000
  F   F273      1.0  0.13558  0.01120  0.23477  1.0000
  F   F274      1.0  0.12109  0.97847  0.75291  1.0000
  F   F275      1.0  0.12352  0.50038  0.25866  1.0000
  F   F276      1.0  0.12217  0.50080  0.75798  1.0000
  F   F277      1.0  0.37561  0.99304  0.25221  1.0000
  F   F278      1.0  0.37748  0.00276  0.75542  1.0000
  F   F279      1.0  0.38072  0.50047  0.24662  1.0000
  F   F280      1.0  0.38623  0.50778  0.73510  1.0000
  F   F281      1.0  0.62347  0.00948  0.24720  1.0000
  F   F282      1.0  0.61918  0.98934  0.75995  1.0000
  F   F283      1.0  0.62895  0.49896  0.24489  1.0000
  F   F284      1.0  0.61757  0.49062  0.75905  1.0000
  F   F285      1.0  0.88305  0.01070  0.23019  1.0000
  F   F286      1.0  0.87138  0.00909  0.74479  1.0000
  F   F287      1.0  0.87458  0.49665  0.25400  1.0000
  F   F288      1.0  0.88123  0.51748  0.74034  1.0000
  F   F289      1.0  0.04559  0.02384  0.01178  1.0000
  F   F290      1.0  0.03677  0.03409  0.54231  1.0000
  F   F291      1.0  0.03913  0.54309  0.02508  1.0000
  F   F292      1.0  0.04190  0.53273  0.52198  1.0000
  F   F293      1.0  0.29947  0.02436  0.01560  1.0000
  F   F294      1.0  0.28997  0.02352  0.54174  1.0000
  F   F295      1.0  0.29192  0.51744  0.03062  1.0000
  F   F296      1.0  0.29302  0.51933  0.51889  1.0000
  F   F297      1.0  0.55063  0.04310  0.01864  1.0000
  F   F298      1.0  0.54189  0.03347  0.50851  1.0000
  F   F299      1.0  0.54123  0.53415  0.02236  1.0000
  F   F300      1.0  0.54040  0.51720  0.53767  1.0000
  F   F301      1.0  0.79170  0.04492  0.02796  1.0000
  F   F302      1.0  0.78654  0.04174  0.52393  1.0000
  F   F303      1.0  0.79226  0.52657  0.01978  1.0000
  F   F304      1.0  0.80495  0.52688  0.51243  1.0000
  F   F305      1.0  0.23967  0.41016  0.22751  1.0000
  F   F306      1.0  0.23162  0.41018  0.70870  1.0000
  F   F307      1.0  0.23115  0.91311  0.22078  1.0000
  F   F308      1.0  0.23679  0.89942  0.74772  1.0000
  F   F309      1.0  0.48042  0.41470  0.23335  1.0000
  F   F310      1.0  0.48389  0.39859  0.74793  1.0000
  F   F311      1.0  0.48948  0.91439  0.22005  1.0000
  F   F312      1.0  0.47594  0.92943  0.71558  1.0000
  F   F313      1.0  0.73438  0.42397  0.21211  1.0000
  F   F314      1.0  0.73779  0.40264  0.73740  1.0000
  F   F315      1.0  0.73832  0.91844  0.22561  1.0000
  F   F316      1.0  0.73870  0.91814  0.72507  1.0000
  F   F317      1.0  0.98809  0.41811  0.21171  1.0000
  F   F318      1.0  0.98697  0.44244  0.71440  1.0000
  F   F319      1.0  0.99190  0.91232  0.22337  1.0000
  F   F320      1.0  0.97609  0.92454  0.72977  1.0000
  F   F321      1.0  0.19946  0.46853  0.48959  1.0000
  F   F322      1.0  0.20968  0.46557  0.96777  1.0000
  F   F323      1.0  0.20745  0.96685  0.47623  1.0000
  F   F324      1.0  0.20259  0.97377  0.98658  1.0000
  F   F325      1.0  0.46350  0.46709  0.47142  1.0000
  F   F326      1.0  0.45986  0.47541  0.97215  1.0000
  F   F327      1.0  0.45180  0.97623  0.48517  1.0000
  F   F328      1.0  0.45310  0.97587  0.98487  1.0000
  F   F329      1.0  0.71515  0.45544  0.46441  1.0000
  F   F330      1.0  0.70614  0.47193  0.96493  1.0000
  F   F331      1.0  0.70303  0.97817  0.47351  1.0000
  F   F332      1.0  0.71182  0.97217  0.97849  1.0000
  F   F333      1.0  0.96244  0.47423  0.46178  1.0000
  F   F334      1.0  0.94858  0.46955  0.97953  1.0000
  F   F335      1.0  0.94026  0.97930  0.49469  1.0000
  F   F336      1.0  0.95979  0.96555  0.97166  1.0000
  F   F337      1.0  0.01025  0.10068  0.27750  1.0000
  F   F338      1.0  0.01749  0.07609  0.78090  1.0000
  F   F339      1.0  0.01649  0.58378  0.26608  1.0000
  F   F340      1.0  0.02092  0.58666  0.77873  1.0000
  F   F341      1.0  0.26391  0.09592  0.27760  1.0000
  F   F342      1.0  0.26512  0.09092  0.76342  1.0000
  F   F343      1.0  0.26049  0.56594  0.28952  1.0000
  F   F344      1.0  0.27069  0.57108  0.78125  1.0000
  F   F345      1.0  0.51912  0.06534  0.28652  1.0000
  F   F346      1.0  0.51373  0.09868  0.76626  1.0000
  F   F347      1.0  0.51015  0.59721  0.26210  1.0000
  F   F348      1.0  0.52398  0.58178  0.77044  1.0000
  F   F349      1.0  0.76629  0.08133  0.27300  1.0000
  F   F350      1.0  0.76063  0.07356  0.78309  1.0000
  F   F351      1.0  0.76949  0.59324  0.25350  1.0000
  F   F352      1.0  0.76133  0.60113  0.75940  1.0000
  F   F353      1.0  0.10231  0.39867  0.48014  1.0000
  F   F354      1.0  0.10138  0.42575  0.96097  1.0000
  F   F355      1.0  0.09812  0.90975  0.47518  1.0000
  F   F356      1.0  0.10243  0.89364  0.96775  1.0000
  F   F357      1.0  0.34618  0.39431  0.46607  1.0000
  F   F358      1.0  0.34603  0.39891  0.95425  1.0000
  F   F359      1.0  0.35249  0.88554  0.46130  1.0000
  F   F360      1.0  0.34315  0.88645  0.96583  1.0000
  F   F361      1.0  0.59803  0.41506  0.45767  1.0000
  F   F362      1.0  0.59568  0.40161  0.95575  1.0000
  F   F363      1.0  0.60087  0.89712  0.46297  1.0000
  F   F364      1.0  0.60399  0.89614  0.96119  1.0000
  F   F365      1.0  0.85060  0.38011  0.46906  1.0000
  F   F366      1.0  0.84897  0.40562  0.96175  1.0000
  F   F367      1.0  0.85441  0.93009  0.45004  1.0000
  F   F368      1.0  0.85247  0.91065  0.96137  1.0000
  F   F369      1.0  0.04368  0.29566  0.29320  1.0000
  F   F370      1.0  0.04007  0.31137  0.78983  1.0000
  F   F371      1.0  0.05101  0.79387  0.28998  1.0000
  F   F372      1.0  0.03803  0.79835  0.79040  1.0000
  F   F373      1.0  0.30168  0.28592  0.27879  1.0000
  F   F374      1.0  0.30060  0.29483  0.77966  1.0000
  F   F375      1.0  0.29429  0.81087  0.28651  1.0000
  F   F376      1.0  0.29966  0.78450  0.78537  1.0000
  F   F377      1.0  0.55222  0.31205  0.29276  1.0000
  F   F378      1.0  0.55192  0.28704  0.78066  1.0000
  F   F379      1.0  0.55085  0.79915  0.27399  1.0000
  F   F380      1.0  0.53811  0.81316  0.77768  1.0000
  F   F381      1.0  0.78704  0.29683  0.29687  1.0000
  F   F382      1.0  0.80172  0.29927  0.78058  1.0000
  F   F383      1.0  0.78898  0.80612  0.30535  1.0000
  F   F384      1.0  0.79770  0.79198  0.80393  1.0000
