data_image0
_chemical_formula_structural       Hf96F384
_chemical_formula_sum              "Hf96 F384"
_cell_length_a       31.0213
_cell_length_b       15.5099
_cell_length_c       15.5007
_cell_angle_alpha    63.342
_cell_angle_beta     63.342
_cell_angle_gamma    80.1625

_space_group_name_H-M_alt    "P 1"
_space_group_IT_number       1

loop_
  _space_group_symop_operation_xyz
  'x, y, z'

loop_
  _atom_site_type_symbol
  _atom_site_label
  _atom_site_symmetry_multiplicity
  _atom_site_fract_x
  _atom_site_fract_y
  _atom_site_fract_z
  _atom_site_occupancy
  Hf  Hf1       1.0  0.19976  0.10553  0.36736  1.0000
  Hf  Hf2       1.0  0.19930  0.10913  0.86509  1.0000
  Hf  Hf3       1.0  0.19569  0.61160  0.36544  1.0000
  Hf  Hf4       1.0  0.19677  0.61224  0.86636  1.0000
  Hf  Hf5       1.0  0.44630  0.11038  0.36129  1.0000
  Hf  Hf6       1.0  0.44609  0.10563  0.87277  1.0000
  Hf  Hf7       1.0  0.44737  0.60943  0.37675  1.0000
  Hf  Hf8       1.0  0.44283  0.60291  0.88433  1.0000
  Hf  Hf9       1.0  0.69818  0.10609  0.37866  1.0000
  Hf  Hf10      1.0  0.69811  0.10497  0.87697  1.0000
  Hf  Hf11      1.0  0.69492  0.61389  0.36888  1.0000
  Hf  Hf12      1.0  0.68959  0.59588  0.89256  1.0000
  Hf  Hf13      1.0  0.94873  0.11504  0.36270  1.0000
  Hf  Hf14      1.0  0.94808  0.10869  0.86900  1.0000
  Hf  Hf15      1.0  0.94610  0.60111  0.38787  1.0000
  Hf  Hf16      1.0  0.94521  0.61122  0.86984  1.0000
  Hf  Hf17      1.0  0.05742  0.40331  0.11258  1.0000
  Hf  Hf18      1.0  0.05504  0.39414  0.62109  1.0000
  Hf  Hf19      1.0  0.05200  0.89580  0.13106  1.0000
  Hf  Hf20      1.0  0.05506  0.89869  0.62233  1.0000
  Hf  Hf21      1.0  0.30354  0.39271  0.12209  1.0000
  Hf  Hf22      1.0  0.30369  0.39178  0.62439  1.0000
  Hf  Hf23      1.0  0.30305  0.89549  0.12966  1.0000
  Hf  Hf24      1.0  0.30541  0.89804  0.62484  1.0000
  Hf  Hf25      1.0  0.55308  0.38352  0.12888  1.0000
  Hf  Hf26      1.0  0.55234  0.39227  0.63485  1.0000
  Hf  Hf27      1.0  0.55280  0.89199  0.11582  1.0000
  Hf  Hf28      1.0  0.55371  0.89094  0.63012  1.0000
  Hf  Hf29      1.0  0.80347  0.38838  0.13284  1.0000
  Hf  Hf30      1.0  0.80560  0.39521  0.62656  1.0000
  Hf  Hf31      1.0  0.80507  0.89164  0.12755  1.0000
  Hf  Hf32      1.0  0.80456  0.88857  0.62253  1.0000
  Hf  Hf33      1.0  0.05819  0.18065  0.41815  1.0000
  Hf  Hf34      1.0  0.05604  0.18448  0.91809  1.0000
  Hf  Hf35      1.0  0.05494  0.68572  0.42282  1.0000
  Hf  Hf36      1.0  0.05760  0.68644  0.91315  1.0000
  Hf  Hf37      1.0  0.30662  0.18265  0.41438  1.0000
  Hf  Hf38      1.0  0.30425  0.18078  0.91641  1.0000
  Hf  Hf39      1.0  0.30582  0.68060  0.41639  1.0000
  Hf  Hf40      1.0  0.30163  0.67652  0.91796  1.0000
  Hf  Hf41      1.0  0.55892  0.18045  0.41273  1.0000
  Hf  Hf42      1.0  0.55540  0.18520  0.91805  1.0000
  Hf  Hf43      1.0  0.55008  0.68159  0.43071  1.0000
  Hf  Hf44      1.0  0.55505  0.67776  0.92055  1.0000
  Hf  Hf45      1.0  0.80770  0.18199  0.41366  1.0000
  Hf  Hf46      1.0  0.80811  0.17966  0.91944  1.0000
  Hf  Hf47      1.0  0.80729  0.68332  0.41699  1.0000
  Hf  Hf48      1.0  0.80671  0.68413  0.91514  1.0000
  Hf  Hf49      1.0  0.15442  0.38603  0.33508  1.0000
  Hf  Hf50      1.0  0.16078  0.39428  0.82880  1.0000
  Hf  Hf51      1.0  0.15463  0.88464  0.33230  1.0000
  Hf  Hf52      1.0  0.15795  0.89170  0.83173  1.0000
  Hf  Hf53      1.0  0.40956  0.38787  0.33449  1.0000
  Hf  Hf54      1.0  0.40672  0.39164  0.83496  1.0000
  Hf  Hf55      1.0  0.40788  0.88844  0.33272  1.0000
  Hf  Hf56      1.0  0.40372  0.88534  0.84560  1.0000
  Hf  Hf57      1.0  0.65755  0.38688  0.33655  1.0000
  Hf  Hf58      1.0  0.65954  0.38710  0.82973  1.0000
  Hf  Hf59      1.0  0.65708  0.88824  0.34062  1.0000
  Hf  Hf60      1.0  0.65923  0.88727  0.83742  1.0000
  Hf  Hf61      1.0  0.91275  0.38658  0.33567  1.0000
  Hf  Hf62      1.0  0.90774  0.38367  0.83264  1.0000
  Hf  Hf63      1.0  0.90744  0.88852  0.33598  1.0000
  Hf  Hf64      1.0  0.90730  0.88037  0.84640  1.0000
  Hf  Hf65      1.0  0.19501  0.32506  0.07492  1.0000
  Hf  Hf66      1.0  0.19592  0.32248  0.57339  1.0000
  Hf  Hf67      1.0  0.19629  0.82576  0.06971  1.0000
  Hf  Hf68      1.0  0.19429  0.82151  0.57890  1.0000
  Hf  Hf69      1.0  0.44527  0.31551  0.08473  1.0000
  Hf  Hf70      1.0  0.44691  0.31444  0.58100  1.0000
  Hf  Hf71      1.0  0.43942  0.81577  0.08791  1.0000
  Hf  Hf72      1.0  0.44428  0.82630  0.58920  1.0000
  Hf  Hf73      1.0  0.69588  0.31096  0.08818  1.0000
  Hf  Hf74      1.0  0.69398  0.32231  0.58010  1.0000
  Hf  Hf75      1.0  0.69176  0.82469  0.08771  1.0000
  Hf  Hf76      1.0  0.69133  0.81883  0.59496  1.0000
  Hf  Hf77      1.0  0.94287  0.32610  0.07674  1.0000
  Hf  Hf78      1.0  0.94743  0.31025  0.58214  1.0000
  Hf  Hf79      1.0  0.94277  0.80874  0.09267  1.0000
  Hf  Hf80      1.0  0.94552  0.82598  0.57493  1.0000
  Hf  Hf81      1.0  0.09516  0.11716  0.15949  1.0000
  Hf  Hf82      1.0  0.09187  0.10888  0.67025  1.0000
  Hf  Hf83      1.0  0.09227  0.61844  0.16288  1.0000
  Hf  Hf84      1.0  0.08809  0.60900  0.66743  1.0000
  Hf  Hf85      1.0  0.34434  0.11448  0.15803  1.0000
  Hf  Hf86      1.0  0.34279  0.11802  0.65868  1.0000
  Hf  Hf87      1.0  0.34102  0.61200  0.16669  1.0000
  Hf  Hf88      1.0  0.34518  0.61985  0.65152  1.0000
  Hf  Hf89      1.0  0.59261  0.10038  0.17183  1.0000
  Hf  Hf90      1.0  0.59405  0.10987  0.66253  1.0000
  Hf  Hf91      1.0  0.58856  0.60452  0.17976  1.0000
  Hf  Hf92      1.0  0.59143  0.61209  0.67116  1.0000
  Hf  Hf93      1.0  0.84196  0.10705  0.16984  1.0000
  Hf  Hf94      1.0  0.84011  0.10253  0.67101  1.0000
  Hf  Hf95      1.0  0.84204  0.60417  0.17412  1.0000
  Hf  Hf96      1.0  0.83675  0.60894  0.67060  1.0000
  F   F1        1.0  0.07801  0.12649  0.30029  1.0000
  F   F2        1.0  0.07525  0.11522  0.80861  1.0000
  F   F3        1.0  0.07875  0.63695  0.30212  1.0000
  F   F4        1.0  0.07174  0.62903  0.81139  1.0000
  F   F5        1.0  0.33515  0.13944  0.28797  1.0000
  F   F6        1.0  0.33131  0.13727  0.79208  1.0000
  F   F7        1.0  0.33180  0.62803  0.30059  1.0000
  F   F8        1.0  0.33482  0.63943  0.79638  1.0000
  F   F9        1.0  0.57953  0.12168  0.30193  1.0000
  F   F10       1.0  0.58440  0.13340  0.79559  1.0000
  F   F11       1.0  0.57676  0.62579  0.31373  1.0000
  F   F12       1.0  0.57611  0.61751  0.80990  1.0000
  F   F13       1.0  0.82312  0.11605  0.32364  1.0000
  F   F14       1.0  0.82913  0.13179  0.79956  1.0000
  F   F15       1.0  0.83154  0.62562  0.30279  1.0000
  F   F16       1.0  0.82421  0.62646  0.81020  1.0000
  F   F17       1.0  0.19263  0.34847  0.42737  1.0000
  F   F18       1.0  0.18495  0.33674  0.94661  1.0000
  F   F19       1.0  0.18951  0.85058  0.43910  1.0000
  F   F20       1.0  0.18846  0.84658  0.93801  1.0000
  F   F21       1.0  0.43804  0.33191  0.43969  1.0000
  F   F22       1.0  0.43167  0.35072  0.94871  1.0000
  F   F23       1.0  0.42183  0.82197  0.46443  1.0000
  F   F24       1.0  0.43989  0.83719  0.95106  1.0000
  F   F25       1.0  0.68465  0.34924  0.44758  1.0000
  F   F26       1.0  0.68238  0.33802  0.94898  1.0000
  F   F27       1.0  0.67942  0.84513  0.45731  1.0000
  F   F28       1.0  0.68618  0.85438  0.94177  1.0000
  F   F29       1.0  0.93633  0.32742  0.45314  1.0000
  F   F30       1.0  0.94100  0.33999  0.93227  1.0000
  F   F31       1.0  0.93095  0.83253  0.45590  1.0000
  F   F32       1.0  0.92790  0.82031  0.96907  1.0000
  F   F33       1.0  0.16531  0.36527  0.19827  1.0000
  F   F34       1.0  0.17109  0.36584  0.69499  1.0000
  F   F35       1.0  0.17207  0.86286  0.19865  1.0000
  F   F36       1.0  0.16893  0.88353  0.68784  1.0000
  F   F37       1.0  0.42457  0.37747  0.18585  1.0000
  F   F38       1.0  0.42355  0.36124  0.70293  1.0000
  F   F39       1.0  0.41961  0.87299  0.20223  1.0000
  F   F40       1.0  0.42060  0.87369  0.70026  1.0000
  F   F41       1.0  0.66941  0.38669  0.18577  1.0000
  F   F42       1.0  0.67207  0.38210  0.68517  1.0000
  F   F43       1.0  0.65608  0.85339  0.22114  1.0000
  F   F44       1.0  0.67262  0.89148  0.68272  1.0000
  F   F45       1.0  0.91708  0.37537  0.18831  1.0000
  F   F46       1.0  0.91584  0.36384  0.70358  1.0000
  F   F47       1.0  0.92439  0.87100  0.19705  1.0000
  F   F48       1.0  0.91828  0.85834  0.70050  1.0000
  F   F49       1.0  0.06902  0.16699  0.04082  1.0000
  F   F50       1.0  0.07095  0.16614  0.55070  1.0000
  F   F51       1.0  0.06767  0.67749  0.04175  1.0000
  F   F52       1.0  0.05844  0.64947  0.56656  1.0000
  F   F53       1.0  0.31671  0.15946  0.04603  1.0000
  F   F54       1.0  0.31772  0.17313  0.55131  1.0000
  F   F55       1.0  0.30701  0.64665  0.06177  1.0000
  F   F56       1.0  0.30387  0.65681  0.56162  1.0000
  F   F57       1.0  0.56370  0.13756  0.06498  1.0000
  F   F58       1.0  0.56939  0.16877  0.54491  1.0000
  F   F59       1.0  0.56778  0.65479  0.04769  1.0000
  F   F60       1.0  0.55559  0.65102  0.57635  1.0000
  F   F61       1.0  0.81535  0.15417  0.06082  1.0000
  F   F62       1.0  0.81252  0.15655  0.55731  1.0000
  F   F63       1.0  0.80890  0.65518  0.05733  1.0000
  F   F64       1.0  0.82846  0.66824  0.53554  1.0000
  F   F65       1.0  0.20376  0.20142  0.21840  1.0000
  F   F66       1.0  0.20353  0.18789  0.70642  1.0000
  F   F67       1.0  0.20771  0.69744  0.21320  1.0000
  F   F68       1.0  0.21195  0.70039  0.70521  1.0000
  F   F69       1.0  0.45480  0.19353  0.20453  1.0000
  F   F70       1.0  0.45896  0.20424  0.70770  1.0000
  F   F71       1.0  0.45176  0.70243  0.20724  1.0000
  F   F72       1.0  0.45572  0.70683  0.71912  1.0000
  F   F73       1.0  0.70101  0.20899  0.21421  1.0000
  F   F74       1.0  0.70426  0.20636  0.70858  1.0000
  F   F75       1.0  0.69954  0.69901  0.21725  1.0000
  F   F76       1.0  0.70219  0.71701  0.72592  1.0000
  F   F77       1.0  0.95393  0.20341  0.19769  1.0000
  F   F78       1.0  0.95754  0.20039  0.69992  1.0000
  F   F79       1.0  0.95284  0.69272  0.21389  1.0000
  F   F80       1.0  0.95004  0.69502  0.71498  1.0000
  F   F81       1.0  0.15437  0.10291  0.03607  1.0000
  F   F82       1.0  0.14714  0.08047  0.54966  1.0000
  F   F83       1.0  0.14569  0.59236  0.03801  1.0000
  F   F84       1.0  0.14594  0.59420  0.54192  1.0000
  F   F85       1.0  0.39742  0.08066  0.03284  1.0000
  F   F86       1.0  0.39505  0.08915  0.53661  1.0000
  F   F87       1.0  0.39937  0.59102  0.04171  1.0000
  F   F88       1.0  0.40131  0.61262  0.52494  1.0000
  F   F89       1.0  0.65144  0.07699  0.03536  1.0000
  F   F90       1.0  0.65120  0.07858  0.53967  1.0000
  F   F91       1.0  0.64446  0.57094  0.04795  1.0000
  F   F92       1.0  0.65009  0.59903  0.54398  1.0000
  F   F93       1.0  0.89924  0.09331  0.04089  1.0000
  F   F94       1.0  0.90178  0.09069  0.53280  1.0000
  F   F95       1.0  0.89401  0.57428  0.04172  1.0000
  F   F96       1.0  0.90859  0.56781  0.54272  1.0000
  F   F97       1.0  0.15209  0.20545  0.12300  1.0000
  F   F98       1.0  0.15283  0.21163  0.61557  1.0000
  F   F99       1.0  0.15054  0.70480  0.13896  1.0000
  F   F100      1.0  0.15838  0.69262  0.62946  1.0000
  F   F101      1.0  0.40391  0.19663  0.11882  1.0000
  F   F102      1.0  0.40068  0.19727  0.61135  1.0000
  F   F103      1.0  0.39412  0.69850  0.13264  1.0000
  F   F104      1.0  0.40125  0.69922  0.63995  1.0000
  F   F105      1.0  0.65796  0.18748  0.11597  1.0000
  F   F106      1.0  0.65013  0.20023  0.60806  1.0000
  F   F107      1.0  0.64934  0.69470  0.11654  1.0000
  F   F108      1.0  0.64896  0.69121  0.65320  1.0000
  F   F109      1.0  0.89552  0.20198  0.12366  1.0000
  F   F110      1.0  0.90376  0.18244  0.62680  1.0000
  F   F111      1.0  0.90316  0.67321  0.12913  1.0000
  F   F112      1.0  0.89341  0.69993  0.62421  1.0000
  F   F113      1.0  0.09758  0.29690  0.37116  1.0000
  F   F114      1.0  0.10420  0.30301  0.86514  1.0000
  F   F115      1.0  0.09400  0.80782  0.37572  1.0000
  F   F116      1.0  0.09923  0.80129  0.86106  1.0000
  F   F117      1.0  0.35211  0.29788  0.35723  1.0000
  F   F118      1.0  0.34798  0.31023  0.88135  1.0000
  F   F119      1.0  0.35550  0.80025  0.37940  1.0000
  F   F120      1.0  0.34053  0.80023  0.87237  1.0000
  F   F121      1.0  0.59521  0.31436  0.36588  1.0000
  F   F122      1.0  0.59478  0.30296  0.89194  1.0000
  F   F123      1.0  0.59348  0.79936  0.40889  1.0000
  F   F124      1.0  0.59747  0.79621  0.86835  1.0000
  F   F125      1.0  0.85202  0.29352  0.38422  1.0000
  F   F126      1.0  0.84562  0.29758  0.87967  1.0000
  F   F127      1.0  0.85417  0.80274  0.36407  1.0000
  F   F128      1.0  0.84529  0.80855  0.89187  1.0000
  F   F129      1.0  0.06549  0.25572  0.13390  1.0000
  F   F130      1.0  0.06689  0.24879  0.64638  1.0000
  F   F131      1.0  0.06346  0.75753  0.14511  1.0000
  F   F132      1.0  0.08117  0.75334  0.61162  1.0000
  F   F133      1.0  0.32071  0.25191  0.12876  1.0000
  F   F134      1.0  0.31001  0.25299  0.64584  1.0000
  F   F135      1.0  0.30666  0.74501  0.15575  1.0000
  F   F136      1.0  0.32374  0.76097  0.62498  1.0000
  F   F137      1.0  0.57377  0.24280  0.12448  1.0000
  F   F138      1.0  0.55772  0.24922  0.65654  1.0000
  F   F139      1.0  0.56013  0.74722  0.14673  1.0000
  F   F140      1.0  0.57288  0.75951  0.62604  1.0000
  F   F141      1.0  0.81840  0.24964  0.14500  1.0000
  F   F142      1.0  0.81612  0.25456  0.63575  1.0000
  F   F143      1.0  0.81385  0.74697  0.14493  1.0000
  F   F144      1.0  0.81204  0.74898  0.64876  1.0000
  F   F145      1.0  0.12500  0.38186  0.09190  1.0000
  F   F146      1.0  0.12263  0.38435  0.60873  1.0000
  F   F147      1.0  0.12656  0.88353  0.10314  1.0000
  F   F148      1.0  0.12537  0.88420  0.59840  1.0000
  F   F149      1.0  0.37647  0.35329  0.12131  1.0000
  F   F150      1.0  0.37606  0.36614  0.61020  1.0000
  F   F151      1.0  0.37492  0.87549  0.10424  1.0000
  F   F152      1.0  0.37586  0.87947  0.62256  1.0000
  F   F153      1.0  0.62354  0.36004  0.12232  1.0000
  F   F154      1.0  0.62343  0.36277  0.61541  1.0000
  F   F155      1.0  0.62264  0.86357  0.10230  1.0000
  F   F156      1.0  0.62542  0.86940  0.61803  1.0000
  F   F157      1.0  0.87664  0.39040  0.08880  1.0000
  F   F158      1.0  0.87426  0.36712  0.61126  1.0000
  F   F159      1.0  0.87408  0.84358  0.13070  1.0000
  F   F160      1.0  0.87671  0.88315  0.59852  1.0000
  F   F161      1.0  0.18284  0.24693  0.35502  1.0000
  F   F162      1.0  0.19272  0.24468  0.85115  1.0000
  F   F163      1.0  0.18700  0.75084  0.35279  1.0000
  F   F164      1.0  0.18313  0.75427  0.85883  1.0000
  F   F165      1.0  0.43254  0.24903  0.35267  1.0000
  F   F166      1.0  0.42883  0.24464  0.87621  1.0000
  F   F167      1.0  0.44608  0.74962  0.33485  1.0000
  F   F168      1.0  0.42013  0.73943  0.88600  1.0000
  F   F169      1.0  0.68620  0.25079  0.36270  1.0000
  F   F170      1.0  0.68763  0.25738  0.84559  1.0000
  F   F171      1.0  0.68536  0.74340  0.37658  1.0000
  F   F172      1.0  0.67777  0.73921  0.88724  1.0000
  F   F173      1.0  0.93759  0.24426  0.35170  1.0000
  F   F174      1.0  0.93187  0.24032  0.85665  1.0000
  F   F175      1.0  0.94154  0.74630  0.34987  1.0000
  F   F176      1.0  0.93377  0.74499  0.85888  1.0000
  F   F177      1.0  0.12427  0.12533  0.39129  1.0000
  F   F178      1.0  0.12224  0.11968  0.90006  1.0000
  F   F179      1.0  0.12559  0.64716  0.39036  1.0000
  F   F180      1.0  0.12846  0.62412  0.87690  1.0000
  F   F181      1.0  0.37421  0.12143  0.39169  1.0000
  F   F182      1.0  0.37447  0.12898  0.88237  1.0000
  F   F183      1.0  0.38004  0.64121  0.38671  1.0000
  F   F184      1.0  0.37108  0.62537  0.90305  1.0000
  F   F185      1.0  0.62521  0.13535  0.38661  1.0000
  F   F186      1.0  0.62789  0.14637  0.89018  1.0000
  F   F187      1.0  0.62404  0.61602  0.40783  1.0000
  F   F188      1.0  0.62616  0.62207  0.89246  1.0000
  F   F189      1.0  0.87667  0.12977  0.39016  1.0000
  F   F190      1.0  0.87502  0.12640  0.88835  1.0000
  F   F191      1.0  0.87847  0.63596  0.38692  1.0000
  F   F192      1.0  0.87462  0.64136  0.88538  1.0000
  F   F193      1.0  0.00812  0.37754  0.06049  1.0000
  F   F194      1.0  0.01073  0.34294  0.58630  1.0000
  F   F195      1.0  0.00656  0.86654  0.07673  1.0000
  F   F196      1.0  0.01087  0.85277  0.58148  1.0000
  F   F197      1.0  0.25793  0.36207  0.06553  1.0000
  F   F198      1.0  0.25727  0.36584  0.57502  1.0000
  F   F199      1.0  0.25725  0.85636  0.07158  1.0000
  F   F200      1.0  0.25890  0.85704  0.57606  1.0000
  F   F201      1.0  0.50724  0.36121  0.07971  1.0000
  F   F202      1.0  0.50499  0.36307  0.57293  1.0000
  F   F203      1.0  0.50038  0.86523  0.07946  1.0000
  F   F204      1.0  0.50513  0.85793  0.58616  1.0000
  F   F205      1.0  0.75607  0.35819  0.08198  1.0000
  F   F206      1.0  0.76014  0.37464  0.57010  1.0000
  F   F207      1.0  0.75038  0.85418  0.10346  1.0000
  F   F208      1.0  0.75986  0.86121  0.56841  1.0000
  F   F209      1.0  0.06511  0.49203  0.17725  1.0000
  F   F210      1.0  0.06321  0.48559  0.67375  1.0000
  F   F211      1.0  0.07226  0.99696  0.15952  1.0000
  F   F212      1.0  0.06795  0.99348  0.66907  1.0000
  F   F213      1.0  0.32259  0.48663  0.15547  1.0000
  F   F214      1.0  0.32664  0.49846  0.65309  1.0000
  F   F215      1.0  0.31594  0.98711  0.17953  1.0000
  F   F216      1.0  0.31698  0.98633  0.68398  1.0000
  F   F217      1.0  0.56676  0.48118  0.18667  1.0000
  F   F218      1.0  0.57897  0.48515  0.66309  1.0000
  F   F219      1.0  0.57403  0.97182  0.17002  1.0000
  F   F220      1.0  0.56832  0.98712  0.67497  1.0000
  F   F221      1.0  0.81885  0.47909  0.18549  1.0000
  F   F222      1.0  0.81854  0.48716  0.67028  1.0000
  F   F223      1.0  0.82081  0.98367  0.17566  1.0000
  F   F224      1.0  0.82238  0.97144  0.69304  1.0000
  F   F225      1.0  0.24315  0.14067  0.42219  1.0000
  F   F226      1.0  0.24555  0.13415  0.92669  1.0000
  F   F227      1.0  0.24939  0.64276  0.39811  1.0000
  F   F228      1.0  0.23791  0.63836  0.92101  1.0000
  F   F229      1.0  0.48807  0.13229  0.42331  1.0000
  F   F230      1.0  0.49157  0.13311  0.92639  1.0000
  F   F231      1.0  0.49029  0.63272  0.44260  1.0000
  F   F232      1.0  0.49296  0.65029  0.92066  1.0000
  F   F233      1.0  0.74025  0.15551  0.42202  1.0000
  F   F234      1.0  0.74284  0.14563  0.91618  1.0000
  F   F235      1.0  0.74610  0.63028  0.42447  1.0000
  F   F236      1.0  0.73626  0.61969  0.94186  1.0000
  F   F237      1.0  0.99746  0.14795  0.40466  1.0000
  F   F238      1.0  0.99071  0.13005  0.92614  1.0000
  F   F239      1.0  0.99151  0.63732  0.42561  1.0000
  F   F240      1.0  0.98595  0.64215  0.93015  1.0000
  F   F241      1.0  0.18296  0.02326  0.31052  1.0000
  F   F242      1.0  0.17964  0.01556  0.82211  1.0000
  F   F243      1.0  0.17618  0.53165  0.31318  1.0000
  F   F244      1.0  0.18523  0.51297  0.81274  1.0000
  F   F245      1.0  0.43443  0.00979  0.32568  1.0000
  F   F246      1.0  0.42547  0.01451  0.83580  1.0000
  F   F247      1.0  0.43055  0.52131  0.31630  1.0000
  F   F248      1.0  0.43010  0.52069  0.82027  1.0000
  F   F249      1.0  0.68046  0.01258  0.33470  1.0000
  F   F250      1.0  0.67588  0.01669  0.83479  1.0000
  F   F251      1.0  0.67889  0.51285  0.32012  1.0000
  F   F252      1.0  0.68419  0.52202  0.80706  1.0000
  F   F253      1.0  0.92544  0.00817  0.34025  1.0000
  F   F254      1.0  0.93480  0.00370  0.82512  1.0000
  F   F255      1.0  0.93657  0.50543  0.34002  1.0000
  F   F256      1.0  0.93608  0.51743  0.80763  1.0000
  F   F257      1.0  0.99554  0.24664  0.99855  1.0000
  F   F258      1.0  0.00433  0.24689  0.50296  1.0000
  F   F259      1.0  0.00193  0.75148  0.99235  1.0000
  F   F260      1.0  0.00262  0.75627  0.50498  1.0000
  F   F261      1.0  0.24844  0.25339  0.99532  1.0000
  F   F262      1.0  0.25380  0.25298  0.49416  1.0000
  F   F263      1.0  0.24896  0.75223  0.99278  1.0000
  F   F264      1.0  0.25560  0.76770  0.48017  1.0000
  F   F265      1.0  0.50406  0.26158  0.98818  1.0000
  F   F266      1.0  0.50452  0.24714  0.48834  1.0000
  F   F267      1.0  0.50069  0.74438  0.00381  1.0000
  F   F268      1.0  0.49605  0.75131  0.51176  1.0000
  F   F269      1.0  0.75107  0.24417  0.99750  1.0000
  F   F270      1.0  0.75508  0.26022  0.49009  1.0000
  F   F271      1.0  0.74675  0.75724  0.00657  1.0000
  F   F272      1.0  0.74519  0.74112  0.50641  1.0000
  F   F273      1.0  0.12446  0.99657  0.24066  1.0000
  F   F274      1.0  0.12208  0.99443  0.75717  1.0000
  F   F275      1.0  0.12228  0.49978  0.25481  1.0000
  F   F276      1.0  0.12583  0.50020  0.74699  1.0000
  F   F277      1.0  0.37230  0.99939  0.25484  1.0000
  F   F278      1.0  0.37202  0.00588  0.75921  1.0000
  F   F279      1.0  0.36953  0.49535  0.25090  1.0000
  F   F280      1.0  0.37269  0.49714  0.74979  1.0000
  F   F281      1.0  0.62906  0.00405  0.24661  1.0000
  F   F282      1.0  0.62268  0.99953  0.75262  1.0000
  F   F283      1.0  0.62780  0.50900  0.24285  1.0000
  F   F284      1.0  0.62077  0.49495  0.76368  1.0000
  F   F285      1.0  0.87767  0.99648  0.24500  1.0000
  F   F286      1.0  0.87638  0.98666  0.75231  1.0000
  F   F287      1.0  0.87766  0.49334  0.25573  1.0000
  F   F288      1.0  0.86533  0.49596  0.75598  1.0000
  F   F289      1.0  0.03959  0.02732  0.02501  1.0000
  F   F290      1.0  0.04590  0.03552  0.51444  1.0000
  F   F291      1.0  0.04653  0.54053  0.02075  1.0000
  F   F292      1.0  0.04598  0.52797  0.50700  1.0000
  F   F293      1.0  0.29196  0.02931  0.02606  1.0000
  F   F294      1.0  0.28497  0.04587  0.53326  1.0000
  F   F295      1.0  0.28980  0.53436  0.00619  1.0000
  F   F296      1.0  0.29594  0.53543  0.50844  1.0000
  F   F297      1.0  0.55151  0.02915  0.99714  1.0000
  F   F298      1.0  0.53948  0.03307  0.52817  1.0000
  F   F299      1.0  0.53611  0.52616  0.04515  1.0000
  F   F300      1.0  0.53413  0.52645  0.53682  1.0000
  F   F301      1.0  0.78753  0.02953  0.02546  1.0000
  F   F302      1.0  0.78877  0.02606  0.53524  1.0000
  F   F303      1.0  0.79774  0.51647  0.02482  1.0000
  F   F304      1.0  0.79185  0.53962  0.51941  1.0000
  F   F305      1.0  0.23228  0.41075  0.21848  1.0000
  F   F306      1.0  0.23761  0.42485  0.71226  1.0000
  F   F307      1.0  0.23384  0.91522  0.22066  1.0000
  F   F308      1.0  0.23406  0.92928  0.71974  1.0000
  F   F309      1.0  0.48563  0.40510  0.23113  1.0000
  F   F310      1.0  0.48669  0.40344  0.73812  1.0000
  F   F311      1.0  0.48693  0.91438  0.22560  1.0000
  F   F312      1.0  0.47554  0.92079  0.73870  1.0000
  F   F313      1.0  0.73494  0.41708  0.23000  1.0000
  F   F314      1.0  0.73531  0.41430  0.72804  1.0000
  F   F315      1.0  0.72461  0.92719  0.22867  1.0000
  F   F316      1.0  0.73858  0.90393  0.74167  1.0000
  F   F317      1.0  0.98065  0.42241  0.20399  1.0000
  F   F318      1.0  0.98716  0.40128  0.72503  1.0000
  F   F319      1.0  0.98799  0.91349  0.23536  1.0000
  F   F320      1.0  0.98073  0.91391  0.72132  1.0000
  F   F321      1.0  0.20435  0.47069  0.46780  1.0000
  F   F322      1.0  0.19973  0.47381  0.97489  1.0000
  F   F323      1.0  0.21239  0.97302  0.46605  1.0000
  F   F324      1.0  0.20495  0.97593  0.97627  1.0000
  F   F325      1.0  0.45403  0.46391  0.48184  1.0000
  F   F326      1.0  0.45534  0.46891  0.98522  1.0000
  F   F327      1.0  0.45434  0.96260  0.47971  1.0000
  F   F328      1.0  0.45966  0.96853  0.97398  1.0000
  F   F329      1.0  0.70800  0.47207  0.46984  1.0000
  F   F330      1.0  0.70925  0.45928  0.97580  1.0000
  F   F331      1.0  0.71842  0.97766  0.46198  1.0000
  F   F332      1.0  0.71065  0.96962  0.99103  1.0000
  F   F333      1.0  0.96453  0.45390  0.47033  1.0000
  F   F334      1.0  0.96304  0.46799  0.95351  1.0000
  F   F335      1.0  0.96004  0.96843  0.47164  1.0000
  F   F336      1.0  0.95364  0.95449  0.98949  1.0000
  F   F337      1.0  0.01406  0.08412  0.26314  1.0000
  F   F338      1.0  0.01411  0.08421  0.76294  1.0000
  F   F339      1.0  0.01740  0.58314  0.27877  1.0000
  F   F340      1.0  0.01549  0.60421  0.76912  1.0000
  F   F341      1.0  0.27212  0.08723  0.26749  1.0000
  F   F342      1.0  0.26555  0.08801  0.77172  1.0000
  F   F343      1.0  0.26374  0.57696  0.27503  1.0000
  F   F344      1.0  0.26800  0.58692  0.77010  1.0000
  F   F345      1.0  0.51845  0.08698  0.26794  1.0000
  F   F346      1.0  0.51605  0.08728  0.77147  1.0000
  F   F347      1.0  0.51441  0.58243  0.28741  1.0000
  F   F348      1.0  0.51524  0.58079  0.77206  1.0000
  F   F349      1.0  0.76390  0.08960  0.26860  1.0000
  F   F350      1.0  0.76331  0.07609  0.77742  1.0000
  F   F351      1.0  0.76992  0.57024  0.28068  1.0000
  F   F352      1.0  0.75999  0.59646  0.78032  1.0000
  F   F353      1.0  0.10190  0.39755  0.46617  1.0000
  F   F354      1.0  0.09750  0.40027  0.95499  1.0000
  F   F355      1.0  0.10264  0.91216  0.45996  1.0000
  F   F356      1.0  0.09982  0.90476  0.95972  1.0000
  F   F357      1.0  0.35226  0.40685  0.45523  1.0000
  F   F358      1.0  0.35166  0.42067  0.96427  1.0000
  F   F359      1.0  0.34414  0.92804  0.46928  1.0000
  F   F360      1.0  0.34792  0.89928  0.97927  1.0000
  F   F361      1.0  0.59824  0.40902  0.46543  1.0000
  F   F362      1.0  0.60385  0.42758  0.95604  1.0000
  F   F363      1.0  0.60048  0.93084  0.46454  1.0000
  F   F364      1.0  0.60082  0.90791  0.94962  1.0000
  F   F365      1.0  0.85443  0.41051  0.46593  1.0000
  F   F366      1.0  0.85479  0.40020  0.95353  1.0000
  F   F367      1.0  0.84534  0.89970  0.46435  1.0000
  F   F368      1.0  0.85198  0.91010  0.97438  1.0000
  F   F369      1.0  0.04387  0.31089  0.28422  1.0000
  F   F370      1.0  0.04781  0.29460  0.79451  1.0000
  F   F371      1.0  0.04636  0.80920  0.29805  1.0000
  F   F372      1.0  0.04246  0.80119  0.76591  1.0000
  F   F373      1.0  0.28783  0.29198  0.29739  1.0000
  F   F374      1.0  0.29586  0.30436  0.78468  1.0000
  F   F375      1.0  0.30577  0.81105  0.27832  1.0000
  F   F376      1.0  0.29170  0.80259  0.78141  1.0000
  F   F377      1.0  0.54365  0.28387  0.28943  1.0000
  F   F378      1.0  0.54900  0.29789  0.79093  1.0000
  F   F379      1.0  0.54733  0.79332  0.30535  1.0000
  F   F380      1.0  0.54242  0.80055  0.78111  1.0000
  F   F381      1.0  0.80055  0.30183  0.28642  1.0000
  F   F382      1.0  0.79725  0.29578  0.79531  1.0000
  F   F383      1.0  0.79377  0.80304  0.29225  1.0000
  F   F384      1.0  0.79721  0.79181  0.79084  1.0000
