data_image0
_chemical_formula_structural       Hf96F384
_chemical_formula_sum              "Hf96 F384"
_cell_length_a       31.0188
_cell_length_b       15.5111
_cell_length_c       15.5014
_cell_angle_alpha    63.342
_cell_angle_beta     63.342
_cell_angle_gamma    80.1625

_space_group_name_H-M_alt    "P 1"
_space_group_IT_number       1

loop_
  _space_group_symop_operation_xyz
  'x, y, z'

loop_
  _atom_site_type_symbol
  _atom_site_label
  _atom_site_symmetry_multiplicity
  _atom_site_fract_x
  _atom_site_fract_y
  _atom_site_fract_z
  _atom_site_occupancy
  Hf  Hf1       1.0  0.19604  0.10070  0.38511  1.0000
  Hf  Hf2       1.0  0.19724  0.10138  0.88169  1.0000
  Hf  Hf3       1.0  0.19227  0.59674  0.38527  1.0000
  Hf  Hf4       1.0  0.19615  0.60173  0.87984  1.0000
  Hf  Hf5       1.0  0.44677  0.11002  0.36988  1.0000
  Hf  Hf6       1.0  0.44724  0.10215  0.87695  1.0000
  Hf  Hf7       1.0  0.44836  0.61324  0.37148  1.0000
  Hf  Hf8       1.0  0.44312  0.60774  0.87186  1.0000
  Hf  Hf9       1.0  0.69868  0.11394  0.37084  1.0000
  Hf  Hf10      1.0  0.69636  0.10343  0.87402  1.0000
  Hf  Hf11      1.0  0.69650  0.61316  0.37360  1.0000
  Hf  Hf12      1.0  0.69755  0.60773  0.87021  1.0000
  Hf  Hf13      1.0  0.94717  0.11087  0.36848  1.0000
  Hf  Hf14      1.0  0.94534  0.11088  0.87433  1.0000
  Hf  Hf15      1.0  0.94556  0.60523  0.37324  1.0000
  Hf  Hf16      1.0  0.94384  0.61351  0.87407  1.0000
  Hf  Hf17      1.0  0.05246  0.38628  0.13543  1.0000
  Hf  Hf18      1.0  0.04904  0.38478  0.63800  1.0000
  Hf  Hf19      1.0  0.05593  0.88598  0.12663  1.0000
  Hf  Hf20      1.0  0.05296  0.90082  0.62390  1.0000
  Hf  Hf21      1.0  0.30723  0.39648  0.11558  1.0000
  Hf  Hf22      1.0  0.30241  0.38869  0.63686  1.0000
  Hf  Hf23      1.0  0.30695  0.88986  0.12449  1.0000
  Hf  Hf24      1.0  0.30456  0.89650  0.63014  1.0000
  Hf  Hf25      1.0  0.55493  0.39758  0.11440  1.0000
  Hf  Hf26      1.0  0.55543  0.39684  0.62044  1.0000
  Hf  Hf27      1.0  0.55099  0.89935  0.11374  1.0000
  Hf  Hf28      1.0  0.54990  0.89464  0.62973  1.0000
  Hf  Hf29      1.0  0.80043  0.39433  0.12644  1.0000
  Hf  Hf30      1.0  0.80883  0.39664  0.61617  1.0000
  Hf  Hf31      1.0  0.80442  0.89636  0.12785  1.0000
  Hf  Hf32      1.0  0.80653  0.89122  0.63137  1.0000
  Hf  Hf33      1.0  0.05687  0.18521  0.41023  1.0000
  Hf  Hf34      1.0  0.05742  0.18147  0.91778  1.0000
  Hf  Hf35      1.0  0.05130  0.67263  0.42667  1.0000
  Hf  Hf36      1.0  0.05197  0.67520  0.92277  1.0000
  Hf  Hf37      1.0  0.30302  0.18728  0.41831  1.0000
  Hf  Hf38      1.0  0.30566  0.18698  0.91789  1.0000
  Hf  Hf39      1.0  0.30760  0.67499  0.41531  1.0000
  Hf  Hf40      1.0  0.30361  0.67583  0.91886  1.0000
  Hf  Hf41      1.0  0.55712  0.17985  0.42056  1.0000
  Hf  Hf42      1.0  0.55972  0.18741  0.90905  1.0000
  Hf  Hf43      1.0  0.55993  0.69161  0.40097  1.0000
  Hf  Hf44      1.0  0.55208  0.68662  0.91510  1.0000
  Hf  Hf45      1.0  0.80516  0.18090  0.41979  1.0000
  Hf  Hf46      1.0  0.80615  0.18564  0.91224  1.0000
  Hf  Hf47      1.0  0.80552  0.68695  0.41302  1.0000
  Hf  Hf48      1.0  0.80101  0.67530  0.92619  1.0000
  Hf  Hf49      1.0  0.16048  0.38676  0.32924  1.0000
  Hf  Hf50      1.0  0.15782  0.38682  0.84066  1.0000
  Hf  Hf51      1.0  0.16040  0.88585  0.33508  1.0000
  Hf  Hf52      1.0  0.15887  0.87905  0.84078  1.0000
  Hf  Hf53      1.0  0.40849  0.39200  0.33090  1.0000
  Hf  Hf54      1.0  0.40977  0.38722  0.83500  1.0000
  Hf  Hf55      1.0  0.40631  0.89249  0.32498  1.0000
  Hf  Hf56      1.0  0.40401  0.89001  0.83449  1.0000
  Hf  Hf57      1.0  0.65795  0.39563  0.33150  1.0000
  Hf  Hf58      1.0  0.66431  0.39057  0.82400  1.0000
  Hf  Hf59      1.0  0.65982  0.89906  0.32757  1.0000
  Hf  Hf60      1.0  0.65753  0.89181  0.83191  1.0000
  Hf  Hf61      1.0  0.90886  0.38606  0.33448  1.0000
  Hf  Hf62      1.0  0.90665  0.39235  0.83223  1.0000
  Hf  Hf63      1.0  0.91076  0.88866  0.33100  1.0000
  Hf  Hf64      1.0  0.90771  0.89181  0.83598  1.0000
  Hf  Hf65      1.0  0.19360  0.30826  0.09112  1.0000
  Hf  Hf66      1.0  0.19006  0.30766  0.59438  1.0000
  Hf  Hf67      1.0  0.19722  0.81064  0.08817  1.0000
  Hf  Hf68      1.0  0.18975  0.80717  0.58949  1.0000
  Hf  Hf69      1.0  0.44675  0.31703  0.07898  1.0000
  Hf  Hf70      1.0  0.44416  0.31434  0.58863  1.0000
  Hf  Hf71      1.0  0.44285  0.81618  0.07955  1.0000
  Hf  Hf72      1.0  0.44685  0.81663  0.57681  1.0000
  Hf  Hf73      1.0  0.69067  0.30920  0.08757  1.0000
  Hf  Hf74      1.0  0.69635  0.32148  0.58155  1.0000
  Hf  Hf75      1.0  0.69228  0.81874  0.08416  1.0000
  Hf  Hf76      1.0  0.69498  0.82252  0.58040  1.0000
  Hf  Hf77      1.0  0.94415  0.32118  0.08102  1.0000
  Hf  Hf78      1.0  0.94402  0.31471  0.58502  1.0000
  Hf  Hf79      1.0  0.94687  0.82564  0.07609  1.0000
  Hf  Hf80      1.0  0.94528  0.81899  0.59252  1.0000
  Hf  Hf81      1.0  0.09173  0.10498  0.17166  1.0000
  Hf  Hf82      1.0  0.09206  0.10687  0.67545  1.0000
  Hf  Hf83      1.0  0.09394  0.61281  0.16250  1.0000
  Hf  Hf84      1.0  0.08990  0.60584  0.67152  1.0000
  Hf  Hf85      1.0  0.33968  0.11403  0.16739  1.0000
  Hf  Hf86      1.0  0.34002  0.11381  0.66822  1.0000
  Hf  Hf87      1.0  0.33610  0.60726  0.17104  1.0000
  Hf  Hf88      1.0  0.34553  0.60831  0.66339  1.0000
  Hf  Hf89      1.0  0.58973  0.11513  0.16671  1.0000
  Hf  Hf90      1.0  0.59095  0.11725  0.66131  1.0000
  Hf  Hf91      1.0  0.59234  0.61054  0.16302  1.0000
  Hf  Hf92      1.0  0.59125  0.61989  0.66541  1.0000
  Hf  Hf93      1.0  0.84271  0.11317  0.16805  1.0000
  Hf  Hf94      1.0  0.84090  0.11671  0.66406  1.0000
  Hf  Hf95      1.0  0.83855  0.61346  0.17015  1.0000
  Hf  Hf96      1.0  0.84213  0.61814  0.66152  1.0000
  F   F1        1.0  0.08242  0.14496  0.29077  1.0000
  F   F2        1.0  0.08664  0.14240  0.79076  1.0000
  F   F3        1.0  0.08059  0.63090  0.30367  1.0000
  F   F4        1.0  0.08015  0.62647  0.80000  1.0000
  F   F5        1.0  0.32097  0.10762  0.31235  1.0000
  F   F6        1.0  0.32804  0.13016  0.80524  1.0000
  F   F7        1.0  0.33069  0.61876  0.30347  1.0000
  F   F8        1.0  0.32935  0.61870  0.80615  1.0000
  F   F9        1.0  0.57834  0.11617  0.31179  1.0000
  F   F10       1.0  0.58146  0.12010  0.81104  1.0000
  F   F11       1.0  0.58182  0.64036  0.29339  1.0000
  F   F12       1.0  0.58419  0.63086  0.80980  1.0000
  F   F13       1.0  0.82337  0.12216  0.30756  1.0000
  F   F14       1.0  0.82575  0.12090  0.80754  1.0000
  F   F15       1.0  0.83244  0.63492  0.29938  1.0000
  F   F16       1.0  0.81943  0.61549  0.81135  1.0000
  F   F17       1.0  0.18714  0.34764  0.44327  1.0000
  F   F18       1.0  0.18861  0.32878  0.95070  1.0000
  F   F19       1.0  0.17686  0.81782  0.46458  1.0000
  F   F20       1.0  0.18055  0.84094  0.95951  1.0000
  F   F21       1.0  0.44242  0.33262  0.43821  1.0000
  F   F22       1.0  0.44223  0.34941  0.93807  1.0000
  F   F23       1.0  0.43572  0.84214  0.44443  1.0000
  F   F24       1.0  0.43400  0.83776  0.94112  1.0000
  F   F25       1.0  0.68305  0.35171  0.44327  1.0000
  F   F26       1.0  0.68471  0.33058  0.94886  1.0000
  F   F27       1.0  0.68505  0.85318  0.44496  1.0000
  F   F28       1.0  0.68117  0.84027  0.94840  1.0000
  F   F29       1.0  0.93609  0.33500  0.44896  1.0000
  F   F30       1.0  0.93209  0.34268  0.95148  1.0000
  F   F31       1.0  0.93719  0.84394  0.44614  1.0000
  F   F32       1.0  0.93159  0.84821  0.94934  1.0000
  F   F33       1.0  0.17164  0.37203  0.19427  1.0000
  F   F34       1.0  0.16746  0.36584  0.70435  1.0000
  F   F35       1.0  0.17723  0.87210  0.19777  1.0000
  F   F36       1.0  0.17231  0.85298  0.71000  1.0000
  F   F37       1.0  0.42463  0.36176  0.19445  1.0000
  F   F38       1.0  0.41476  0.36415  0.70679  1.0000
  F   F39       1.0  0.41921  0.85532  0.19826  1.0000
  F   F40       1.0  0.41570  0.85730  0.69801  1.0000
  F   F41       1.0  0.66766  0.36912  0.19064  1.0000
  F   F42       1.0  0.68740  0.39216  0.67797  1.0000
  F   F43       1.0  0.67929  0.90131  0.17117  1.0000
  F   F44       1.0  0.67152  0.88839  0.69037  1.0000
  F   F45       1.0  0.91053  0.33772  0.21624  1.0000
  F   F46       1.0  0.91561  0.36071  0.70317  1.0000
  F   F47       1.0  0.92600  0.87728  0.19114  1.0000
  F   F48       1.0  0.92411  0.87201  0.69970  1.0000
  F   F49       1.0  0.06061  0.15330  0.06552  1.0000
  F   F50       1.0  0.07573  0.16901  0.54276  1.0000
  F   F51       1.0  0.06817  0.65225  0.05293  1.0000
  F   F52       1.0  0.06470  0.65967  0.55217  1.0000
  F   F53       1.0  0.31632  0.16362  0.04531  1.0000
  F   F54       1.0  0.32174  0.17201  0.54423  1.0000
  F   F55       1.0  0.30184  0.65598  0.05775  1.0000
  F   F56       1.0  0.31253  0.64334  0.55649  1.0000
  F   F57       1.0  0.57398  0.16814  0.03383  1.0000
  F   F58       1.0  0.56466  0.16510  0.55206  1.0000
  F   F59       1.0  0.56164  0.66200  0.04794  1.0000
  F   F60       1.0  0.57068  0.66851  0.54555  1.0000
  F   F61       1.0  0.81168  0.15496  0.05559  1.0000
  F   F62       1.0  0.80953  0.15585  0.56280  1.0000
  F   F63       1.0  0.81028  0.65740  0.05318  1.0000
  F   F64       1.0  0.81191  0.65941  0.55475  1.0000
  F   F65       1.0  0.19712  0.20063  0.22848  1.0000
  F   F66       1.0  0.19872  0.18824  0.71252  1.0000
  F   F67       1.0  0.20618  0.68745  0.20324  1.0000
  F   F68       1.0  0.19838  0.69189  0.71932  1.0000
  F   F69       1.0  0.45891  0.20447  0.20307  1.0000
  F   F70       1.0  0.45950  0.19309  0.71655  1.0000
  F   F71       1.0  0.45749  0.68811  0.21625  1.0000
  F   F72       1.0  0.45774  0.69517  0.71011  1.0000
  F   F73       1.0  0.70450  0.20198  0.21029  1.0000
  F   F74       1.0  0.71011  0.20359  0.69748  1.0000
  F   F75       1.0  0.70161  0.71092  0.20852  1.0000
  F   F76       1.0  0.68682  0.69835  0.71694  1.0000
  F   F77       1.0  0.96527  0.20188  0.20977  1.0000
  F   F78       1.0  0.95485  0.19012  0.71273  1.0000
  F   F79       1.0  0.94911  0.71288  0.20475  1.0000
  F   F80       1.0  0.95910  0.70226  0.71365  1.0000
  F   F81       1.0  0.14863  0.08560  0.04188  1.0000
  F   F82       1.0  0.15547  0.07714  0.54606  1.0000
  F   F83       1.0  0.15057  0.58070  0.04159  1.0000
  F   F84       1.0  0.14887  0.60005  0.54457  1.0000
  F   F85       1.0  0.40082  0.08534  0.03596  1.0000
  F   F86       1.0  0.39710  0.08531  0.54076  1.0000
  F   F87       1.0  0.38979  0.59008  0.04287  1.0000
  F   F88       1.0  0.39989  0.59646  0.53753  1.0000
  F   F89       1.0  0.65239  0.10181  0.03116  1.0000
  F   F90       1.0  0.64560  0.09440  0.53282  1.0000
  F   F91       1.0  0.64828  0.58005  0.05377  1.0000
  F   F92       1.0  0.65456  0.59028  0.53069  1.0000
  F   F93       1.0  0.89504  0.09420  0.03518  1.0000
  F   F94       1.0  0.89752  0.10159  0.53527  1.0000
  F   F95       1.0  0.89230  0.59631  0.03001  1.0000
  F   F96       1.0  0.90138  0.60180  0.54202  1.0000
  F   F97       1.0  0.15439  0.18690  0.12957  1.0000
  F   F98       1.0  0.15319  0.19893  0.61295  1.0000
  F   F99       1.0  0.15224  0.68959  0.12301  1.0000
  F   F100      1.0  0.14899  0.68623  0.63795  1.0000
  F   F101      1.0  0.39485  0.20050  0.14091  1.0000
  F   F102      1.0  0.40252  0.20436  0.63172  1.0000
  F   F103      1.0  0.39743  0.70327  0.12980  1.0000
  F   F104      1.0  0.40804  0.68756  0.64019  1.0000
  F   F105      1.0  0.65234  0.19839  0.12177  1.0000
  F   F106      1.0  0.65268  0.19932  0.63056  1.0000
  F   F107      1.0  0.65158  0.70231  0.12410  1.0000
  F   F108      1.0  0.65329  0.70593  0.60468  1.0000
  F   F109      1.0  0.90120  0.17996  0.14195  1.0000
  F   F110      1.0  0.89947  0.20023  0.63026  1.0000
  F   F111      1.0  0.90208  0.68760  0.12512  1.0000
  F   F112      1.0  0.90345  0.69780  0.63905  1.0000
  F   F113      1.0  0.10448  0.30079  0.35433  1.0000
  F   F114      1.0  0.09695  0.29692  0.88451  1.0000
  F   F115      1.0  0.09244  0.78975  0.37103  1.0000
  F   F116      1.0  0.10103  0.79703  0.87392  1.0000
  F   F117      1.0  0.34591  0.31430  0.36414  1.0000
  F   F118      1.0  0.34706  0.31443  0.86141  1.0000
  F   F119      1.0  0.34306  0.79971  0.36281  1.0000
  F   F120      1.0  0.34442  0.80014  0.87629  1.0000
  F   F121      1.0  0.59758  0.32372  0.37965  1.0000
  F   F122      1.0  0.60478  0.30689  0.84831  1.0000
  F   F123      1.0  0.60687  0.81244  0.34277  1.0000
  F   F124      1.0  0.59594  0.79559  0.87261  1.0000
  F   F125      1.0  0.84725  0.30730  0.38927  1.0000
  F   F126      1.0  0.85243  0.29983  0.87288  1.0000
  F   F127      1.0  0.84890  0.79757  0.37026  1.0000
  F   F128      1.0  0.84757  0.80681  0.89179  1.0000
  F   F129      1.0  0.06724  0.25434  0.14171  1.0000
  F   F130      1.0  0.05590  0.24982  0.66158  1.0000
  F   F131      1.0  0.07102  0.74981  0.12682  1.0000
  F   F132      1.0  0.06378  0.74705  0.65107  1.0000
  F   F133      1.0  0.31847  0.25219  0.13258  1.0000
  F   F134      1.0  0.31978  0.25084  0.64566  1.0000
  F   F135      1.0  0.32356  0.75017  0.12843  1.0000
  F   F136      1.0  0.32489  0.75588  0.63126  1.0000
  F   F137      1.0  0.56167  0.25698  0.13618  1.0000
  F   F138      1.0  0.57402  0.25504  0.62883  1.0000
  F   F139      1.0  0.56808  0.75315  0.13066  1.0000
  F   F140      1.0  0.55964  0.75136  0.65414  1.0000
  F   F141      1.0  0.82018  0.25485  0.13027  1.0000
  F   F142      1.0  0.81580  0.25247  0.64071  1.0000
  F   F143      1.0  0.81441  0.75298  0.13802  1.0000
  F   F144      1.0  0.81774  0.75479  0.64203  1.0000
  F   F145      1.0  0.12179  0.36342  0.12810  1.0000
  F   F146      1.0  0.12162  0.35921  0.61514  1.0000
  F   F147      1.0  0.12786  0.85107  0.12562  1.0000
  F   F148      1.0  0.12538  0.87182  0.60592  1.0000
  F   F149      1.0  0.37517  0.38036  0.10264  1.0000
  F   F150      1.0  0.37721  0.37482  0.60195  1.0000
  F   F151      1.0  0.37764  0.88827  0.08533  1.0000
  F   F152      1.0  0.37520  0.88420  0.59370  1.0000
  F   F153      1.0  0.61895  0.36186  0.11915  1.0000
  F   F154      1.0  0.62835  0.37123  0.61667  1.0000
  F   F155      1.0  0.62478  0.88505  0.09485  1.0000
  F   F156      1.0  0.61948  0.87378  0.61463  1.0000
  F   F157      1.0  0.87105  0.38291  0.10388  1.0000
  F   F158      1.0  0.87930  0.38492  0.59481  1.0000
  F   F159      1.0  0.87651  0.85284  0.13060  1.0000
  F   F160      1.0  0.87815  0.88701  0.60285  1.0000
  F   F161      1.0  0.18761  0.24947  0.36008  1.0000
  F   F162      1.0  0.18919  0.24884  0.84831  1.0000
  F   F163      1.0  0.18103  0.73821  0.35392  1.0000
  F   F164      1.0  0.19063  0.73862  0.86819  1.0000
  F   F165      1.0  0.43305  0.24532  0.36125  1.0000
  F   F166      1.0  0.43131  0.24646  0.87488  1.0000
  F   F167      1.0  0.43605  0.75817  0.34499  1.0000
  F   F168      1.0  0.42619  0.74694  0.86568  1.0000
  F   F169      1.0  0.68693  0.26108  0.35139  1.0000
  F   F170      1.0  0.69313  0.25491  0.83745  1.0000
  F   F171      1.0  0.69102  0.76058  0.35156  1.0000
  F   F172      1.0  0.68528  0.74736  0.84264  1.0000
  F   F173      1.0  0.93451  0.25056  0.35984  1.0000
  F   F174      1.0  0.94226  0.25892  0.84507  1.0000
  F   F175      1.0  0.93184  0.74579  0.35855  1.0000
  F   F176      1.0  0.93654  0.75259  0.86225  1.0000
  F   F177      1.0  0.12576  0.10806  0.40691  1.0000
  F   F178      1.0  0.12880  0.13132  0.89160  1.0000
  F   F179      1.0  0.12235  0.60805  0.41684  1.0000
  F   F180      1.0  0.12619  0.63455  0.88500  1.0000
  F   F181      1.0  0.37268  0.14359  0.37553  1.0000
  F   F182      1.0  0.37834  0.13952  0.87917  1.0000
  F   F183      1.0  0.37717  0.63540  0.39459  1.0000
  F   F184      1.0  0.37180  0.61512  0.90110  1.0000
  F   F185      1.0  0.63081  0.16675  0.36684  1.0000
  F   F186      1.0  0.63168  0.13324  0.88322  1.0000
  F   F187      1.0  0.62415  0.63176  0.39731  1.0000
  F   F188      1.0  0.62856  0.61204  0.90713  1.0000
  F   F189      1.0  0.87395  0.14206  0.37745  1.0000
  F   F190      1.0  0.87723  0.14195  0.87574  1.0000
  F   F191      1.0  0.87868  0.61644  0.39752  1.0000
  F   F192      1.0  0.87184  0.64676  0.87584  1.0000
  F   F193      1.0  0.00798  0.36270  0.06998  1.0000
  F   F194      1.0  0.00558  0.36398  0.57060  1.0000
  F   F195      1.0  0.01208  0.85663  0.07838  1.0000
  F   F196      1.0  0.00888  0.86385  0.56706  1.0000
  F   F197      1.0  0.26042  0.35110  0.07882  1.0000
  F   F198      1.0  0.25693  0.35934  0.59376  1.0000
  F   F199      1.0  0.25773  0.85279  0.09303  1.0000
  F   F200      1.0  0.25753  0.85295  0.58362  1.0000
  F   F201      1.0  0.50863  0.37751  0.05143  1.0000
  F   F202      1.0  0.50551  0.35485  0.58430  1.0000
  F   F203      1.0  0.50769  0.85497  0.06843  1.0000
  F   F204      1.0  0.50566  0.86178  0.57128  1.0000
  F   F205      1.0  0.75393  0.34699  0.09852  1.0000
  F   F206      1.0  0.76415  0.35645  0.56836  1.0000
  F   F207      1.0  0.75884  0.86016  0.07586  1.0000
  F   F208      1.0  0.76034  0.85030  0.57335  1.0000
  F   F209      1.0  0.06855  0.47873  0.17647  1.0000
  F   F210      1.0  0.06477  0.48249  0.67587  1.0000
  F   F211      1.0  0.07554  0.97780  0.18229  1.0000
  F   F212      1.0  0.07705  0.98745  0.67141  1.0000
  F   F213      1.0  0.31920  0.48211  0.17769  1.0000
  F   F214      1.0  0.32072  0.47874  0.68660  1.0000
  F   F215      1.0  0.31514  0.97950  0.18850  1.0000
  F   F216      1.0  0.31852  0.97352  0.70302  1.0000
  F   F217      1.0  0.56874  0.49375  0.16504  1.0000
  F   F218      1.0  0.57365  0.49565  0.65839  1.0000
  F   F219      1.0  0.56756  0.00615  0.15760  1.0000
  F   F220      1.0  0.56525  0.99763  0.66912  1.0000
  F   F221      1.0  0.81764  0.48313  0.18239  1.0000
  F   F222      1.0  0.82478  0.48673  0.66736  1.0000
  F   F223      1.0  0.82063  0.98374  0.17470  1.0000
  F   F224      1.0  0.81746  0.98591  0.68034  1.0000
  F   F225      1.0  0.24524  0.13242  0.43184  1.0000
  F   F226      1.0  0.23742  0.13493  0.93401  1.0000
  F   F227      1.0  0.24149  0.63818  0.42959  1.0000
  F   F228      1.0  0.24652  0.62082  0.92904  1.0000
  F   F229      1.0  0.49524  0.11991  0.42663  1.0000
  F   F230      1.0  0.49297  0.13720  0.92372  1.0000
  F   F231      1.0  0.49699  0.64302  0.41378  1.0000
  F   F232      1.0  0.49135  0.64512  0.90868  1.0000
  F   F233      1.0  0.74226  0.13562  0.42889  1.0000
  F   F234      1.0  0.74559  0.14184  0.90667  1.0000
  F   F235      1.0  0.74456  0.64020  0.42094  1.0000
  F   F236      1.0  0.73701  0.64125  0.93245  1.0000
  F   F237      1.0  0.99465  0.13777  0.42583  1.0000
  F   F238      1.0  0.99597  0.13848  0.92649  1.0000
  F   F239      1.0  0.98974  0.63784  0.43191  1.0000
  F   F240      1.0  0.99156  0.64628  0.92299  1.0000
  F   F241      1.0  0.18460  0.00673  0.31957  1.0000
  F   F242      1.0  0.18782  0.00762  0.82756  1.0000
  F   F243      1.0  0.18706  0.51576  0.30738  1.0000
  F   F244      1.0  0.17661  0.51110  0.83339  1.0000
  F   F245      1.0  0.42460  0.02115  0.33492  1.0000
  F   F246      1.0  0.43273  0.01570  0.82767  1.0000
  F   F247      1.0  0.43279  0.51008  0.32837  1.0000
  F   F248      1.0  0.43454  0.51510  0.82003  1.0000
  F   F249      1.0  0.67339  0.02953  0.32571  1.0000
  F   F250      1.0  0.68014  0.01933  0.80932  1.0000
  F   F251      1.0  0.68280  0.52711  0.31596  1.0000
  F   F252      1.0  0.68163  0.51516  0.81861  1.0000
  F   F253      1.0  0.93377  0.01448  0.32899  1.0000
  F   F254      1.0  0.93031  0.00846  0.83893  1.0000
  F   F255      1.0  0.93352  0.50961  0.32673  1.0000
  F   F256      1.0  0.92173  0.51838  0.84121  1.0000
  F   F257      1.0  0.99900  0.25831  0.99292  1.0000
  F   F258      1.0  0.00048  0.24133  0.50751  1.0000
  F   F259      1.0  0.00213  0.74402  0.00352  1.0000
  F   F260      1.0  0.99744  0.74455  0.50663  1.0000
  F   F261      1.0  0.24658  0.23152  0.02068  1.0000
  F   F262      1.0  0.25282  0.25639  0.50703  1.0000
  F   F263      1.0  0.25028  0.76141  0.98624  1.0000
  F   F264      1.0  0.24503  0.74569  0.49819  1.0000
  F   F265      1.0  0.50042  0.24220  0.00062  1.0000
  F   F266      1.0  0.49703  0.23131  0.50454  1.0000
  F   F267      1.0  0.49411  0.75498  0.99356  1.0000
  F   F268      1.0  0.50488  0.74570  0.49992  1.0000
  F   F269      1.0  0.75200  0.26084  0.98697  1.0000
  F   F270      1.0  0.74742  0.25491  0.48941  1.0000
  F   F271      1.0  0.74488  0.75481  0.98965  1.0000
  F   F272      1.0  0.74573  0.74214  0.50539  1.0000
  F   F273      1.0  0.12694  0.00263  0.25395  1.0000
  F   F274      1.0  0.12768  0.00649  0.75490  1.0000
  F   F275      1.0  0.12525  0.50594  0.24840  1.0000
  F   F276      1.0  0.12834  0.49189  0.74086  1.0000
  F   F277      1.0  0.38336  0.00566  0.22420  1.0000
  F   F278      1.0  0.37992  0.01384  0.74296  1.0000
  F   F279      1.0  0.38268  0.50819  0.22495  1.0000
  F   F280      1.0  0.37207  0.49558  0.76324  1.0000
  F   F281      1.0  0.62645  0.01168  0.23734  1.0000
  F   F282      1.0  0.61617  0.99571  0.76350  1.0000
  F   F283      1.0  0.61662  0.50409  0.26828  1.0000
  F   F284      1.0  0.62752  0.50643  0.74193  1.0000
  F   F285      1.0  0.87499  0.99113  0.25676  1.0000
  F   F286      1.0  0.87525  0.99658  0.75234  1.0000
  F   F287      1.0  0.88397  0.50188  0.24123  1.0000
  F   F288      1.0  0.87969  0.50491  0.74349  1.0000
  F   F289      1.0  0.04987  0.02903  0.01902  1.0000
  F   F290      1.0  0.04199  0.03744  0.52823  1.0000
  F   F291      1.0  0.03810  0.52754  0.03063  1.0000
  F   F292      1.0  0.04071  0.52169  0.52651  1.0000
  F   F293      1.0  0.28838  0.03104  0.04091  1.0000
  F   F294      1.0  0.29320  0.03402  0.53061  1.0000
  F   F295      1.0  0.29682  0.52616  0.01852  1.0000
  F   F296      1.0  0.29797  0.52080  0.52109  1.0000
  F   F297      1.0  0.54028  0.04127  0.02491  1.0000
  F   F298      1.0  0.55332  0.02566  0.51673  1.0000
  F   F299      1.0  0.53917  0.52742  0.02002  1.0000
  F   F300      1.0  0.54441  0.54268  0.52426  1.0000
  F   F301      1.0  0.78736  0.03278  0.03253  1.0000
  F   F302      1.0  0.79492  0.03257  0.52429  1.0000
  F   F303      1.0  0.79061  0.52487  0.01676  1.0000
  F   F304      1.0  0.79030  0.53343  0.52894  1.0000
  F   F305      1.0  0.23775  0.41942  0.21202  1.0000
  F   F306      1.0  0.23064  0.42141  0.73361  1.0000
  F   F307      1.0  0.23565  0.89767  0.25115  1.0000
  F   F308      1.0  0.23331  0.89635  0.74131  1.0000
  F   F309      1.0  0.48226  0.40921  0.22451  1.0000
  F   F310      1.0  0.48372  0.42706  0.71215  1.0000
  F   F311      1.0  0.47475  0.93066  0.22155  1.0000
  F   F312      1.0  0.47624  0.91996  0.71885  1.0000
  F   F313      1.0  0.73180  0.42359  0.22352  1.0000
  F   F314      1.0  0.74132  0.41343  0.71869  1.0000
  F   F315      1.0  0.73267  0.94030  0.22350  1.0000
  F   F316      1.0  0.73977  0.90186  0.74417  1.0000
  F   F317      1.0  0.97777  0.40880  0.21905  1.0000
  F   F318      1.0  0.98239  0.42802  0.73099  1.0000
  F   F319      1.0  0.98585  0.92296  0.22147  1.0000
  F   F320      1.0  0.98603  0.91494  0.72975  1.0000
  F   F321      1.0  0.20525  0.46886  0.48723  1.0000
  F   F322      1.0  0.21392  0.46700  0.96319  1.0000
  F   F323      1.0  0.20698  0.96338  0.46739  1.0000
  F   F324      1.0  0.20588  0.97212  0.99138  1.0000
  F   F325      1.0  0.45200  0.47249  0.48382  1.0000
  F   F326      1.0  0.45131  0.47659  0.97873  1.0000
  F   F327      1.0  0.45765  0.97263  0.47368  1.0000
  F   F328      1.0  0.46048  0.96267  0.97345  1.0000
  F   F329      1.0  0.70941  0.46724  0.47046  1.0000
  F   F330      1.0  0.70633  0.46437  0.97415  1.0000
  F   F331      1.0  0.71168  0.97911  0.47114  1.0000
  F   F332      1.0  0.71184  0.96730  0.96270  1.0000
  F   F333      1.0  0.96178  0.46187  0.47402  1.0000
  F   F334      1.0  0.95212  0.46877  0.98771  1.0000
  F   F335      1.0  0.95520  0.97591  0.48584  1.0000
  F   F336      1.0  0.96523  0.96698  0.97848  1.0000
  F   F337      1.0  0.02004  0.07477  0.28488  1.0000
  F   F338      1.0  0.01804  0.07323  0.78603  1.0000
  F   F339      1.0  0.01498  0.58063  0.27583  1.0000
  F   F340      1.0  0.01049  0.57759  0.79069  1.0000
  F   F341      1.0  0.26045  0.08791  0.27155  1.0000
  F   F342      1.0  0.26786  0.09633  0.75803  1.0000
  F   F343      1.0  0.26327  0.58395  0.28259  1.0000
  F   F344      1.0  0.26907  0.59513  0.76041  1.0000
  F   F345      1.0  0.51419  0.09284  0.26215  1.0000
  F   F346      1.0  0.52048  0.09585  0.76345  1.0000
  F   F347      1.0  0.51931  0.58981  0.25569  1.0000
  F   F348      1.0  0.52118  0.58756  0.77106  1.0000
  F   F349      1.0  0.76390  0.08296  0.27196  1.0000
  F   F350      1.0  0.76687  0.08760  0.76152  1.0000
  F   F351      1.0  0.76449  0.58530  0.27714  1.0000
  F   F352      1.0  0.76453  0.59789  0.76620  1.0000
  F   F353      1.0  0.10357  0.39473  0.45517  1.0000
  F   F354      1.0  0.10688  0.40798  0.96390  1.0000
  F   F355      1.0  0.09806  0.89693  0.46863  1.0000
  F   F356      1.0  0.10333  0.90726  0.95432  1.0000
  F   F357      1.0  0.35019  0.40608  0.45853  1.0000
  F   F358      1.0  0.35259  0.39153  0.96087  1.0000
  F   F359      1.0  0.34972  0.90438  0.44624  1.0000
  F   F360      1.0  0.34482  0.91748  0.95399  1.0000
  F   F361      1.0  0.60168  0.42045  0.47151  1.0000
  F   F362      1.0  0.60067  0.39435  0.96124  1.0000
  F   F363      1.0  0.60110  0.90194  0.45388  1.0000
  F   F364      1.0  0.59845  0.90261  0.95411  1.0000
  F   F365      1.0  0.85146  0.42027  0.45773  1.0000
  F   F366      1.0  0.84577  0.40881  0.95675  1.0000
  F   F367      1.0  0.85501  0.90591  0.45561  1.0000
  F   F368      1.0  0.85093  0.92312  0.97079  1.0000
  F   F369      1.0  0.03848  0.29919  0.29760  1.0000
  F   F370      1.0  0.04273  0.30450  0.80004  1.0000
  F   F371      1.0  0.03780  0.79147  0.28631  1.0000
  F   F372      1.0  0.04880  0.80315  0.78628  1.0000
  F   F373      1.0  0.29242  0.28555  0.29073  1.0000
  F   F374      1.0  0.28952  0.29495  0.79183  1.0000
  F   F375      1.0  0.29937  0.78210  0.28753  1.0000
  F   F376      1.0  0.29545  0.79223  0.78508  1.0000
  F   F377      1.0  0.55008  0.28802  0.29931  1.0000
  F   F378      1.0  0.54566  0.29485  0.78739  1.0000
  F   F379      1.0  0.54691  0.80538  0.26257  1.0000
  F   F380      1.0  0.54009  0.81755  0.78697  1.0000
  F   F381      1.0  0.79772  0.29250  0.28440  1.0000
  F   F382      1.0  0.80550  0.29855  0.77873  1.0000
  F   F383      1.0  0.79067  0.80132  0.28549  1.0000
  F   F384      1.0  0.80229  0.79299  0.78923  1.0000
