data_image0
_chemical_formula_structural       Hf96F384
_chemical_formula_sum              "Hf96 F384"
_cell_length_a       31.0228
_cell_length_b       15.513
_cell_length_c       15.5049
_cell_angle_alpha    63.342
_cell_angle_beta     63.342
_cell_angle_gamma    80.1625

_space_group_name_H-M_alt    "P 1"
_space_group_IT_number       1

loop_
  _space_group_symop_operation_xyz
  'x, y, z'

loop_
  _atom_site_type_symbol
  _atom_site_label
  _atom_site_symmetry_multiplicity
  _atom_site_fract_x
  _atom_site_fract_y
  _atom_site_fract_z
  _atom_site_occupancy
  Hf  Hf1       1.0  0.19884  0.10983  0.36850  1.0000
  Hf  Hf2       1.0  0.19431  0.10932  0.87082  1.0000
  Hf  Hf3       1.0  0.19566  0.60856  0.37478  1.0000
  Hf  Hf4       1.0  0.19936  0.61930  0.86855  1.0000
  Hf  Hf5       1.0  0.44697  0.10388  0.37093  1.0000
  Hf  Hf6       1.0  0.44722  0.09893  0.87373  1.0000
  Hf  Hf7       1.0  0.44247  0.60656  0.37737  1.0000
  Hf  Hf8       1.0  0.44277  0.60334  0.87805  1.0000
  Hf  Hf9       1.0  0.69893  0.10267  0.37850  1.0000
  Hf  Hf10      1.0  0.69750  0.11082  0.87019  1.0000
  Hf  Hf11      1.0  0.69435  0.60425  0.38637  1.0000
  Hf  Hf12      1.0  0.69329  0.59705  0.87885  1.0000
  Hf  Hf13      1.0  0.94872  0.10698  0.37293  1.0000
  Hf  Hf14      1.0  0.94332  0.10840  0.87762  1.0000
  Hf  Hf15      1.0  0.94672  0.60654  0.38321  1.0000
  Hf  Hf16      1.0  0.94460  0.60463  0.88145  1.0000
  Hf  Hf17      1.0  0.05324  0.39668  0.12560  1.0000
  Hf  Hf18      1.0  0.05700  0.39975  0.61594  1.0000
  Hf  Hf19      1.0  0.05446  0.90440  0.11237  1.0000
  Hf  Hf20      1.0  0.05136  0.89766  0.63308  1.0000
  Hf  Hf21      1.0  0.30417  0.38718  0.12498  1.0000
  Hf  Hf22      1.0  0.30481  0.39940  0.61798  1.0000
  Hf  Hf23      1.0  0.29909  0.89107  0.12254  1.0000
  Hf  Hf24      1.0  0.30695  0.88656  0.61560  1.0000
  Hf  Hf25      1.0  0.55274  0.37810  0.13814  1.0000
  Hf  Hf26      1.0  0.55531  0.38966  0.62898  1.0000
  Hf  Hf27      1.0  0.55422  0.88203  0.13263  1.0000
  Hf  Hf28      1.0  0.55251  0.89635  0.62499  1.0000
  Hf  Hf29      1.0  0.80389  0.38706  0.12805  1.0000
  Hf  Hf30      1.0  0.80398  0.40053  0.62174  1.0000
  Hf  Hf31      1.0  0.80299  0.89366  0.12465  1.0000
  Hf  Hf32      1.0  0.80451  0.88586  0.63252  1.0000
  Hf  Hf33      1.0  0.05880  0.18534  0.41523  1.0000
  Hf  Hf34      1.0  0.05948  0.19000  0.90109  1.0000
  Hf  Hf35      1.0  0.05729  0.69392  0.40797  1.0000
  Hf  Hf36      1.0  0.05720  0.69025  0.90926  1.0000
  Hf  Hf37      1.0  0.30759  0.18251  0.41211  1.0000
  Hf  Hf38      1.0  0.30613  0.18599  0.90799  1.0000
  Hf  Hf39      1.0  0.30455  0.68235  0.41435  1.0000
  Hf  Hf40      1.0  0.30369  0.68451  0.91842  1.0000
  Hf  Hf41      1.0  0.55897  0.17915  0.42219  1.0000
  Hf  Hf42      1.0  0.55348  0.17324  0.92713  1.0000
  Hf  Hf43      1.0  0.55612  0.67523  0.41729  1.0000
  Hf  Hf44      1.0  0.55690  0.68284  0.91713  1.0000
  Hf  Hf45      1.0  0.80947  0.18503  0.41286  1.0000
  Hf  Hf46      1.0  0.80449  0.18646  0.91067  1.0000
  Hf  Hf47      1.0  0.80531  0.68401  0.41513  1.0000
  Hf  Hf48      1.0  0.80342  0.68243  0.92040  1.0000
  Hf  Hf49      1.0  0.16186  0.39337  0.32405  1.0000
  Hf  Hf50      1.0  0.16069  0.40158  0.82528  1.0000
  Hf  Hf51      1.0  0.15526  0.89211  0.33890  1.0000
  Hf  Hf52      1.0  0.16065  0.89694  0.82549  1.0000
  Hf  Hf53      1.0  0.40958  0.39159  0.32852  1.0000
  Hf  Hf54      1.0  0.40817  0.38211  0.84004  1.0000
  Hf  Hf55      1.0  0.40656  0.88855  0.32566  1.0000
  Hf  Hf56      1.0  0.40932  0.88351  0.83330  1.0000
  Hf  Hf57      1.0  0.66463  0.38116  0.32718  1.0000
  Hf  Hf58      1.0  0.65896  0.38758  0.82438  1.0000
  Hf  Hf59      1.0  0.65796  0.89166  0.33449  1.0000
  Hf  Hf60      1.0  0.65954  0.88518  0.83494  1.0000
  Hf  Hf61      1.0  0.90863  0.38511  0.34194  1.0000
  Hf  Hf62      1.0  0.91006  0.38642  0.82927  1.0000
  Hf  Hf63      1.0  0.90426  0.88746  0.34446  1.0000
  Hf  Hf64      1.0  0.90597  0.88392  0.84226  1.0000
  Hf  Hf65      1.0  0.19479  0.32622  0.07266  1.0000
  Hf  Hf66      1.0  0.19454  0.31136  0.58612  1.0000
  Hf  Hf67      1.0  0.19047  0.82401  0.07944  1.0000
  Hf  Hf68      1.0  0.19214  0.82197  0.58462  1.0000
  Hf  Hf69      1.0  0.44389  0.31925  0.08702  1.0000
  Hf  Hf70      1.0  0.44445  0.31923  0.58095  1.0000
  Hf  Hf71      1.0  0.44358  0.81659  0.08420  1.0000
  Hf  Hf72      1.0  0.44642  0.81587  0.57525  1.0000
  Hf  Hf73      1.0  0.69353  0.31672  0.08575  1.0000
  Hf  Hf74      1.0  0.69729  0.31044  0.58123  1.0000
  Hf  Hf75      1.0  0.69095  0.81124  0.09915  1.0000
  Hf  Hf76      1.0  0.69227  0.81222  0.58915  1.0000
  Hf  Hf77      1.0  0.94492  0.31813  0.08586  1.0000
  Hf  Hf78      1.0  0.94649  0.32233  0.58102  1.0000
  Hf  Hf79      1.0  0.94245  0.82051  0.09169  1.0000
  Hf  Hf80      1.0  0.94458  0.81898  0.58646  1.0000
  Hf  Hf81      1.0  0.09172  0.11770  0.16077  1.0000
  Hf  Hf82      1.0  0.09418  0.11339  0.66352  1.0000
  Hf  Hf83      1.0  0.09125  0.62253  0.16189  1.0000
  Hf  Hf84      1.0  0.09146  0.61211  0.67062  1.0000
  Hf  Hf85      1.0  0.34519  0.11272  0.15235  1.0000
  Hf  Hf86      1.0  0.34335  0.11301  0.65985  1.0000
  Hf  Hf87      1.0  0.33803  0.61177  0.16540  1.0000
  Hf  Hf88      1.0  0.34163  0.60854  0.67080  1.0000
  Hf  Hf89      1.0  0.59115  0.10589  0.17726  1.0000
  Hf  Hf90      1.0  0.59324  0.10756  0.67293  1.0000
  Hf  Hf91      1.0  0.58687  0.59759  0.17995  1.0000
  Hf  Hf92      1.0  0.58750  0.61387  0.66686  1.0000
  Hf  Hf93      1.0  0.84014  0.11152  0.16451  1.0000
  Hf  Hf94      1.0  0.84224  0.11046  0.66922  1.0000
  Hf  Hf95      1.0  0.84312  0.60587  0.16848  1.0000
  Hf  Hf96      1.0  0.83720  0.61053  0.67449  1.0000
  F   F1        1.0  0.08270  0.12711  0.30635  1.0000
  F   F2        1.0  0.08189  0.14064  0.78594  1.0000
  F   F3        1.0  0.08668  0.65416  0.28252  1.0000
  F   F4        1.0  0.08499  0.63863  0.79578  1.0000
  F   F5        1.0  0.32884  0.13572  0.29707  1.0000
  F   F6        1.0  0.33373  0.14565  0.78562  1.0000
  F   F7        1.0  0.32548  0.62706  0.30004  1.0000
  F   F8        1.0  0.32146  0.61663  0.81553  1.0000
  F   F9        1.0  0.58446  0.12128  0.31391  1.0000
  F   F10       1.0  0.58693  0.15753  0.78876  1.0000
  F   F11       1.0  0.57513  0.61892  0.31004  1.0000
  F   F12       1.0  0.57434  0.63103  0.80461  1.0000
  F   F13       1.0  0.83393  0.12998  0.30148  1.0000
  F   F14       1.0  0.82286  0.11897  0.81483  1.0000
  F   F15       1.0  0.84061  0.63851  0.28617  1.0000
  F   F16       1.0  0.82456  0.60753  0.81422  1.0000
  F   F17       1.0  0.19256  0.35142  0.43140  1.0000
  F   F18       1.0  0.19171  0.34447  0.93299  1.0000
  F   F19       1.0  0.19000  0.85947  0.43833  1.0000
  F   F20       1.0  0.18755  0.85101  0.94454  1.0000
  F   F21       1.0  0.43806  0.33895  0.43956  1.0000
  F   F22       1.0  0.43188  0.35130  0.95486  1.0000
  F   F23       1.0  0.43169  0.83743  0.44505  1.0000
  F   F24       1.0  0.42860  0.83418  0.95511  1.0000
  F   F25       1.0  0.69003  0.32964  0.45049  1.0000
  F   F26       1.0  0.68346  0.33547  0.95242  1.0000
  F   F27       1.0  0.68941  0.83748  0.43843  1.0000
  F   F28       1.0  0.68761  0.83943  0.94787  1.0000
  F   F29       1.0  0.93629  0.35397  0.44802  1.0000
  F   F30       1.0  0.93877  0.35287  0.93593  1.0000
  F   F31       1.0  0.93215  0.83750  0.45049  1.0000
  F   F32       1.0  0.92740  0.84030  0.96150  1.0000
  F   F33       1.0  0.17277  0.39475  0.18143  1.0000
  F   F34       1.0  0.17070  0.38339  0.69455  1.0000
  F   F35       1.0  0.17127  0.86513  0.20190  1.0000
  F   F36       1.0  0.16883  0.88686  0.69264  1.0000
  F   F37       1.0  0.41729  0.36246  0.20620  1.0000
  F   F38       1.0  0.42135  0.34921  0.70530  1.0000
  F   F39       1.0  0.41921  0.88525  0.18499  1.0000
  F   F40       1.0  0.41976  0.88032  0.67817  1.0000
  F   F41       1.0  0.67076  0.36994  0.19186  1.0000
  F   F42       1.0  0.67458  0.39148  0.67776  1.0000
  F   F43       1.0  0.66998  0.88906  0.18422  1.0000
  F   F44       1.0  0.66965  0.87724  0.69382  1.0000
  F   F45       1.0  0.92682  0.35507  0.20283  1.0000
  F   F46       1.0  0.92629  0.37484  0.68927  1.0000
  F   F47       1.0  0.92245  0.87704  0.19816  1.0000
  F   F48       1.0  0.91253  0.85967  0.70901  1.0000
  F   F49       1.0  0.07130  0.16422  0.04263  1.0000
  F   F50       1.0  0.06158  0.16493  0.55806  1.0000
  F   F51       1.0  0.06392  0.65857  0.04593  1.0000
  F   F52       1.0  0.06842  0.66886  0.54571  1.0000
  F   F53       1.0  0.31112  0.16522  0.05192  1.0000
  F   F54       1.0  0.32291  0.15508  0.54087  1.0000
  F   F55       1.0  0.30792  0.66637  0.05351  1.0000
  F   F56       1.0  0.32131  0.67863  0.53485  1.0000
  F   F57       1.0  0.56323  0.14953  0.05744  1.0000
  F   F58       1.0  0.56923  0.14432  0.56295  1.0000
  F   F59       1.0  0.56142  0.64888  0.06509  1.0000
  F   F60       1.0  0.56412  0.65055  0.55667  1.0000
  F   F61       1.0  0.82365  0.17840  0.03908  1.0000
  F   F62       1.0  0.81217  0.15027  0.56500  1.0000
  F   F63       1.0  0.82068  0.65991  0.04025  1.0000
  F   F64       1.0  0.81477  0.67059  0.54618  1.0000
  F   F65       1.0  0.20265  0.20795  0.22012  1.0000
  F   F66       1.0  0.20471  0.20634  0.70961  1.0000
  F   F67       1.0  0.20685  0.69635  0.20049  1.0000
  F   F68       1.0  0.20865  0.71349  0.70387  1.0000
  F   F69       1.0  0.45058  0.19522  0.21777  1.0000
  F   F70       1.0  0.45081  0.18789  0.72920  1.0000
  F   F71       1.0  0.45105  0.69937  0.21358  1.0000
  F   F72       1.0  0.45418  0.70523  0.70608  1.0000
  F   F73       1.0  0.70282  0.20831  0.21418  1.0000
  F   F74       1.0  0.69867  0.19828  0.71220  1.0000
  F   F75       1.0  0.70484  0.69808  0.21915  1.0000
  F   F76       1.0  0.70321  0.69777  0.71204  1.0000
  F   F77       1.0  0.95841  0.20066  0.22247  1.0000
  F   F78       1.0  0.95561  0.21721  0.71691  1.0000
  F   F79       1.0  0.95756  0.71217  0.21281  1.0000
  F   F80       1.0  0.95777  0.70690  0.72421  1.0000
  F   F81       1.0  0.15078  0.08381  0.03145  1.0000
  F   F82       1.0  0.14492  0.08249  0.54523  1.0000
  F   F83       1.0  0.14460  0.58846  0.04363  1.0000
  F   F84       1.0  0.15394  0.58829  0.55495  1.0000
  F   F85       1.0  0.39673  0.07441  0.03955  1.0000
  F   F86       1.0  0.40592  0.08918  0.52613  1.0000
  F   F87       1.0  0.39370  0.60265  0.02673  1.0000
  F   F88       1.0  0.39562  0.56962  0.54367  1.0000
  F   F89       1.0  0.64847  0.09234  0.05293  1.0000
  F   F90       1.0  0.65625  0.07838  0.55915  1.0000
  F   F91       1.0  0.64057  0.57971  0.04064  1.0000
  F   F92       1.0  0.64619  0.58614  0.54584  1.0000
  F   F93       1.0  0.89908  0.08911  0.03432  1.0000
  F   F94       1.0  0.89920  0.10285  0.53785  1.0000
  F   F95       1.0  0.89887  0.57638  0.04129  1.0000
  F   F96       1.0  0.89988  0.58716  0.54775  1.0000
  F   F97       1.0  0.15661  0.19561  0.11389  1.0000
  F   F98       1.0  0.15575  0.18542  0.62446  1.0000
  F   F99       1.0  0.15479  0.69530  0.11648  1.0000
  F   F100      1.0  0.15126  0.71459  0.61031  1.0000
  F   F101      1.0  0.40711  0.19201  0.11031  1.0000
  F   F102      1.0  0.40412  0.19422  0.61919  1.0000
  F   F103      1.0  0.39543  0.69657  0.12590  1.0000
  F   F104      1.0  0.40012  0.68815  0.61896  1.0000
  F   F105      1.0  0.64554  0.20550  0.13246  1.0000
  F   F106      1.0  0.65337  0.19126  0.63214  1.0000
  F   F107      1.0  0.64833  0.69873  0.13645  1.0000
  F   F108      1.0  0.65068  0.68064  0.63205  1.0000
  F   F109      1.0  0.90370  0.18957  0.12671  1.0000
  F   F110      1.0  0.90193  0.19623  0.64520  1.0000
  F   F111      1.0  0.90612  0.69554  0.11631  1.0000
  F   F112      1.0  0.89840  0.69818  0.63111  1.0000
  F   F113      1.0  0.10412  0.29900  0.35638  1.0000
  F   F114      1.0  0.08950  0.31535  0.86845  1.0000
  F   F115      1.0  0.09796  0.81552  0.36251  1.0000
  F   F116      1.0  0.09949  0.81444  0.88509  1.0000
  F   F117      1.0  0.34613  0.31227  0.36851  1.0000
  F   F118      1.0  0.34892  0.29962  0.87940  1.0000
  F   F119      1.0  0.34247  0.81593  0.35281  1.0000
  F   F120      1.0  0.35332  0.79265  0.88407  1.0000
  F   F121      1.0  0.60185  0.30248  0.37486  1.0000
  F   F122      1.0  0.59878  0.29595  0.85671  1.0000
  F   F123      1.0  0.60057  0.79439  0.38490  1.0000
  F   F124      1.0  0.59708  0.79607  0.88600  1.0000
  F   F125      1.0  0.85083  0.29023  0.38569  1.0000
  F   F126      1.0  0.85323  0.31524  0.85957  1.0000
  F   F127      1.0  0.84541  0.80544  0.36385  1.0000
  F   F128      1.0  0.84192  0.81685  0.89382  1.0000
  F   F129      1.0  0.06723  0.25667  0.13985  1.0000
  F   F130      1.0  0.08536  0.26150  0.60900  1.0000
  F   F131      1.0  0.05940  0.75977  0.14074  1.0000
  F   F132      1.0  0.06162  0.75921  0.64728  1.0000
  F   F133      1.0  0.31608  0.24824  0.14253  1.0000
  F   F134      1.0  0.31789  0.24804  0.62886  1.0000
  F   F135      1.0  0.31549  0.75434  0.13858  1.0000
  F   F136      1.0  0.30818  0.74203  0.65468  1.0000
  F   F137      1.0  0.56430  0.24493  0.14951  1.0000
  F   F138      1.0  0.55791  0.24081  0.64901  1.0000
  F   F139      1.0  0.56419  0.73547  0.15399  1.0000
  F   F140      1.0  0.56424  0.75319  0.63186  1.0000
  F   F141      1.0  0.81378  0.25074  0.15568  1.0000
  F   F142      1.0  0.81560  0.25205  0.64191  1.0000
  F   F143      1.0  0.81518  0.75204  0.14035  1.0000
  F   F144      1.0  0.80288  0.74973  0.66351  1.0000
  F   F145      1.0  0.12415  0.36657  0.11720  1.0000
  F   F146      1.0  0.12730  0.37435  0.60733  1.0000
  F   F147      1.0  0.12165  0.85926  0.12013  1.0000
  F   F148      1.0  0.12192  0.87476  0.61099  1.0000
  F   F149      1.0  0.37401  0.36019  0.12231  1.0000
  F   F150      1.0  0.37189  0.38849  0.60471  1.0000
  F   F151      1.0  0.37465  0.87783  0.09535  1.0000
  F   F152      1.0  0.37553  0.85177  0.60615  1.0000
  F   F153      1.0  0.62235  0.38266  0.10241  1.0000
  F   F154      1.0  0.62483  0.36245  0.61358  1.0000
  F   F155      1.0  0.62304  0.86682  0.11588  1.0000
  F   F156      1.0  0.62741  0.86422  0.60676  1.0000
  F   F157      1.0  0.87532  0.36902  0.11719  1.0000
  F   F158      1.0  0.87777  0.38529  0.59832  1.0000
  F   F159      1.0  0.87162  0.86034  0.12329  1.0000
  F   F160      1.0  0.87652  0.86976  0.60612  1.0000
  F   F161      1.0  0.18190  0.25547  0.36542  1.0000
  F   F162      1.0  0.17348  0.25250  0.85981  1.0000
  F   F163      1.0  0.17813  0.75641  0.37671  1.0000
  F   F164      1.0  0.18809  0.75657  0.85447  1.0000
  F   F165      1.0  0.43197  0.24418  0.36073  1.0000
  F   F166      1.0  0.42961  0.24300  0.87216  1.0000
  F   F167      1.0  0.43270  0.74890  0.34988  1.0000
  F   F168      1.0  0.43830  0.74425  0.85968  1.0000
  F   F169      1.0  0.68475  0.24632  0.36004  1.0000
  F   F170      1.0  0.68728  0.25195  0.84415  1.0000
  F   F171      1.0  0.68711  0.74583  0.35496  1.0000
  F   F172      1.0  0.68065  0.74458  0.86691  1.0000
  F   F173      1.0  0.93566  0.24878  0.37184  1.0000
  F   F174      1.0  0.93469  0.25257  0.86127  1.0000
  F   F175      1.0  0.93147  0.74409  0.36677  1.0000
  F   F176      1.0  0.93015  0.74016  0.88332  1.0000
  F   F177      1.0  0.12677  0.13095  0.39169  1.0000
  F   F178      1.0  0.12433  0.13383  0.88161  1.0000
  F   F179      1.0  0.12371  0.62985  0.39301  1.0000
  F   F180      1.0  0.13327  0.65995  0.86140  1.0000
  F   F181      1.0  0.37668  0.12637  0.39083  1.0000
  F   F182      1.0  0.37305  0.13150  0.89746  1.0000
  F   F183      1.0  0.37295  0.63530  0.38650  1.0000
  F   F184      1.0  0.37550  0.63265  0.87307  1.0000
  F   F185      1.0  0.62734  0.13447  0.40285  1.0000
  F   F186      1.0  0.62412  0.10910  0.91117  1.0000
  F   F187      1.0  0.62196  0.61941  0.39067  1.0000
  F   F188      1.0  0.62224  0.62379  0.88524  1.0000
  F   F189      1.0  0.87860  0.12067  0.39977  1.0000
  F   F190      1.0  0.87214  0.13486  0.88447  1.0000
  F   F191      1.0  0.87164  0.63660  0.39894  1.0000
  F   F192      1.0  0.87678  0.64434  0.87693  1.0000
  F   F193      1.0  0.00989  0.36485  0.07434  1.0000
  F   F194      1.0  0.01620  0.36132  0.56699  1.0000
  F   F195      1.0  0.01201  0.87903  0.05287  1.0000
  F   F196      1.0  0.99982  0.87631  0.57776  1.0000
  F   F197      1.0  0.25957  0.36226  0.07109  1.0000
  F   F198      1.0  0.25815  0.36840  0.57376  1.0000
  F   F199      1.0  0.25924  0.87843  0.05298  1.0000
  F   F200      1.0  0.25807  0.86461  0.57382  1.0000
  F   F201      1.0  0.51139  0.35511  0.07440  1.0000
  F   F202      1.0  0.50862  0.35831  0.58010  1.0000
  F   F203      1.0  0.50625  0.85593  0.08567  1.0000
  F   F204      1.0  0.51102  0.87379  0.55963  1.0000
  F   F205      1.0  0.75398  0.35220  0.09104  1.0000
  F   F206      1.0  0.76294  0.34722  0.57448  1.0000
  F   F207      1.0  0.76102  0.86113  0.06925  1.0000
  F   F208      1.0  0.75519  0.86409  0.57241  1.0000
  F   F209      1.0  0.06513  0.49084  0.17393  1.0000
  F   F210      1.0  0.06828  0.49724  0.66440  1.0000
  F   F211      1.0  0.07400  0.99839  0.15452  1.0000
  F   F212      1.0  0.06336  0.98564  0.68609  1.0000
  F   F213      1.0  0.32428  0.48528  0.17005  1.0000
  F   F214      1.0  0.31614  0.49010  0.68203  1.0000
  F   F215      1.0  0.31807  0.97647  0.17512  1.0000
  F   F216      1.0  0.32186  0.97782  0.66289  1.0000
  F   F217      1.0  0.55628  0.47848  0.20989  1.0000
  F   F218      1.0  0.56497  0.47629  0.68141  1.0000
  F   F219      1.0  0.56796  0.97761  0.18400  1.0000
  F   F220      1.0  0.56326  0.96689  0.69309  1.0000
  F   F221      1.0  0.81226  0.48378  0.18943  1.0000
  F   F222      1.0  0.81814  0.48443  0.68420  1.0000
  F   F223      1.0  0.81438  0.98603  0.17108  1.0000
  F   F224      1.0  0.82068  0.98258  0.68191  1.0000
  F   F225      1.0  0.24584  0.13518  0.41675  1.0000
  F   F226      1.0  0.24077  0.15383  0.90626  1.0000
  F   F227      1.0  0.23879  0.63637  0.43345  1.0000
  F   F228      1.0  0.23807  0.64360  0.93448  1.0000
  F   F229      1.0  0.49948  0.13737  0.42667  1.0000
  F   F230      1.0  0.48980  0.13733  0.92995  1.0000
  F   F231      1.0  0.49035  0.64525  0.42966  1.0000
  F   F232      1.0  0.49079  0.62458  0.95036  1.0000
  F   F233      1.0  0.74654  0.13462  0.41376  1.0000
  F   F234      1.0  0.73615  0.14442  0.92647  1.0000
  F   F235      1.0  0.74135  0.63658  0.43132  1.0000
  F   F236      1.0  0.73492  0.64217  0.92780  1.0000
  F   F237      1.0  0.99596  0.12957  0.41677  1.0000
  F   F238      1.0  0.99237  0.14368  0.92859  1.0000
  F   F239      1.0  0.99555  0.64131  0.42360  1.0000
  F   F240      1.0  0.99520  0.63575  0.93043  1.0000
  F   F241      1.0  0.17866  0.02587  0.30793  1.0000
  F   F242      1.0  0.18977  0.02025  0.79927  1.0000
  F   F243      1.0  0.18075  0.52526  0.32236  1.0000
  F   F244      1.0  0.18341  0.52823  0.81995  1.0000
  F   F245      1.0  0.43224  0.01329  0.32136  1.0000
  F   F246      1.0  0.43118  0.00373  0.83736  1.0000
  F   F247      1.0  0.42546  0.52360  0.33104  1.0000
  F   F248      1.0  0.42730  0.51373  0.82603  1.0000
  F   F249      1.0  0.67730  0.01734  0.33458  1.0000
  F   F250      1.0  0.68787  0.01549  0.79616  1.0000
  F   F251      1.0  0.68637  0.51046  0.32888  1.0000
  F   F252      1.0  0.67973  0.51237  0.81846  1.0000
  F   F253      1.0  0.93015  0.01333  0.31106  1.0000
  F   F254      1.0  0.93191  0.02420  0.81650  1.0000
  F   F255      1.0  0.92946  0.52204  0.32310  1.0000
  F   F256      1.0  0.92743  0.50898  0.83912  1.0000
  F   F257      1.0  0.99883  0.25056  0.00825  1.0000
  F   F258      1.0  0.99410  0.23557  0.50922  1.0000
  F   F259      1.0  0.00045  0.75415  0.00256  1.0000
  F   F260      1.0  0.00388  0.76393  0.49871  1.0000
  F   F261      1.0  0.25285  0.25750  0.98886  1.0000
  F   F262      1.0  0.24945  0.23846  0.51280  1.0000
  F   F263      1.0  0.24617  0.75444  0.99785  1.0000
  F   F264      1.0  0.25239  0.74562  0.50872  1.0000
  F   F265      1.0  0.49629  0.25235  0.00790  1.0000
  F   F266      1.0  0.50254  0.24544  0.50960  1.0000
  F   F267      1.0  0.49824  0.75236  0.00438  1.0000
  F   F268      1.0  0.49977  0.73669  0.51208  1.0000
  F   F269      1.0  0.75426  0.26078  0.99387  1.0000
  F   F270      1.0  0.74738  0.23849  0.50042  1.0000
  F   F271      1.0  0.74832  0.73155  0.01220  1.0000
  F   F272      1.0  0.74771  0.75138  0.50272  1.0000
  F   F273      1.0  0.12520  0.00509  0.23824  1.0000
  F   F274      1.0  0.11677  0.00337  0.76258  1.0000
  F   F275      1.0  0.11003  0.49725  0.26978  1.0000
  F   F276      1.0  0.12166  0.50306  0.75783  1.0000
  F   F277      1.0  0.36926  0.00564  0.25420  1.0000
  F   F278      1.0  0.37670  0.99968  0.74741  1.0000
  F   F279      1.0  0.37836  0.49818  0.24141  1.0000
  F   F280      1.0  0.38028  0.49773  0.74629  1.0000
  F   F281      1.0  0.62888  0.00587  0.24958  1.0000
  F   F282      1.0  0.61234  0.98924  0.77646  1.0000
  F   F283      1.0  0.62560  0.48984  0.26101  1.0000
  F   F284      1.0  0.61338  0.48947  0.75962  1.0000
  F   F285      1.0  0.86192  0.99359  0.26238  1.0000
  F   F286      1.0  0.87560  0.99727  0.75615  1.0000
  F   F287      1.0  0.87373  0.48590  0.25925  1.0000
  F   F288      1.0  0.87341  0.50169  0.75415  1.0000
  F   F289      1.0  0.03935  0.03994  0.01066  1.0000
  F   F290      1.0  0.05043  0.03036  0.52304  1.0000
  F   F291      1.0  0.04492  0.53079  0.01635  1.0000
  F   F292      1.0  0.05344  0.53199  0.50278  1.0000
  F   F293      1.0  0.28673  0.04066  0.02184  1.0000
  F   F294      1.0  0.29282  0.02729  0.52412  1.0000
  F   F295      1.0  0.29573  0.53102  0.02615  1.0000
  F   F296      1.0  0.29361  0.54100  0.52610  1.0000
  F   F297      1.0  0.54232  0.03086  0.01802  1.0000
  F   F298      1.0  0.54364  0.03048  0.53116  1.0000
  F   F299      1.0  0.54851  0.52092  0.03508  1.0000
  F   F300      1.0  0.53845  0.51960  0.53263  1.0000
  F   F301      1.0  0.78671  0.04629  0.03061  1.0000
  F   F302      1.0  0.79303  0.03112  0.51594  1.0000
  F   F303      1.0  0.78956  0.52736  0.02184  1.0000
  F   F304      1.0  0.79560  0.53460  0.52104  1.0000
  F   F305      1.0  0.23457  0.42440  0.22024  1.0000
  F   F306      1.0  0.23220  0.42163  0.72139  1.0000
  F   F307      1.0  0.23385  0.91800  0.22485  1.0000
  F   F308      1.0  0.24058  0.90124  0.72469  1.0000
  F   F309      1.0  0.47957  0.40941  0.23066  1.0000
  F   F310      1.0  0.47956  0.40949  0.73551  1.0000
  F   F311      1.0  0.48544  0.90656  0.22957  1.0000
  F   F312      1.0  0.48268  0.91607  0.71883  1.0000
  F   F313      1.0  0.73668  0.42021  0.21731  1.0000
  F   F314      1.0  0.73924  0.41694  0.72012  1.0000
  F   F315      1.0  0.73148  0.91090  0.22965  1.0000
  F   F316      1.0  0.73901  0.88330  0.74430  1.0000
  F   F317      1.0  0.98245  0.42246  0.22729  1.0000
  F   F318      1.0  0.98743  0.43315  0.70608  1.0000
  F   F319      1.0  0.98621  0.90034  0.23862  1.0000
  F   F320      1.0  0.98027  0.90730  0.73013  1.0000
  F   F321      1.0  0.20464  0.47252  0.47298  1.0000
  F   F322      1.0  0.20634  0.46966  0.96749  1.0000
  F   F323      1.0  0.20944  0.98360  0.46916  1.0000
  F   F324      1.0  0.21126  0.97816  0.96730  1.0000
  F   F325      1.0  0.45326  0.46108  0.48411  1.0000
  F   F326      1.0  0.45467  0.46975  0.98480  1.0000
  F   F327      1.0  0.45933  0.96455  0.46834  1.0000
  F   F328      1.0  0.46699  0.96388  0.97478  1.0000
  F   F329      1.0  0.71383  0.46677  0.47422  1.0000
  F   F330      1.0  0.70958  0.47158  0.97327  1.0000
  F   F331      1.0  0.71201  0.96576  0.47487  1.0000
  F   F332      1.0  0.70775  0.96864  0.96333  1.0000
  F   F333      1.0  0.95879  0.47292  0.48425  1.0000
  F   F334      1.0  0.96119  0.46257  0.97648  1.0000
  F   F335      1.0  0.95533  0.97170  0.46887  1.0000
  F   F336      1.0  0.95704  0.97201  0.96932  1.0000
  F   F337      1.0  0.02262  0.06712  0.27769  1.0000
  F   F338      1.0  0.01449  0.08375  0.78627  1.0000
  F   F339      1.0  0.01650  0.59714  0.27554  1.0000
  F   F340      1.0  0.01896  0.58618  0.77064  1.0000
  F   F341      1.0  0.26858  0.08377  0.27100  1.0000
  F   F342      1.0  0.27108  0.07992  0.76593  1.0000
  F   F343      1.0  0.26286  0.58672  0.27366  1.0000
  F   F344      1.0  0.26111  0.58786  0.77997  1.0000
  F   F345      1.0  0.51616  0.08303  0.27002  1.0000
  F   F346      1.0  0.52067  0.07478  0.78881  1.0000
  F   F347      1.0  0.51056  0.59089  0.27937  1.0000
  F   F348      1.0  0.51704  0.58229  0.77487  1.0000
  F   F349      1.0  0.76809  0.08395  0.26759  1.0000
  F   F350      1.0  0.76686  0.08564  0.76115  1.0000
  F   F351      1.0  0.76920  0.58999  0.27516  1.0000
  F   F352      1.0  0.76037  0.58427  0.77190  1.0000
  F   F353      1.0  0.10366  0.40152  0.44856  1.0000
  F   F354      1.0  0.10476  0.40307  0.97116  1.0000
  F   F355      1.0  0.09627  0.91026  0.45350  1.0000
  F   F356      1.0  0.11197  0.93313  0.95675  1.0000
  F   F357      1.0  0.34998  0.41305  0.45967  1.0000
  F   F358      1.0  0.35021  0.40909  0.96084  1.0000
  F   F359      1.0  0.34903  0.89747  0.45871  1.0000
  F   F360      1.0  0.35014  0.91787  0.94987  1.0000
  F   F361      1.0  0.60887  0.38750  0.46494  1.0000
  F   F362      1.0  0.60344  0.38766  0.95720  1.0000
  F   F363      1.0  0.60260  0.90669  0.46335  1.0000
  F   F364      1.0  0.59976  0.89807  0.97790  1.0000
  F   F365      1.0  0.84883  0.38248  0.46998  1.0000
  F   F366      1.0  0.84971  0.40419  0.96433  1.0000
  F   F367      1.0  0.84756  0.89285  0.48023  1.0000
  F   F368      1.0  0.85391  0.92874  0.96534  1.0000
  F   F369      1.0  0.03939  0.29725  0.30241  1.0000
  F   F370      1.0  0.04345  0.30691  0.77467  1.0000
  F   F371      1.0  0.04705  0.80038  0.28632  1.0000
  F   F372      1.0  0.04430  0.80143  0.79044  1.0000
  F   F373      1.0  0.28846  0.30448  0.29497  1.0000
  F   F374      1.0  0.29770  0.31126  0.77638  1.0000
  F   F375      1.0  0.29133  0.79396  0.28701  1.0000
  F   F376      1.0  0.30276  0.79602  0.78272  1.0000
  F   F377      1.0  0.54340  0.29552  0.29779  1.0000
  F   F378      1.0  0.53766  0.29067  0.79618  1.0000
  F   F379      1.0  0.55520  0.79459  0.28810  1.0000
  F   F380      1.0  0.54910  0.79122  0.78192  1.0000
  F   F381      1.0  0.79847  0.30465  0.29480  1.0000
  F   F382      1.0  0.78955  0.29538  0.79437  1.0000
  F   F383      1.0  0.79059  0.78561  0.29344  1.0000
  F   F384      1.0  0.80567  0.79590  0.78765  1.0000
