data_image0
_chemical_formula_structural       Hf96F384
_chemical_formula_sum              "Hf96 F384"
_cell_length_a       31.0135
_cell_length_b       15.5073
_cell_length_c       15.5011
_cell_angle_alpha    63.342
_cell_angle_beta     63.342
_cell_angle_gamma    80.1625

_space_group_name_H-M_alt    "P 1"
_space_group_IT_number       1

loop_
  _space_group_symop_operation_xyz
  'x, y, z'

loop_
  _atom_site_type_symbol
  _atom_site_label
  _atom_site_symmetry_multiplicity
  _atom_site_fract_x
  _atom_site_fract_y
  _atom_site_fract_z
  _atom_site_occupancy
  Hf  Hf1       1.0  0.18956  0.10970  0.38767  1.0000
  Hf  Hf2       1.0  0.19534  0.10489  0.88062  1.0000
  Hf  Hf3       1.0  0.19483  0.61078  0.37538  1.0000
  Hf  Hf4       1.0  0.19793  0.60120  0.88134  1.0000
  Hf  Hf5       1.0  0.44687  0.10585  0.38424  1.0000
  Hf  Hf6       1.0  0.44484  0.10590  0.88115  1.0000
  Hf  Hf7       1.0  0.45115  0.60601  0.37222  1.0000
  Hf  Hf8       1.0  0.44869  0.61188  0.86864  1.0000
  Hf  Hf9       1.0  0.69527  0.10520  0.36725  1.0000
  Hf  Hf10      1.0  0.69568  0.11213  0.87708  1.0000
  Hf  Hf11      1.0  0.69722  0.60684  0.37559  1.0000
  Hf  Hf12      1.0  0.69674  0.61043  0.87531  1.0000
  Hf  Hf13      1.0  0.94343  0.10549  0.38121  1.0000
  Hf  Hf14      1.0  0.94704  0.11135  0.86944  1.0000
  Hf  Hf15      1.0  0.94634  0.61179  0.37132  1.0000
  Hf  Hf16      1.0  0.94528  0.59760  0.88172  1.0000
  Hf  Hf17      1.0  0.04895  0.39125  0.12287  1.0000
  Hf  Hf18      1.0  0.05524  0.39627  0.61785  1.0000
  Hf  Hf19      1.0  0.05147  0.89462  0.12265  1.0000
  Hf  Hf20      1.0  0.05285  0.89152  0.63074  1.0000
  Hf  Hf21      1.0  0.30595  0.39200  0.12590  1.0000
  Hf  Hf22      1.0  0.30164  0.39566  0.61831  1.0000
  Hf  Hf23      1.0  0.30115  0.89224  0.12967  1.0000
  Hf  Hf24      1.0  0.30479  0.88349  0.63276  1.0000
  Hf  Hf25      1.0  0.55616  0.39477  0.12602  1.0000
  Hf  Hf26      1.0  0.55524  0.38481  0.62875  1.0000
  Hf  Hf27      1.0  0.55365  0.88823  0.12984  1.0000
  Hf  Hf28      1.0  0.55467  0.88941  0.62184  1.0000
  Hf  Hf29      1.0  0.80192  0.38680  0.12478  1.0000
  Hf  Hf30      1.0  0.79982  0.39000  0.62807  1.0000
  Hf  Hf31      1.0  0.80606  0.89855  0.11726  1.0000
  Hf  Hf32      1.0  0.80372  0.88708  0.62544  1.0000
  Hf  Hf33      1.0  0.05301  0.17468  0.42689  1.0000
  Hf  Hf34      1.0  0.05457  0.19295  0.91713  1.0000
  Hf  Hf35      1.0  0.05656  0.68859  0.41029  1.0000
  Hf  Hf36      1.0  0.05721  0.68544  0.91339  1.0000
  Hf  Hf37      1.0  0.30862  0.17797  0.41857  1.0000
  Hf  Hf38      1.0  0.30405  0.18264  0.92064  1.0000
  Hf  Hf39      1.0  0.30485  0.68792  0.41175  1.0000
  Hf  Hf40      1.0  0.30789  0.67652  0.91860  1.0000
  Hf  Hf41      1.0  0.55501  0.18448  0.42026  1.0000
  Hf  Hf42      1.0  0.56002  0.17783  0.91695  1.0000
  Hf  Hf43      1.0  0.55418  0.67887  0.42273  1.0000
  Hf  Hf44      1.0  0.55793  0.69147  0.91357  1.0000
  Hf  Hf45      1.0  0.80449  0.18194  0.41618  1.0000
  Hf  Hf46      1.0  0.80513  0.18448  0.91867  1.0000
  Hf  Hf47      1.0  0.80631  0.68481  0.41755  1.0000
  Hf  Hf48      1.0  0.80717  0.67870  0.91920  1.0000
  Hf  Hf49      1.0  0.15742  0.38670  0.33269  1.0000
  Hf  Hf50      1.0  0.16039  0.39034  0.82869  1.0000
  Hf  Hf51      1.0  0.15338  0.89406  0.33939  1.0000
  Hf  Hf52      1.0  0.16027  0.88794  0.83122  1.0000
  Hf  Hf53      1.0  0.41036  0.38685  0.33255  1.0000
  Hf  Hf54      1.0  0.40978  0.38666  0.83582  1.0000
  Hf  Hf55      1.0  0.40701  0.88886  0.33840  1.0000
  Hf  Hf56      1.0  0.40789  0.89029  0.83125  1.0000
  Hf  Hf57      1.0  0.66049  0.37494  0.33596  1.0000
  Hf  Hf58      1.0  0.66094  0.38829  0.82969  1.0000
  Hf  Hf59      1.0  0.65916  0.88242  0.33232  1.0000
  Hf  Hf60      1.0  0.65870  0.89197  0.83270  1.0000
  Hf  Hf61      1.0  0.90458  0.39069  0.33183  1.0000
  Hf  Hf62      1.0  0.90797  0.38608  0.83338  1.0000
  Hf  Hf63      1.0  0.91167  0.88558  0.33006  1.0000
  Hf  Hf64      1.0  0.90804  0.88879  0.82871  1.0000
  Hf  Hf65      1.0  0.19520  0.31930  0.07978  1.0000
  Hf  Hf66      1.0  0.18961  0.31840  0.58895  1.0000
  Hf  Hf67      1.0  0.19554  0.82373  0.08046  1.0000
  Hf  Hf68      1.0  0.19491  0.81454  0.58938  1.0000
  Hf  Hf69      1.0  0.44675  0.31409  0.08290  1.0000
  Hf  Hf70      1.0  0.44171  0.31216  0.59260  1.0000
  Hf  Hf71      1.0  0.44121  0.81915  0.08738  1.0000
  Hf  Hf72      1.0  0.44588  0.81895  0.57968  1.0000
  Hf  Hf73      1.0  0.69322  0.31949  0.07604  1.0000
  Hf  Hf74      1.0  0.69296  0.31844  0.58363  1.0000
  Hf  Hf75      1.0  0.69765  0.82169  0.06558  1.0000
  Hf  Hf76      1.0  0.69341  0.82006  0.57961  1.0000
  Hf  Hf77      1.0  0.94122  0.31531  0.09019  1.0000
  Hf  Hf78      1.0  0.94642  0.31837  0.57411  1.0000
  Hf  Hf79      1.0  0.94522  0.81908  0.07964  1.0000
  Hf  Hf80      1.0  0.94404  0.81518  0.58628  1.0000
  Hf  Hf81      1.0  0.08948  0.11089  0.17168  1.0000
  Hf  Hf82      1.0  0.08532  0.11537  0.67901  1.0000
  Hf  Hf83      1.0  0.08917  0.61434  0.16480  1.0000
  Hf  Hf84      1.0  0.09221  0.60844  0.66901  1.0000
  Hf  Hf85      1.0  0.34247  0.10806  0.16536  1.0000
  Hf  Hf86      1.0  0.34355  0.11411  0.66980  1.0000
  Hf  Hf87      1.0  0.34121  0.61113  0.16807  1.0000
  Hf  Hf88      1.0  0.34560  0.61026  0.66209  1.0000
  Hf  Hf89      1.0  0.59089  0.11521  0.17030  1.0000
  Hf  Hf90      1.0  0.59454  0.10949  0.66169  1.0000
  Hf  Hf91      1.0  0.59620  0.60692  0.16573  1.0000
  Hf  Hf92      1.0  0.59339  0.61095  0.66877  1.0000
  Hf  Hf93      1.0  0.84071  0.10837  0.17280  1.0000
  Hf  Hf94      1.0  0.84073  0.11755  0.66393  1.0000
  Hf  Hf95      1.0  0.84148  0.61361  0.16666  1.0000
  Hf  Hf96      1.0  0.83829  0.61071  0.66794  1.0000
  F   F1        1.0  0.07874  0.10927  0.31789  1.0000
  F   F2        1.0  0.07502  0.13575  0.80521  1.0000
  F   F3        1.0  0.07724  0.63165  0.30370  1.0000
  F   F4        1.0  0.08591  0.63647  0.80030  1.0000
  F   F5        1.0  0.32539  0.11245  0.31649  1.0000
  F   F6        1.0  0.32521  0.12267  0.81249  1.0000
  F   F7        1.0  0.32977  0.64194  0.29820  1.0000
  F   F8        1.0  0.33250  0.61862  0.80553  1.0000
  F   F9        1.0  0.58118  0.12293  0.30454  1.0000
  F   F10       1.0  0.57896  0.11772  0.80601  1.0000
  F   F11       1.0  0.58515  0.63539  0.29099  1.0000
  F   F12       1.0  0.57671  0.62532  0.80989  1.0000
  F   F13       1.0  0.83177  0.13766  0.29555  1.0000
  F   F14       1.0  0.82209  0.13549  0.80670  1.0000
  F   F15       1.0  0.83028  0.63093  0.30418  1.0000
  F   F16       1.0  0.83220  0.61942  0.80779  1.0000
  F   F17       1.0  0.18448  0.33514  0.44718  1.0000
  F   F18       1.0  0.19134  0.33856  0.93635  1.0000
  F   F19       1.0  0.17969  0.84720  0.44947  1.0000
  F   F20       1.0  0.18380  0.84277  0.94465  1.0000
  F   F21       1.0  0.43626  0.33751  0.44511  1.0000
  F   F22       1.0  0.44215  0.34693  0.94377  1.0000
  F   F23       1.0  0.43974  0.83717  0.44478  1.0000
  F   F24       1.0  0.43030  0.82727  0.96022  1.0000
  F   F25       1.0  0.68184  0.34484  0.44429  1.0000
  F   F26       1.0  0.69210  0.34324  0.93553  1.0000
  F   F27       1.0  0.68788  0.84646  0.44006  1.0000
  F   F28       1.0  0.68605  0.84144  0.94242  1.0000
  F   F29       1.0  0.94282  0.35135  0.43254  1.0000
  F   F30       1.0  0.93597  0.34422  0.94247  1.0000
  F   F31       1.0  0.94237  0.85285  0.43508  1.0000
  F   F32       1.0  0.92926  0.82794  0.96080  1.0000
  F   F33       1.0  0.17169  0.37661  0.19694  1.0000
  F   F34       1.0  0.16032  0.36014  0.69974  1.0000
  F   F35       1.0  0.16883  0.86807  0.19400  1.0000
  F   F36       1.0  0.17626  0.87361  0.69475  1.0000
  F   F37       1.0  0.42252  0.37570  0.19388  1.0000
  F   F38       1.0  0.42142  0.36750  0.70233  1.0000
  F   F39       1.0  0.41350  0.84479  0.22142  1.0000
  F   F40       1.0  0.41467  0.85887  0.70319  1.0000
  F   F41       1.0  0.66656  0.34650  0.20357  1.0000
  F   F42       1.0  0.67127  0.37012  0.69097  1.0000
  F   F43       1.0  0.66666  0.86671  0.19368  1.0000
  F   F44       1.0  0.66791  0.86870  0.69166  1.0000
  F   F45       1.0  0.91799  0.37225  0.19342  1.0000
  F   F46       1.0  0.92189  0.38086  0.68534  1.0000
  F   F47       1.0  0.92367  0.87248  0.19152  1.0000
  F   F48       1.0  0.91531  0.86865  0.70156  1.0000
  F   F49       1.0  0.06483  0.16256  0.05407  1.0000
  F   F50       1.0  0.06052  0.15409  0.55707  1.0000
  F   F51       1.0  0.06939  0.67992  0.03917  1.0000
  F   F52       1.0  0.06436  0.65620  0.56534  1.0000
  F   F53       1.0  0.31375  0.16092  0.05369  1.0000
  F   F54       1.0  0.31929  0.14887  0.55385  1.0000
  F   F55       1.0  0.32014  0.64577  0.05378  1.0000
  F   F56       1.0  0.30883  0.66181  0.55319  1.0000
  F   F57       1.0  0.57240  0.17364  0.04211  1.0000
  F   F58       1.0  0.56532  0.15410  0.55470  1.0000
  F   F59       1.0  0.56373  0.65566  0.05654  1.0000
  F   F60       1.0  0.56445  0.65460  0.55991  1.0000
  F   F61       1.0  0.81142  0.15682  0.06301  1.0000
  F   F62       1.0  0.81393  0.15153  0.55227  1.0000
  F   F63       1.0  0.80951  0.64947  0.06788  1.0000
  F   F64       1.0  0.81062  0.65921  0.55370  1.0000
  F   F65       1.0  0.19179  0.20956  0.21619  1.0000
  F   F66       1.0  0.20285  0.20117  0.70057  1.0000
  F   F67       1.0  0.20954  0.70854  0.20154  1.0000
  F   F68       1.0  0.20244  0.69324  0.72024  1.0000
  F   F69       1.0  0.44413  0.20447  0.21409  1.0000
  F   F70       1.0  0.45331  0.20474  0.71791  1.0000
  F   F71       1.0  0.46359  0.69960  0.20736  1.0000
  F   F72       1.0  0.44773  0.70373  0.71737  1.0000
  F   F73       1.0  0.70106  0.20112  0.20010  1.0000
  F   F74       1.0  0.70720  0.20941  0.70063  1.0000
  F   F75       1.0  0.70848  0.70129  0.19475  1.0000
  F   F76       1.0  0.70667  0.68841  0.72312  1.0000
  F   F77       1.0  0.94345  0.20161  0.22158  1.0000
  F   F78       1.0  0.95768  0.21038  0.70622  1.0000
  F   F79       1.0  0.95606  0.70397  0.21008  1.0000
  F   F80       1.0  0.95117  0.68572  0.71083  1.0000
  F   F81       1.0  0.15193  0.09587  0.04124  1.0000
  F   F82       1.0  0.14452  0.11311  0.54200  1.0000
  F   F83       1.0  0.14793  0.59385  0.04237  1.0000
  F   F84       1.0  0.14967  0.58800  0.52733  1.0000
  F   F85       1.0  0.39589  0.08330  0.04281  1.0000
  F   F86       1.0  0.40898  0.09882  0.53559  1.0000
  F   F87       1.0  0.40244  0.60869  0.03472  1.0000
  F   F88       1.0  0.40001  0.59681  0.52840  1.0000
  F   F89       1.0  0.65114  0.09315  0.03396  1.0000
  F   F90       1.0  0.65172  0.09638  0.52035  1.0000
  F   F91       1.0  0.65549  0.59237  0.03759  1.0000
  F   F92       1.0  0.64463  0.60009  0.53081  1.0000
  F   F93       1.0  0.89677  0.09154  0.03792  1.0000
  F   F94       1.0  0.89731  0.08758  0.55108  1.0000
  F   F95       1.0  0.89600  0.59939  0.03695  1.0000
  F   F96       1.0  0.89543  0.59766  0.53723  1.0000
  F   F97       1.0  0.14565  0.19498  0.12940  1.0000
  F   F98       1.0  0.14523  0.20886  0.63387  1.0000
  F   F99       1.0  0.15093  0.69487  0.13314  1.0000
  F   F100      1.0  0.15230  0.70108  0.62015  1.0000
  F   F101      1.0  0.40178  0.18476  0.12052  1.0000
  F   F102      1.0  0.40087  0.20161  0.63165  1.0000
  F   F103      1.0  0.40076  0.69693  0.14437  1.0000
  F   F104      1.0  0.40271  0.69414  0.61985  1.0000
  F   F105      1.0  0.65137  0.20672  0.10896  1.0000
  F   F106      1.0  0.64915  0.20165  0.60855  1.0000
  F   F107      1.0  0.65759  0.70435  0.11225  1.0000
  F   F108      1.0  0.65223  0.71033  0.61675  1.0000
  F   F109      1.0  0.90384  0.20311  0.11755  1.0000
  F   F110      1.0  0.89807  0.20461  0.62844  1.0000
  F   F111      1.0  0.90030  0.69635  0.13114  1.0000
  F   F112      1.0  0.89933  0.70682  0.62603  1.0000
  F   F113      1.0  0.09945  0.29850  0.37685  1.0000
  F   F114      1.0  0.09198  0.31532  0.88269  1.0000
  F   F115      1.0  0.09541  0.80268  0.38419  1.0000
  F   F116      1.0  0.10425  0.80402  0.85758  1.0000
  F   F117      1.0  0.35498  0.29150  0.37551  1.0000
  F   F118      1.0  0.34326  0.31143  0.87457  1.0000
  F   F119      1.0  0.34580  0.79829  0.38002  1.0000
  F   F120      1.0  0.34880  0.79664  0.86585  1.0000
  F   F121      1.0  0.59975  0.30089  0.38870  1.0000
  F   F122      1.0  0.60092  0.30446  0.86812  1.0000
  F   F123      1.0  0.59181  0.80150  0.37542  1.0000
  F   F124      1.0  0.60049  0.80777  0.86937  1.0000
  F   F125      1.0  0.84187  0.30602  0.36675  1.0000
  F   F126      1.0  0.84575  0.32063  0.86441  1.0000
  F   F127      1.0  0.85146  0.79895  0.36640  1.0000
  F   F128      1.0  0.85401  0.78941  0.87742  1.0000
  F   F129      1.0  0.05709  0.24583  0.15374  1.0000
  F   F130      1.0  0.06251  0.25341  0.63941  1.0000
  F   F131      1.0  0.05358  0.75412  0.15204  1.0000
  F   F132      1.0  0.06981  0.74981  0.63644  1.0000
  F   F133      1.0  0.31775  0.25191  0.14367  1.0000
  F   F134      1.0  0.31198  0.25012  0.64038  1.0000
  F   F135      1.0  0.31732  0.75359  0.14141  1.0000
  F   F136      1.0  0.32245  0.75335  0.62920  1.0000
  F   F137      1.0  0.56441  0.25700  0.14793  1.0000
  F   F138      1.0  0.55769  0.24364  0.65843  1.0000
  F   F139      1.0  0.57194  0.75114  0.13264  1.0000
  F   F140      1.0  0.56328  0.74519  0.65282  1.0000
  F   F141      1.0  0.81568  0.24990  0.13079  1.0000
  F   F142      1.0  0.81422  0.25371  0.63449  1.0000
  F   F143      1.0  0.82527  0.76076  0.12236  1.0000
  F   F144      1.0  0.81207  0.74309  0.65606  1.0000
  F   F145      1.0  0.12453  0.37189  0.11132  1.0000
  F   F146      1.0  0.12271  0.38172  0.59472  1.0000
  F   F147      1.0  0.12314  0.86233  0.10198  1.0000
  F   F148      1.0  0.12600  0.86446  0.62054  1.0000
  F   F149      1.0  0.37862  0.36669  0.10816  1.0000
  F   F150      1.0  0.37368  0.36641  0.61202  1.0000
  F   F151      1.0  0.37570  0.88206  0.10169  1.0000
  F   F152      1.0  0.37556  0.87729  0.59926  1.0000
  F   F153      1.0  0.62821  0.38423  0.09112  1.0000
  F   F154      1.0  0.62478  0.35644  0.61831  1.0000
  F   F155      1.0  0.62723  0.89344  0.08262  1.0000
  F   F156      1.0  0.62524  0.88597  0.59242  1.0000
  F   F157      1.0  0.87672  0.38341  0.09665  1.0000
  F   F158      1.0  0.87357  0.36059  0.60709  1.0000
  F   F159      1.0  0.88266  0.90099  0.08174  1.0000
  F   F160      1.0  0.87982  0.87928  0.58328  1.0000
  F   F161      1.0  0.18952  0.25994  0.34420  1.0000
  F   F162      1.0  0.18873  0.25035  0.84913  1.0000
  F   F163      1.0  0.18094  0.75034  0.36025  1.0000
  F   F164      1.0  0.18864  0.73828  0.87126  1.0000
  F   F165      1.0  0.44334  0.25150  0.34735  1.0000
  F   F166      1.0  0.42787  0.24691  0.87913  1.0000
  F   F167      1.0  0.43379  0.74787  0.36400  1.0000
  F   F168      1.0  0.43798  0.74191  0.85829  1.0000
  F   F169      1.0  0.69479  0.24552  0.34237  1.0000
  F   F170      1.0  0.68747  0.24588  0.85698  1.0000
  F   F171      1.0  0.68913  0.75098  0.35038  1.0000
  F   F172      1.0  0.68388  0.75730  0.85811  1.0000
  F   F173      1.0  0.92995  0.25662  0.35971  1.0000
  F   F174      1.0  0.93470  0.24941  0.86010  1.0000
  F   F175      1.0  0.93466  0.74716  0.36084  1.0000
  F   F176      1.0  0.94081  0.75512  0.84764  1.0000
  F   F177      1.0  0.12287  0.11932  0.40571  1.0000
  F   F178      1.0  0.12525  0.13016  0.89059  1.0000
  F   F179      1.0  0.12824  0.63752  0.37060  1.0000
  F   F180      1.0  0.12737  0.60796  0.91146  1.0000
  F   F181      1.0  0.37848  0.11926  0.39752  1.0000
  F   F182      1.0  0.37176  0.13833  0.89779  1.0000
  F   F183      1.0  0.37810  0.63853  0.37903  1.0000
  F   F184      1.0  0.37596  0.62293  0.89493  1.0000
  F   F185      1.0  0.62539  0.14994  0.38418  1.0000
  F   F186      1.0  0.62687  0.12792  0.88739  1.0000
  F   F187      1.0  0.62812  0.64499  0.37741  1.0000
  F   F188      1.0  0.62569  0.63823  0.88977  1.0000
  F   F189      1.0  0.87149  0.11912  0.40906  1.0000
  F   F190      1.0  0.87742  0.13268  0.87798  1.0000
  F   F191      1.0  0.87742  0.63094  0.39207  1.0000
  F   F192      1.0  0.87274  0.61906  0.90037  1.0000
  F   F193      1.0  0.00794  0.35620  0.07303  1.0000
  F   F194      1.0  0.00981  0.37973  0.54987  1.0000
  F   F195      1.0  0.00591  0.87643  0.06632  1.0000
  F   F196      1.0  0.00417  0.85009  0.59221  1.0000
  F   F197      1.0  0.25738  0.35918  0.08033  1.0000
  F   F198      1.0  0.25595  0.36521  0.56780  1.0000
  F   F199      1.0  0.26168  0.88442  0.05628  1.0000
  F   F200      1.0  0.25803  0.86337  0.58035  1.0000
  F   F201      1.0  0.50868  0.35727  0.07418  1.0000
  F   F202      1.0  0.50788  0.35327  0.57383  1.0000
  F   F203      1.0  0.50678  0.85892  0.07637  1.0000
  F   F204      1.0  0.50999  0.85279  0.57313  1.0000
  F   F205      1.0  0.75588  0.37126  0.07076  1.0000
  F   F206      1.0  0.75556  0.37131  0.56450  1.0000
  F   F207      1.0  0.75552  0.86961  0.07889  1.0000
  F   F208      1.0  0.75196  0.85980  0.58439  1.0000
  F   F209      1.0  0.06569  0.49325  0.16772  1.0000
  F   F210      1.0  0.06619  0.48174  0.68234  1.0000
  F   F211      1.0  0.07482  0.98223  0.16282  1.0000
  F   F212      1.0  0.06897  0.98572  0.67402  1.0000
  F   F213      1.0  0.32912  0.48224  0.17015  1.0000
  F   F214      1.0  0.31360  0.49149  0.66417  1.0000
  F   F215      1.0  0.31305  0.98004  0.18476  1.0000
  F   F216      1.0  0.31853  0.98930  0.68307  1.0000
  F   F217      1.0  0.57195  0.48336  0.17761  1.0000
  F   F218      1.0  0.56504  0.48656  0.68323  1.0000
  F   F219      1.0  0.57088  0.98754  0.17675  1.0000
  F   F220      1.0  0.57346  0.97783  0.68434  1.0000
  F   F221      1.0  0.81946  0.47868  0.17919  1.0000
  F   F222      1.0  0.81893  0.49099  0.66283  1.0000
  F   F223      1.0  0.81771  0.99187  0.17717  1.0000
  F   F224      1.0  0.81519  0.97903  0.66924  1.0000
  F   F225      1.0  0.23864  0.13646  0.43435  1.0000
  F   F226      1.0  0.23855  0.13600  0.93947  1.0000
  F   F227      1.0  0.24111  0.64870  0.41740  1.0000
  F   F228      1.0  0.24490  0.62691  0.93533  1.0000
  F   F229      1.0  0.49588  0.13604  0.42870  1.0000
  F   F230      1.0  0.48947  0.13523  0.92674  1.0000
  F   F231      1.0  0.48993  0.64970  0.42059  1.0000
  F   F232      1.0  0.49830  0.64292  0.92009  1.0000
  F   F233      1.0  0.74673  0.13132  0.43012  1.0000
  F   F234      1.0  0.73772  0.12855  0.94980  1.0000
  F   F235      1.0  0.74262  0.63875  0.43226  1.0000
  F   F236      1.0  0.74243  0.64619  0.90878  1.0000
  F   F237      1.0  0.99089  0.14128  0.41411  1.0000
  F   F238      1.0  0.99186  0.14670  0.92198  1.0000
  F   F239      1.0  0.99283  0.63132  0.43202  1.0000
  F   F240      1.0  0.99346  0.65108  0.91639  1.0000
  F   F241      1.0  0.18008  0.01830  0.32289  1.0000
  F   F242      1.0  0.17954  0.02144  0.82021  1.0000
  F   F243      1.0  0.17918  0.51828  0.32228  1.0000
  F   F244      1.0  0.18696  0.51809  0.80860  1.0000
  F   F245      1.0  0.43144  0.01374  0.33347  1.0000
  F   F246      1.0  0.42849  0.01330  0.83553  1.0000
  F   F247      1.0  0.43363  0.51200  0.31957  1.0000
  F   F248      1.0  0.42934  0.51885  0.81332  1.0000
  F   F249      1.0  0.67474  0.01256  0.32864  1.0000
  F   F250      1.0  0.68622  0.01881  0.82073  1.0000
  F   F251      1.0  0.68406  0.51940  0.32533  1.0000
  F   F252      1.0  0.67956  0.51389  0.81794  1.0000
  F   F253      1.0  0.93172  0.01771  0.32622  1.0000
  F   F254      1.0  0.92806  0.02092  0.81153  1.0000
  F   F255      1.0  0.93023  0.51569  0.31674  1.0000
  F   F256      1.0  0.93750  0.51366  0.81653  1.0000
  F   F257      1.0  0.99778  0.26085  0.99667  1.0000
  F   F258      1.0  0.99230  0.22606  0.51597  1.0000
  F   F259      1.0  0.00473  0.76380  0.98504  1.0000
  F   F260      1.0  0.00218  0.74590  0.50523  1.0000
  F   F261      1.0  0.24782  0.24265  0.01357  1.0000
  F   F262      1.0  0.25775  0.26000  0.48722  1.0000
  F   F263      1.0  0.25508  0.76713  0.99070  1.0000
  F   F264      1.0  0.25056  0.76476  0.49583  1.0000
  F   F265      1.0  0.49775  0.22857  0.01517  1.0000
  F   F266      1.0  0.49637  0.25083  0.50728  1.0000
  F   F267      1.0  0.49712  0.75287  0.99596  1.0000
  F   F268      1.0  0.49786  0.73888  0.51747  1.0000
  F   F269      1.0  0.74992  0.25174  0.99944  1.0000
  F   F270      1.0  0.74880  0.25470  0.49042  1.0000
  F   F271      1.0  0.75511  0.76728  0.98143  1.0000
  F   F272      1.0  0.75220  0.75371  0.49940  1.0000
  F   F273      1.0  0.12649  0.99590  0.24405  1.0000
  F   F274      1.0  0.12035  0.99944  0.75670  1.0000
  F   F275      1.0  0.11850  0.50229  0.24855  1.0000
  F   F276      1.0  0.12649  0.50160  0.74837  1.0000
  F   F277      1.0  0.38020  0.00175  0.23923  1.0000
  F   F278      1.0  0.38050  0.01084  0.74666  1.0000
  F   F279      1.0  0.36526  0.49358  0.27964  1.0000
  F   F280      1.0  0.37148  0.48896  0.74671  1.0000
  F   F281      1.0  0.62701  0.99946  0.24734  1.0000
  F   F282      1.0  0.63419  0.00439  0.73661  1.0000
  F   F283      1.0  0.63483  0.49469  0.24370  1.0000
  F   F284      1.0  0.62707  0.50028  0.74809  1.0000
  F   F285      1.0  0.88448  0.00427  0.22922  1.0000
  F   F286      1.0  0.86732  0.99878  0.75514  1.0000
  F   F287      1.0  0.87934  0.50559  0.24530  1.0000
  F   F288      1.0  0.87603  0.49978  0.74979  1.0000
  F   F289      1.0  0.04380  0.03746  0.02665  1.0000
  F   F290      1.0  0.03570  0.03196  0.52541  1.0000
  F   F291      1.0  0.04824  0.53593  0.00680  1.0000
  F   F292      1.0  0.04420  0.54295  0.52621  1.0000
  F   F293      1.0  0.29834  0.03584  0.02001  1.0000
  F   F294      1.0  0.29578  0.02180  0.52691  1.0000
  F   F295      1.0  0.30126  0.53019  0.01898  1.0000
  F   F296      1.0  0.28660  0.53305  0.52210  1.0000
  F   F297      1.0  0.54364  0.02804  0.02544  1.0000
  F   F298      1.0  0.54922  0.02627  0.51776  1.0000
  F   F299      1.0  0.55197  0.52338  0.01529  1.0000
  F   F300      1.0  0.54330  0.52846  0.52313  1.0000
  F   F301      1.0  0.79312  0.03461  0.02362  1.0000
  F   F302      1.0  0.80093  0.01979  0.50489  1.0000
  F   F303      1.0  0.78656  0.53751  0.03383  1.0000
  F   F304      1.0  0.79730  0.52502  0.51770  1.0000
  F   F305      1.0  0.24227  0.41943  0.22653  1.0000
  F   F306      1.0  0.22949  0.41182  0.71544  1.0000
  F   F307      1.0  0.23088  0.92102  0.21455  1.0000
  F   F308      1.0  0.23498  0.91965  0.73667  1.0000
  F   F309      1.0  0.48975  0.40826  0.23122  1.0000
  F   F310      1.0  0.48737  0.40072  0.73595  1.0000
  F   F311      1.0  0.48364  0.91634  0.22397  1.0000
  F   F312      1.0  0.48349  0.91260  0.72968  1.0000
  F   F313      1.0  0.73020  0.41547  0.23061  1.0000
  F   F314      1.0  0.73124  0.42449  0.71383  1.0000
  F   F315      1.0  0.73071  0.92589  0.21458  1.0000
  F   F316      1.0  0.73254  0.92404  0.72704  1.0000
  F   F317      1.0  0.98343  0.41888  0.21160  1.0000
  F   F318      1.0  0.98540  0.40800  0.72131  1.0000
  F   F319      1.0  0.98444  0.92249  0.22511  1.0000
  F   F320      1.0  0.98482  0.91330  0.72735  1.0000
  F   F321      1.0  0.20647  0.46947  0.47457  1.0000
  F   F322      1.0  0.21109  0.45979  0.97768  1.0000
  F   F323      1.0  0.20210  0.97150  0.49206  1.0000
  F   F324      1.0  0.20489  0.96828  0.97775  1.0000
  F   F325      1.0  0.45798  0.46934  0.48715  1.0000
  F   F326      1.0  0.45276  0.48113  0.98111  1.0000
  F   F327      1.0  0.46101  0.96361  0.48925  1.0000
  F   F328      1.0  0.45544  0.96912  0.98274  1.0000
  F   F329      1.0  0.70148  0.47637  0.48460  1.0000
  F   F330      1.0  0.70941  0.46722  0.96745  1.0000
  F   F331      1.0  0.71127  0.96758  0.47017  1.0000
  F   F332      1.0  0.70927  0.96720  0.96761  1.0000
  F   F333      1.0  0.94948  0.48406  0.47377  1.0000
  F   F334      1.0  0.95725  0.46561  0.97939  1.0000
  F   F335      1.0  0.95747  0.97816  0.47862  1.0000
  F   F336      1.0  0.96126  0.97247  0.96185  1.0000
  F   F337      1.0  0.01300  0.08463  0.26674  1.0000
  F   F338      1.0  0.01358  0.09358  0.76586  1.0000
  F   F339      1.0  0.01783  0.56877  0.27875  1.0000
  F   F340      1.0  0.01888  0.58324  0.78332  1.0000
  F   F341      1.0  0.25970  0.09489  0.27948  1.0000
  F   F342      1.0  0.26396  0.08349  0.78260  1.0000
  F   F343      1.0  0.27147  0.58185  0.26575  1.0000
  F   F344      1.0  0.26391  0.59326  0.76874  1.0000
  F   F345      1.0  0.51515  0.08270  0.28036  1.0000
  F   F346      1.0  0.51391  0.08324  0.77445  1.0000
  F   F347      1.0  0.52091  0.57535  0.27819  1.0000
  F   F348      1.0  0.51708  0.58756  0.75965  1.0000
  F   F349      1.0  0.76159  0.09656  0.26762  1.0000
  F   F350      1.0  0.76581  0.09263  0.77588  1.0000
  F   F351      1.0  0.76598  0.59650  0.27340  1.0000
  F   F352      1.0  0.76544  0.57576  0.78184  1.0000
  F   F353      1.0  0.09693  0.40454  0.46149  1.0000
  F   F354      1.0  0.10510  0.39902  0.96466  1.0000
  F   F355      1.0  0.09580  0.91107  0.46654  1.0000
  F   F356      1.0  0.10215  0.92320  0.95198  1.0000
  F   F357      1.0  0.34914  0.39554  0.47289  1.0000
  F   F358      1.0  0.35564  0.39362  0.96909  1.0000
  F   F359      1.0  0.35271  0.90396  0.46150  1.0000
  F   F360      1.0  0.35096  0.89843  0.95162  1.0000
  F   F361      1.0  0.60398  0.40403  0.46815  1.0000
  F   F362      1.0  0.60158  0.39833  0.95876  1.0000
  F   F363      1.0  0.59824  0.88677  0.46369  1.0000
  F   F364      1.0  0.59982  0.91425  0.95684  1.0000
  F   F365      1.0  0.85166  0.39020  0.46336  1.0000
  F   F366      1.0  0.84974  0.41400  0.96578  1.0000
  F   F367      1.0  0.85256  0.89186  0.45520  1.0000
  F   F368      1.0  0.84662  0.91361  0.95859  1.0000
  F   F369      1.0  0.04486  0.29221  0.28741  1.0000
  F   F370      1.0  0.04338  0.30172  0.78991  1.0000
  F   F371      1.0  0.04766  0.80212  0.28626  1.0000
  F   F372      1.0  0.04583  0.79642  0.77770  1.0000
  F   F373      1.0  0.29990  0.29396  0.29325  1.0000
  F   F374      1.0  0.28804  0.29755  0.79797  1.0000
  F   F375      1.0  0.28913  0.80608  0.29262  1.0000
  F   F376      1.0  0.29805  0.78737  0.79130  1.0000
  F   F377      1.0  0.55357  0.30182  0.29226  1.0000
  F   F378      1.0  0.55200  0.29016  0.79218  1.0000
  F   F379      1.0  0.54522  0.78642  0.29548  1.0000
  F   F380      1.0  0.54741  0.80326  0.78068  1.0000
  F   F381      1.0  0.79675  0.29475  0.26996  1.0000
  F   F382      1.0  0.78946  0.31170  0.77888  1.0000
  F   F383      1.0  0.79603  0.80600  0.27347  1.0000
  F   F384      1.0  0.80257  0.80450  0.78099  1.0000
