data_image0
_chemical_formula_structural       Hf96F384
_chemical_formula_sum              "Hf96 F384"
_cell_length_a       31.0098
_cell_length_b       15.5073
_cell_length_c       15.5003
_cell_angle_alpha    63.342
_cell_angle_beta     63.342
_cell_angle_gamma    80.1625

_space_group_name_H-M_alt    "P 1"
_space_group_IT_number       1

loop_
  _space_group_symop_operation_xyz
  'x, y, z'

loop_
  _atom_site_type_symbol
  _atom_site_label
  _atom_site_symmetry_multiplicity
  _atom_site_fract_x
  _atom_site_fract_y
  _atom_site_fract_z
  _atom_site_occupancy
  Hf  Hf1       1.0  0.19682  0.11026  0.37495  1.0000
  Hf  Hf2       1.0  0.19729  0.10617  0.87310  1.0000
  Hf  Hf3       1.0  0.19908  0.61699  0.36919  1.0000
  Hf  Hf4       1.0  0.19773  0.59956  0.87397  1.0000
  Hf  Hf5       1.0  0.44843  0.10762  0.37123  1.0000
  Hf  Hf6       1.0  0.44130  0.10123  0.88719  1.0000
  Hf  Hf7       1.0  0.45093  0.61179  0.36703  1.0000
  Hf  Hf8       1.0  0.44773  0.60975  0.87010  1.0000
  Hf  Hf9       1.0  0.69631  0.09930  0.38414  1.0000
  Hf  Hf10      1.0  0.69706  0.09993  0.87933  1.0000
  Hf  Hf11      1.0  0.69459  0.60033  0.37994  1.0000
  Hf  Hf12      1.0  0.69370  0.60564  0.87873  1.0000
  Hf  Hf13      1.0  0.94779  0.10693  0.37357  1.0000
  Hf  Hf14      1.0  0.94925  0.10978  0.86867  1.0000
  Hf  Hf15      1.0  0.94709  0.61279  0.37070  1.0000
  Hf  Hf16      1.0  0.94607  0.60875  0.87679  1.0000
  Hf  Hf17      1.0  0.05744  0.39414  0.11417  1.0000
  Hf  Hf18      1.0  0.05316  0.39204  0.62929  1.0000
  Hf  Hf19      1.0  0.05000  0.89681  0.12121  1.0000
  Hf  Hf20      1.0  0.05375  0.89281  0.61856  1.0000
  Hf  Hf21      1.0  0.30426  0.39779  0.12378  1.0000
  Hf  Hf22      1.0  0.30345  0.39539  0.62248  1.0000
  Hf  Hf23      1.0  0.30135  0.89676  0.12030  1.0000
  Hf  Hf24      1.0  0.30406  0.89851  0.62025  1.0000
  Hf  Hf25      1.0  0.55585  0.39108  0.12556  1.0000
  Hf  Hf26      1.0  0.55054  0.38698  0.62251  1.0000
  Hf  Hf27      1.0  0.55087  0.89329  0.12884  1.0000
  Hf  Hf28      1.0  0.55399  0.88384  0.63491  1.0000
  Hf  Hf29      1.0  0.80196  0.39317  0.12591  1.0000
  Hf  Hf30      1.0  0.80216  0.38995  0.63699  1.0000
  Hf  Hf31      1.0  0.80740  0.89279  0.13063  1.0000
  Hf  Hf32      1.0  0.80300  0.89509  0.62578  1.0000
  Hf  Hf33      1.0  0.05448  0.18438  0.41151  1.0000
  Hf  Hf34      1.0  0.05228  0.18349  0.92066  1.0000
  Hf  Hf35      1.0  0.05795  0.67890  0.41513  1.0000
  Hf  Hf36      1.0  0.05618  0.68444  0.91647  1.0000
  Hf  Hf37      1.0  0.30893  0.19333  0.40842  1.0000
  Hf  Hf38      1.0  0.30165  0.19263  0.91673  1.0000
  Hf  Hf39      1.0  0.30939  0.69101  0.40959  1.0000
  Hf  Hf40      1.0  0.30843  0.67931  0.91232  1.0000
  Hf  Hf41      1.0  0.55547  0.17167  0.42541  1.0000
  Hf  Hf42      1.0  0.55406  0.18013  0.91317  1.0000
  Hf  Hf43      1.0  0.55560  0.68424  0.41895  1.0000
  Hf  Hf44      1.0  0.55323  0.67140  0.92226  1.0000
  Hf  Hf45      1.0  0.80826  0.17988  0.41237  1.0000
  Hf  Hf46      1.0  0.81213  0.17465  0.91802  1.0000
  Hf  Hf47      1.0  0.80840  0.68272  0.41419  1.0000
  Hf  Hf48      1.0  0.80409  0.68207  0.91667  1.0000
  Hf  Hf49      1.0  0.15968  0.39859  0.33010  1.0000
  Hf  Hf50      1.0  0.16014  0.38568  0.82926  1.0000
  Hf  Hf51      1.0  0.15651  0.89142  0.32708  1.0000
  Hf  Hf52      1.0  0.15857  0.88848  0.83206  1.0000
  Hf  Hf53      1.0  0.40775  0.39309  0.34066  1.0000
  Hf  Hf54      1.0  0.40735  0.38742  0.84211  1.0000
  Hf  Hf55      1.0  0.40776  0.88797  0.33100  1.0000
  Hf  Hf56      1.0  0.40670  0.88425  0.83897  1.0000
  Hf  Hf57      1.0  0.65444  0.38324  0.33800  1.0000
  Hf  Hf58      1.0  0.66005  0.37686  0.83955  1.0000
  Hf  Hf59      1.0  0.65794  0.88536  0.33535  1.0000
  Hf  Hf60      1.0  0.65715  0.88518  0.83569  1.0000
  Hf  Hf61      1.0  0.91003  0.38627  0.33379  1.0000
  Hf  Hf62      1.0  0.90972  0.39381  0.83015  1.0000
  Hf  Hf63      1.0  0.90699  0.89127  0.33477  1.0000
  Hf  Hf64      1.0  0.90712  0.89293  0.83558  1.0000
  Hf  Hf65      1.0  0.19181  0.31604  0.09194  1.0000
  Hf  Hf66      1.0  0.19558  0.31257  0.58363  1.0000
  Hf  Hf67      1.0  0.19431  0.81815  0.07455  1.0000
  Hf  Hf68      1.0  0.19608  0.81859  0.58319  1.0000
  Hf  Hf69      1.0  0.44504  0.31804  0.08523  1.0000
  Hf  Hf70      1.0  0.44082  0.31045  0.58865  1.0000
  Hf  Hf71      1.0  0.43796  0.82075  0.08820  1.0000
  Hf  Hf72      1.0  0.44593  0.82100  0.58269  1.0000
  Hf  Hf73      1.0  0.69536  0.31968  0.07672  1.0000
  Hf  Hf74      1.0  0.69687  0.31608  0.57886  1.0000
  Hf  Hf75      1.0  0.69278  0.81829  0.08737  1.0000
  Hf  Hf76      1.0  0.69355  0.80836  0.59082  1.0000
  Hf  Hf77      1.0  0.94462  0.32223  0.08018  1.0000
  Hf  Hf78      1.0  0.94794  0.32446  0.57286  1.0000
  Hf  Hf79      1.0  0.94577  0.81935  0.08164  1.0000
  Hf  Hf80      1.0  0.94464  0.80895  0.58904  1.0000
  Hf  Hf81      1.0  0.08965  0.11148  0.16645  1.0000
  Hf  Hf82      1.0  0.09679  0.11590  0.65924  1.0000
  Hf  Hf83      1.0  0.09224  0.60732  0.16028  1.0000
  Hf  Hf84      1.0  0.09286  0.61455  0.66759  1.0000
  Hf  Hf85      1.0  0.33820  0.11419  0.16945  1.0000
  Hf  Hf86      1.0  0.34113  0.11031  0.66694  1.0000
  Hf  Hf87      1.0  0.33929  0.61579  0.16516  1.0000
  Hf  Hf88      1.0  0.34382  0.61102  0.66379  1.0000
  Hf  Hf89      1.0  0.59010  0.11561  0.16829  1.0000
  Hf  Hf90      1.0  0.59267  0.10661  0.67048  1.0000
  Hf  Hf91      1.0  0.59315  0.61288  0.16317  1.0000
  Hf  Hf92      1.0  0.59351  0.60615  0.66113  1.0000
  Hf  Hf93      1.0  0.83853  0.11484  0.16849  1.0000
  Hf  Hf94      1.0  0.84064  0.11970  0.66581  1.0000
  Hf  Hf95      1.0  0.83706  0.60669  0.17611  1.0000
  Hf  Hf96      1.0  0.83771  0.61399  0.66595  1.0000
  F   F1        1.0  0.07955  0.12782  0.30230  1.0000
  F   F2        1.0  0.08438  0.14698  0.78974  1.0000
  F   F3        1.0  0.08591  0.62646  0.29639  1.0000
  F   F4        1.0  0.07942  0.62194  0.80646  1.0000
  F   F5        1.0  0.32347  0.12864  0.30702  1.0000
  F   F6        1.0  0.32936  0.14581  0.80067  1.0000
  F   F7        1.0  0.33121  0.62565  0.30291  1.0000
  F   F8        1.0  0.33226  0.61834  0.80325  1.0000
  F   F9        1.0  0.58519  0.12099  0.30478  1.0000
  F   F10       1.0  0.57441  0.12367  0.80282  1.0000
  F   F11       1.0  0.57620  0.62937  0.31659  1.0000
  F   F12       1.0  0.57582  0.62268  0.80963  1.0000
  F   F13       1.0  0.82211  0.10909  0.31507  1.0000
  F   F14       1.0  0.83416  0.13295  0.80391  1.0000
  F   F15       1.0  0.82610  0.60201  0.31900  1.0000
  F   F16       1.0  0.82666  0.64200  0.79453  1.0000
  F   F17       1.0  0.18929  0.35305  0.44318  1.0000
  F   F18       1.0  0.18661  0.34092  0.93998  1.0000
  F   F19       1.0  0.18341  0.85269  0.43755  1.0000
  F   F20       1.0  0.19159  0.83945  0.93798  1.0000
  F   F21       1.0  0.44211  0.34346  0.44130  1.0000
  F   F22       1.0  0.44513  0.35003  0.94159  1.0000
  F   F23       1.0  0.42630  0.84206  0.45215  1.0000
  F   F24       1.0  0.43830  0.83209  0.94358  1.0000
  F   F25       1.0  0.67874  0.33684  0.45254  1.0000
  F   F26       1.0  0.69847  0.33503  0.93822  1.0000
  F   F27       1.0  0.68350  0.82831  0.45639  1.0000
  F   F28       1.0  0.68225  0.84292  0.95423  1.0000
  F   F29       1.0  0.94031  0.35308  0.43379  1.0000
  F   F30       1.0  0.92768  0.33825  0.95431  1.0000
  F   F31       1.0  0.92269  0.83735  0.46942  1.0000
  F   F32       1.0  0.94175  0.86003  0.93259  1.0000
  F   F33       1.0  0.16795  0.36085  0.21268  1.0000
  F   F34       1.0  0.17014  0.35838  0.70245  1.0000
  F   F35       1.0  0.17016  0.87388  0.18737  1.0000
  F   F36       1.0  0.17045  0.87018  0.69498  1.0000
  F   F37       1.0  0.42494  0.37478  0.19176  1.0000
  F   F38       1.0  0.41983  0.36150  0.71148  1.0000
  F   F39       1.0  0.41910  0.87397  0.19109  1.0000
  F   F40       1.0  0.42281  0.87670  0.69223  1.0000
  F   F41       1.0  0.66422  0.36580  0.20334  1.0000
  F   F42       1.0  0.66973  0.36408  0.69371  1.0000
  F   F43       1.0  0.67467  0.88096  0.18884  1.0000
  F   F44       1.0  0.67523  0.87107  0.69864  1.0000
  F   F45       1.0  0.91937  0.37014  0.19790  1.0000
  F   F46       1.0  0.92543  0.37959  0.68550  1.0000
  F   F47       1.0  0.91320  0.86866  0.20477  1.0000
  F   F48       1.0  0.92533  0.87335  0.69839  1.0000
  F   F49       1.0  0.06024  0.16122  0.05455  1.0000
  F   F50       1.0  0.06758  0.15270  0.55182  1.0000
  F   F51       1.0  0.06307  0.67291  0.04636  1.0000
  F   F52       1.0  0.06173  0.64711  0.56168  1.0000
  F   F53       1.0  0.31976  0.17106  0.04404  1.0000
  F   F54       1.0  0.31679  0.15697  0.55293  1.0000
  F   F55       1.0  0.31025  0.66559  0.04906  1.0000
  F   F56       1.0  0.31474  0.65933  0.54568  1.0000
  F   F57       1.0  0.56330  0.15516  0.06487  1.0000
  F   F58       1.0  0.56557  0.14696  0.56100  1.0000
  F   F59       1.0  0.56701  0.66549  0.05363  1.0000
  F   F60       1.0  0.56385  0.65298  0.55430  1.0000
  F   F61       1.0  0.82047  0.16750  0.04253  1.0000
  F   F62       1.0  0.82803  0.16531  0.53218  1.0000
  F   F63       1.0  0.80943  0.65420  0.05918  1.0000
  F   F64       1.0  0.81585  0.64976  0.55175  1.0000
  F   F65       1.0  0.20770  0.21249  0.20808  1.0000
  F   F66       1.0  0.20839  0.19682  0.71141  1.0000
  F   F67       1.0  0.20598  0.69861  0.20227  1.0000
  F   F68       1.0  0.20305  0.69766  0.72204  1.0000
  F   F69       1.0  0.45597  0.19729  0.20482  1.0000
  F   F70       1.0  0.44817  0.20664  0.72687  1.0000
  F   F71       1.0  0.45311  0.69405  0.20892  1.0000
  F   F72       1.0  0.45509  0.70762  0.71749  1.0000
  F   F73       1.0  0.69876  0.20488  0.20225  1.0000
  F   F74       1.0  0.70470  0.20931  0.71719  1.0000
  F   F75       1.0  0.70561  0.70187  0.21543  1.0000
  F   F76       1.0  0.69936  0.69261  0.71490  1.0000
  F   F77       1.0  0.95850  0.21428  0.21281  1.0000
  F   F78       1.0  0.95512  0.20760  0.70249  1.0000
  F   F79       1.0  0.96203  0.70973  0.20196  1.0000
  F   F80       1.0  0.94546  0.69564  0.71956  1.0000
  F   F81       1.0  0.15427  0.10445  0.03680  1.0000
  F   F82       1.0  0.15035  0.08581  0.53703  1.0000
  F   F83       1.0  0.14888  0.57733  0.03174  1.0000
  F   F84       1.0  0.15262  0.60383  0.54303  1.0000
  F   F85       1.0  0.39641  0.07987  0.04916  1.0000
  F   F86       1.0  0.40134  0.08860  0.53248  1.0000
  F   F87       1.0  0.39645  0.60423  0.03319  1.0000
  F   F88       1.0  0.40006  0.60693  0.52707  1.0000
  F   F89       1.0  0.64861  0.07792  0.03748  1.0000
  F   F90       1.0  0.65152  0.09160  0.53881  1.0000
  F   F91       1.0  0.64780  0.59252  0.03979  1.0000
  F   F92       1.0  0.65356  0.58037  0.54606  1.0000
  F   F93       1.0  0.90200  0.11543  0.03994  1.0000
  F   F94       1.0  0.90364  0.07932  0.53420  1.0000
  F   F95       1.0  0.89742  0.59314  0.03988  1.0000
  F   F96       1.0  0.89514  0.57613  0.52139  1.0000
  F   F97       1.0  0.15805  0.19283  0.12191  1.0000
  F   F98       1.0  0.16150  0.18801  0.61272  1.0000
  F   F99       1.0  0.15538  0.69058  0.10821  1.0000
  F   F100      1.0  0.15037  0.70368  0.64217  1.0000
  F   F101      1.0  0.40245  0.20080  0.11639  1.0000
  F   F102      1.0  0.40343  0.19040  0.62139  1.0000
  F   F103      1.0  0.39838  0.70018  0.12194  1.0000
  F   F104      1.0  0.40642  0.69498  0.62394  1.0000
  F   F105      1.0  0.65088  0.19381  0.10649  1.0000
  F   F106      1.0  0.64935  0.19002  0.62826  1.0000
  F   F107      1.0  0.65161  0.69606  0.13060  1.0000
  F   F108      1.0  0.65074  0.69160  0.62842  1.0000
  F   F109      1.0  0.90010  0.20452  0.14726  1.0000
  F   F110      1.0  0.89905  0.20224  0.61745  1.0000
  F   F111      1.0  0.89967  0.70824  0.13214  1.0000
  F   F112      1.0  0.90330  0.67911  0.61997  1.0000
  F   F113      1.0  0.09506  0.30083  0.38515  1.0000
  F   F114      1.0  0.09591  0.30005  0.88522  1.0000
  F   F115      1.0  0.09833  0.80347  0.38224  1.0000
  F   F116      1.0  0.09806  0.80990  0.85499  1.0000
  F   F117      1.0  0.34916  0.30910  0.39023  1.0000
  F   F118      1.0  0.34656  0.31871  0.87559  1.0000
  F   F119      1.0  0.35259  0.80579  0.36520  1.0000
  F   F120      1.0  0.35258  0.78959  0.89274  1.0000
  F   F121      1.0  0.59636  0.28720  0.40025  1.0000
  F   F122      1.0  0.59935  0.29487  0.89378  1.0000
  F   F123      1.0  0.59985  0.80650  0.36120  1.0000
  F   F124      1.0  0.59379  0.79805  0.87218  1.0000
  F   F125      1.0  0.84860  0.30102  0.35753  1.0000
  F   F126      1.0  0.85459  0.30058  0.86349  1.0000
  F   F127      1.0  0.84770  0.80964  0.38904  1.0000
  F   F128      1.0  0.83945  0.80652  0.86890  1.0000
  F   F129      1.0  0.07445  0.25127  0.12435  1.0000
  F   F130      1.0  0.06787  0.25405  0.62974  1.0000
  F   F131      1.0  0.05938  0.74917  0.15581  1.0000
  F   F132      1.0  0.07326  0.74979  0.63217  1.0000
  F   F133      1.0  0.31263  0.26037  0.14579  1.0000
  F   F134      1.0  0.31064  0.25449  0.63497  1.0000
  F   F135      1.0  0.30924  0.75115  0.14137  1.0000
  F   F136      1.0  0.31187  0.75320  0.64835  1.0000
  F   F137      1.0  0.55312  0.24793  0.16056  1.0000
  F   F138      1.0  0.55886  0.24462  0.64737  1.0000
  F   F139      1.0  0.56227  0.74551  0.15225  1.0000
  F   F140      1.0  0.56431  0.74892  0.63236  1.0000
  F   F141      1.0  0.81820  0.26541  0.12851  1.0000
  F   F142      1.0  0.80690  0.23983  0.65949  1.0000
  F   F143      1.0  0.81597  0.75456  0.14162  1.0000
  F   F144      1.0  0.82448  0.75982  0.61362  1.0000
  F   F145      1.0  0.12810  0.38574  0.08795  1.0000
  F   F146      1.0  0.12767  0.35464  0.60635  1.0000
  F   F147      1.0  0.12749  0.87558  0.09076  1.0000
  F   F148      1.0  0.12049  0.87450  0.61116  1.0000
  F   F149      1.0  0.37450  0.36150  0.11739  1.0000
  F   F150      1.0  0.37067  0.35021  0.63110  1.0000
  F   F151      1.0  0.37152  0.87613  0.09478  1.0000
  F   F152      1.0  0.37220  0.87065  0.60780  1.0000
  F   F153      1.0  0.62408  0.35735  0.10986  1.0000
  F   F154      1.0  0.62104  0.35810  0.61813  1.0000
  F   F155      1.0  0.62556  0.87590  0.10706  1.0000
  F   F156      1.0  0.62528  0.86218  0.61551  1.0000
  F   F157      1.0  0.87445  0.38579  0.09031  1.0000
  F   F158      1.0  0.87528  0.36365  0.60516  1.0000
  F   F159      1.0  0.87921  0.89508  0.08320  1.0000
  F   F160      1.0  0.87314  0.85901  0.62520  1.0000
  F   F161      1.0  0.18341  0.25424  0.37063  1.0000
  F   F162      1.0  0.18690  0.24814  0.85314  1.0000
  F   F163      1.0  0.18948  0.75662  0.34364  1.0000
  F   F164      1.0  0.17487  0.74662  0.86765  1.0000
  F   F165      1.0  0.43085  0.24769  0.36475  1.0000
  F   F166      1.0  0.42935  0.24276  0.88462  1.0000
  F   F167      1.0  0.44140  0.75995  0.33106  1.0000
  F   F168      1.0  0.43920  0.74747  0.84875  1.0000
  F   F169      1.0  0.68960  0.25461  0.34173  1.0000
  F   F170      1.0  0.69127  0.24099  0.86556  1.0000
  F   F171      1.0  0.68488  0.74641  0.35265  1.0000
  F   F172      1.0  0.68027  0.75053  0.85675  1.0000
  F   F173      1.0  0.92735  0.24950  0.36501  1.0000
  F   F174      1.0  0.94825  0.26624  0.82782  1.0000
  F   F175      1.0  0.93920  0.75944  0.36043  1.0000
  F   F176      1.0  0.92980  0.74824  0.87613  1.0000
  F   F177      1.0  0.12477  0.12908  0.38260  1.0000
  F   F178      1.0  0.12907  0.12907  0.89308  1.0000
  F   F179      1.0  0.12610  0.62692  0.39416  1.0000
  F   F180      1.0  0.12579  0.61898  0.89447  1.0000
  F   F181      1.0  0.37635  0.15026  0.37837  1.0000
  F   F182      1.0  0.37536  0.13729  0.88723  1.0000
  F   F183      1.0  0.38240  0.63887  0.37585  1.0000
  F   F184      1.0  0.37608  0.63164  0.89139  1.0000
  F   F185      1.0  0.62720  0.12864  0.39266  1.0000
  F   F186      1.0  0.62472  0.14319  0.87629  1.0000
  F   F187      1.0  0.62590  0.63491  0.39839  1.0000
  F   F188      1.0  0.62593  0.62598  0.88784  1.0000
  F   F189      1.0  0.87404  0.11137  0.39451  1.0000
  F   F190      1.0  0.87877  0.11303  0.90757  1.0000
  F   F191      1.0  0.88128  0.66380  0.35819  1.0000
  F   F192      1.0  0.87535  0.62724  0.88681  1.0000
  F   F193      1.0  0.00822  0.36430  0.07830  1.0000
  F   F194      1.0  0.01027  0.36215  0.57242  1.0000
  F   F195      1.0  0.00473  0.87660  0.06393  1.0000
  F   F196      1.0  0.01120  0.85387  0.57183  1.0000
  F   F197      1.0  0.26074  0.36357  0.07319  1.0000
  F   F198      1.0  0.25591  0.36856  0.57404  1.0000
  F   F199      1.0  0.25752  0.87208  0.06187  1.0000
  F   F200      1.0  0.25779  0.86088  0.57664  1.0000
  F   F201      1.0  0.50731  0.36569  0.06925  1.0000
  F   F202      1.0  0.49979  0.36189  0.57369  1.0000
  F   F203      1.0  0.50303  0.86460  0.08255  1.0000
  F   F204      1.0  0.50538  0.86115  0.57514  1.0000
  F   F205      1.0  0.75341  0.37375  0.08076  1.0000
  F   F206      1.0  0.76085  0.36602  0.57393  1.0000
  F   F207      1.0  0.76133  0.86121  0.07991  1.0000
  F   F208      1.0  0.75977  0.85634  0.57817  1.0000
  F   F209      1.0  0.06550  0.48030  0.18766  1.0000
  F   F210      1.0  0.07713  0.48117  0.66632  1.0000
  F   F211      1.0  0.06892  0.98679  0.16686  1.0000
  F   F212      1.0  0.06644  0.99150  0.67918  1.0000
  F   F213      1.0  0.32063  0.48479  0.17742  1.0000
  F   F214      1.0  0.32677  0.48791  0.65402  1.0000
  F   F215      1.0  0.31174  0.99693  0.17516  1.0000
  F   F216      1.0  0.32062  0.98734  0.68088  1.0000
  F   F217      1.0  0.57017  0.47365  0.17512  1.0000
  F   F218      1.0  0.56826  0.48512  0.67309  1.0000
  F   F219      1.0  0.56873  0.97654  0.18047  1.0000
  F   F220      1.0  0.56343  0.97765  0.68923  1.0000
  F   F221      1.0  0.81735  0.48061  0.18914  1.0000
  F   F222      1.0  0.81079  0.48435  0.69794  1.0000
  F   F223      1.0  0.81781  0.99237  0.18392  1.0000
  F   F224      1.0  0.82100  0.98669  0.67003  1.0000
  F   F225      1.0  0.24179  0.14977  0.41982  1.0000
  F   F226      1.0  0.24202  0.14799  0.92378  1.0000
  F   F227      1.0  0.24521  0.64433  0.41988  1.0000
  F   F228      1.0  0.24302  0.64367  0.91984  1.0000
  F   F229      1.0  0.49360  0.12143  0.43334  1.0000
  F   F230      1.0  0.48791  0.11988  0.94785  1.0000
  F   F231      1.0  0.49337  0.63347  0.43100  1.0000
  F   F232      1.0  0.48922  0.63963  0.92975  1.0000
  F   F233      1.0  0.73954  0.13769  0.43771  1.0000
  F   F234      1.0  0.74797  0.12141  0.93239  1.0000
  F   F235      1.0  0.73683  0.63536  0.43382  1.0000
  F   F236      1.0  0.73778  0.63924  0.93465  1.0000
  F   F237      1.0  0.99082  0.14275  0.41855  1.0000
  F   F238      1.0  0.99526  0.14361  0.92701  1.0000
  F   F239      1.0  0.99527  0.64098  0.41603  1.0000
  F   F240      1.0  0.98664  0.64020  0.94458  1.0000
  F   F241      1.0  0.17996  0.02063  0.31696  1.0000
  F   F242      1.0  0.17712  0.01004  0.82826  1.0000
  F   F243      1.0  0.18473  0.52491  0.31162  1.0000
  F   F244      1.0  0.18768  0.51075  0.82140  1.0000
  F   F245      1.0  0.42828  0.00892  0.33552  1.0000
  F   F246      1.0  0.41907  0.01260  0.84086  1.0000
  F   F247      1.0  0.43746  0.51427  0.31259  1.0000
  F   F248      1.0  0.43326  0.51631  0.81890  1.0000
  F   F249      1.0  0.68269  0.01090  0.33247  1.0000
  F   F250      1.0  0.68371  0.02662  0.82057  1.0000
  F   F251      1.0  0.67031  0.50947  0.33432  1.0000
  F   F252      1.0  0.67937  0.50479  0.83784  1.0000
  F   F253      1.0  0.93590  0.00927  0.31771  1.0000
  F   F254      1.0  0.93389  0.01769  0.81506  1.0000
  F   F255      1.0  0.92754  0.52614  0.33219  1.0000
  F   F256      1.0  0.93513  0.51148  0.82954  1.0000
  F   F257      1.0  0.00137  0.26712  0.99096  1.0000
  F   F258      1.0  0.99886  0.23979  0.50322  1.0000
  F   F259      1.0  0.00410  0.76485  0.98721  1.0000
  F   F260      1.0  0.99862  0.73936  0.50321  1.0000
  F   F261      1.0  0.24890  0.24984  0.01126  1.0000
  F   F262      1.0  0.25336  0.26261  0.49200  1.0000
  F   F263      1.0  0.24996  0.75703  0.99144  1.0000
  F   F264      1.0  0.24825  0.75036  0.50499  1.0000
  F   F265      1.0  0.50431  0.24183  0.00469  1.0000
  F   F266      1.0  0.49553  0.22983  0.51897  1.0000
  F   F267      1.0  0.50218  0.75079  0.99719  1.0000
  F   F268      1.0  0.49936  0.75204  0.49849  1.0000
  F   F269      1.0  0.75615  0.25302  0.99744  1.0000
  F   F270      1.0  0.75385  0.24839  0.49673  1.0000
  F   F271      1.0  0.74864  0.75610  0.00097  1.0000
  F   F272      1.0  0.75175  0.74793  0.50310  1.0000
  F   F273      1.0  0.11893  0.99567  0.25407  1.0000
  F   F274      1.0  0.12603  0.00676  0.74431  1.0000
  F   F275      1.0  0.12601  0.49518  0.24255  1.0000
  F   F276      1.0  0.12641  0.49592  0.75204  1.0000
  F   F277      1.0  0.36836  0.00064  0.25560  1.0000
  F   F278      1.0  0.37305  0.99573  0.75686  1.0000
  F   F279      1.0  0.37682  0.51213  0.24251  1.0000
  F   F280      1.0  0.37438  0.49903  0.74935  1.0000
  F   F281      1.0  0.62792  0.00233  0.24299  1.0000
  F   F282      1.0  0.62719  0.99925  0.75271  1.0000
  F   F283      1.0  0.61436  0.49460  0.26010  1.0000
  F   F284      1.0  0.62475  0.49068  0.75321  1.0000
  F   F285      1.0  0.88549  0.01100  0.22666  1.0000
  F   F286      1.0  0.87805  0.00513  0.74641  1.0000
  F   F287      1.0  0.87715  0.49903  0.25355  1.0000
  F   F288      1.0  0.87349  0.50141  0.75706  1.0000
  F   F289      1.0  0.04359  0.03239  0.01560  1.0000
  F   F290      1.0  0.03934  0.02996  0.52478  1.0000
  F   F291      1.0  0.04122  0.53692  0.02445  1.0000
  F   F292      1.0  0.03591  0.52155  0.52946  1.0000
  F   F293      1.0  0.29026  0.04418  0.02586  1.0000
  F   F294      1.0  0.29043  0.03437  0.52438  1.0000
  F   F295      1.0  0.29307  0.53163  0.02246  1.0000
  F   F296      1.0  0.29105  0.54734  0.52058  1.0000
  F   F297      1.0  0.53944  0.02870  0.03169  1.0000
  F   F298      1.0  0.54233  0.02006  0.53635  1.0000
  F   F299      1.0  0.53755  0.52588  0.03655  1.0000
  F   F300      1.0  0.53167  0.53018  0.54855  1.0000
  F   F301      1.0  0.79306  0.02490  0.03569  1.0000
  F   F302      1.0  0.78711  0.03235  0.53685  1.0000
  F   F303      1.0  0.79594  0.53415  0.01605  1.0000
  F   F304      1.0  0.79900  0.52625  0.52795  1.0000
  F   F305      1.0  0.23625  0.41398  0.23083  1.0000
  F   F306      1.0  0.23510  0.41218  0.73731  1.0000
  F   F307      1.0  0.23272  0.90996  0.22227  1.0000
  F   F308      1.0  0.23754  0.90572  0.72949  1.0000
  F   F309      1.0  0.48549  0.40021  0.23029  1.0000
  F   F310      1.0  0.48576  0.39601  0.73596  1.0000
  F   F311      1.0  0.47962  0.91686  0.22164  1.0000
  F   F312      1.0  0.48662  0.92132  0.71891  1.0000
  F   F313      1.0  0.73105  0.42013  0.23400  1.0000
  F   F314      1.0  0.73188  0.41137  0.72615  1.0000
  F   F315      1.0  0.73591  0.90770  0.24386  1.0000
  F   F316      1.0  0.73158  0.92367  0.72858  1.0000
  F   F317      1.0  0.98506  0.41449  0.22711  1.0000
  F   F318      1.0  0.98595  0.42313  0.72824  1.0000
  F   F319      1.0  0.98295  0.90917  0.21916  1.0000
  F   F320      1.0  0.98430  0.92236  0.71647  1.0000
  F   F321      1.0  0.20382  0.47943  0.47700  1.0000
  F   F322      1.0  0.20806  0.46278  0.97872  1.0000
  F   F323      1.0  0.21525  0.97273  0.46543  1.0000
  F   F324      1.0  0.20771  0.97563  0.97136  1.0000
  F   F325      1.0  0.44636  0.46580  0.48924  1.0000
  F   F326      1.0  0.44464  0.47871  0.98238  1.0000
  F   F327      1.0  0.45783  0.96587  0.47444  1.0000
  F   F328      1.0  0.45553  0.95659  0.97512  1.0000
  F   F329      1.0  0.70673  0.45853  0.47464  1.0000
  F   F330      1.0  0.70452  0.47333  0.97780  1.0000
  F   F331      1.0  0.71105  0.95920  0.48215  1.0000
  F   F332      1.0  0.71179  0.96361  0.98131  1.0000
  F   F333      1.0  0.95911  0.46936  0.47727  1.0000
  F   F334      1.0  0.95899  0.47746  0.98282  1.0000
  F   F335      1.0  0.96020  0.96733  0.46850  1.0000
  F   F336      1.0  0.95554  0.97657  0.97131  1.0000
  F   F337      1.0  0.01945  0.07522  0.27175  1.0000
  F   F338      1.0  0.01556  0.09105  0.76865  1.0000
  F   F339      1.0  0.02090  0.58095  0.27416  1.0000
  F   F340      1.0  0.01582  0.59701  0.76659  1.0000
  F   F341      1.0  0.25979  0.09073  0.27680  1.0000
  F   F342      1.0  0.26917  0.08133  0.78289  1.0000
  F   F343      1.0  0.26283  0.59353  0.27141  1.0000
  F   F344      1.0  0.26981  0.57044  0.77053  1.0000
  F   F345      1.0  0.51684  0.07589  0.28079  1.0000
  F   F346      1.0  0.50583  0.08396  0.78520  1.0000
  F   F347      1.0  0.51891  0.58523  0.26890  1.0000
  F   F348      1.0  0.51632  0.58065  0.77719  1.0000
  F   F349      1.0  0.76315  0.11089  0.25528  1.0000
  F   F350      1.0  0.76901  0.07806  0.77283  1.0000
  F   F351      1.0  0.76229  0.57685  0.27303  1.0000
  F   F352      1.0  0.76226  0.59934  0.77577  1.0000
  F   F353      1.0  0.10187  0.41820  0.45279  1.0000
  F   F354      1.0  0.09966  0.41469  0.95857  1.0000
  F   F355      1.0  0.10350  0.92699  0.45459  1.0000
  F   F356      1.0  0.09725  0.88494  0.96597  1.0000
  F   F357      1.0  0.35784  0.42549  0.45694  1.0000
  F   F358      1.0  0.35654  0.40784  0.96980  1.0000
  F   F359      1.0  0.35061  0.91959  0.45598  1.0000
  F   F360      1.0  0.34677  0.91553  0.95532  1.0000
  F   F361      1.0  0.59410  0.41177  0.46575  1.0000
  F   F362      1.0  0.60061  0.40945  0.96857  1.0000
  F   F363      1.0  0.59432  0.89951  0.46743  1.0000
  F   F364      1.0  0.60225  0.90615  0.95468  1.0000
  F   F365      1.0  0.85202  0.39606  0.45486  1.0000
  F   F366      1.0  0.84863  0.40060  0.95733  1.0000
  F   F367      1.0  0.84981  0.92035  0.46466  1.0000
  F   F368      1.0  0.85084  0.91135  0.96354  1.0000
  F   F369      1.0  0.05035  0.29478  0.27267  1.0000
  F   F370      1.0  0.04370  0.30890  0.77991  1.0000
  F   F371      1.0  0.05045  0.79707  0.28627  1.0000
  F   F372      1.0  0.04374  0.78265  0.78553  1.0000
  F   F373      1.0  0.30261  0.30549  0.28776  1.0000
  F   F374      1.0  0.29485  0.30303  0.78418  1.0000
  F   F375      1.0  0.30248  0.81456  0.27977  1.0000
  F   F376      1.0  0.30050  0.79679  0.79832  1.0000
  F   F377      1.0  0.55041  0.28968  0.30286  1.0000
  F   F378      1.0  0.54602  0.29488  0.79363  1.0000
  F   F379      1.0  0.54206  0.79620  0.28679  1.0000
  F   F380      1.0  0.54174  0.79609  0.78719  1.0000
  F   F381      1.0  0.79222  0.28380  0.28468  1.0000
  F   F382      1.0  0.79497  0.30157  0.79541  1.0000
  F   F383      1.0  0.80625  0.79359  0.28170  1.0000
  F   F384      1.0  0.78614  0.79646  0.78339  1.0000
