data_image0
_chemical_formula_structural       Hf96F384
_chemical_formula_sum              "Hf96 F384"
_cell_length_a       31.0439
_cell_length_b       15.5216
_cell_length_c       15.5099
_cell_angle_alpha    63.342
_cell_angle_beta     63.342
_cell_angle_gamma    80.1625

_space_group_name_H-M_alt    "P 1"
_space_group_IT_number       1

loop_
  _space_group_symop_operation_xyz
  'x, y, z'

loop_
  _atom_site_type_symbol
  _atom_site_label
  _atom_site_symmetry_multiplicity
  _atom_site_fract_x
  _atom_site_fract_y
  _atom_site_fract_z
  _atom_site_occupancy
  Hf  Hf1       1.0  0.19745  0.10455  0.36978  1.0000
  Hf  Hf2       1.0  0.19807  0.10675  0.87200  1.0000
  Hf  Hf3       1.0  0.19851  0.60277  0.38180  1.0000
  Hf  Hf4       1.0  0.19807  0.60966  0.86935  1.0000
  Hf  Hf5       1.0  0.44747  0.11254  0.36711  1.0000
  Hf  Hf6       1.0  0.44448  0.11689  0.86940  1.0000
  Hf  Hf7       1.0  0.44621  0.60573  0.36933  1.0000
  Hf  Hf8       1.0  0.44305  0.60663  0.87933  1.0000
  Hf  Hf9       1.0  0.69294  0.09994  0.38509  1.0000
  Hf  Hf10      1.0  0.69875  0.09712  0.87844  1.0000
  Hf  Hf11      1.0  0.69449  0.59718  0.37784  1.0000
  Hf  Hf12      1.0  0.69609  0.60867  0.87283  1.0000
  Hf  Hf13      1.0  0.94608  0.10952  0.36895  1.0000
  Hf  Hf14      1.0  0.94484  0.10769  0.87419  1.0000
  Hf  Hf15      1.0  0.94413  0.60636  0.38580  1.0000
  Hf  Hf16      1.0  0.95023  0.60903  0.87720  1.0000
  Hf  Hf17      1.0  0.05272  0.39481  0.12851  1.0000
  Hf  Hf18      1.0  0.05699  0.38576  0.62771  1.0000
  Hf  Hf19      1.0  0.05508  0.89307  0.12124  1.0000
  Hf  Hf20      1.0  0.04979  0.89132  0.63102  1.0000
  Hf  Hf21      1.0  0.30393  0.40151  0.12523  1.0000
  Hf  Hf22      1.0  0.30831  0.40699  0.60579  1.0000
  Hf  Hf23      1.0  0.30541  0.90003  0.11468  1.0000
  Hf  Hf24      1.0  0.30369  0.88933  0.63144  1.0000
  Hf  Hf25      1.0  0.55395  0.38550  0.12524  1.0000
  Hf  Hf26      1.0  0.55401  0.39294  0.62991  1.0000
  Hf  Hf27      1.0  0.55155  0.89203  0.12419  1.0000
  Hf  Hf28      1.0  0.55515  0.90122  0.62055  1.0000
  Hf  Hf29      1.0  0.80895  0.39154  0.12346  1.0000
  Hf  Hf30      1.0  0.80064  0.38698  0.62917  1.0000
  Hf  Hf31      1.0  0.80144  0.88358  0.13242  1.0000
  Hf  Hf32      1.0  0.80325  0.88059  0.63759  1.0000
  Hf  Hf33      1.0  0.05529  0.18060  0.42081  1.0000
  Hf  Hf34      1.0  0.05471  0.18147  0.92065  1.0000
  Hf  Hf35      1.0  0.05554  0.67519  0.42112  1.0000
  Hf  Hf36      1.0  0.06196  0.68664  0.91641  1.0000
  Hf  Hf37      1.0  0.30714  0.18100  0.41530  1.0000
  Hf  Hf38      1.0  0.30592  0.19121  0.90867  1.0000
  Hf  Hf39      1.0  0.30910  0.69624  0.40552  1.0000
  Hf  Hf40      1.0  0.30780  0.68721  0.91433  1.0000
  Hf  Hf41      1.0  0.55257  0.18381  0.42498  1.0000
  Hf  Hf42      1.0  0.55746  0.18477  0.91646  1.0000
  Hf  Hf43      1.0  0.55801  0.68650  0.40623  1.0000
  Hf  Hf44      1.0  0.55680  0.68019  0.91452  1.0000
  Hf  Hf45      1.0  0.80456  0.17028  0.42162  1.0000
  Hf  Hf46      1.0  0.80445  0.18548  0.91223  1.0000
  Hf  Hf47      1.0  0.80489  0.67343  0.42438  1.0000
  Hf  Hf48      1.0  0.80475  0.67618  0.92358  1.0000
  Hf  Hf49      1.0  0.16262  0.38344  0.33726  1.0000
  Hf  Hf50      1.0  0.15863  0.39220  0.83204  1.0000
  Hf  Hf51      1.0  0.15768  0.88757  0.33196  1.0000
  Hf  Hf52      1.0  0.15877  0.88728  0.83676  1.0000
  Hf  Hf53      1.0  0.40855  0.38801  0.32145  1.0000
  Hf  Hf54      1.0  0.40890  0.39350  0.83158  1.0000
  Hf  Hf55      1.0  0.40722  0.89551  0.32750  1.0000
  Hf  Hf56      1.0  0.40956  0.89639  0.82094  1.0000
  Hf  Hf57      1.0  0.65579  0.38462  0.33823  1.0000
  Hf  Hf58      1.0  0.65725  0.38309  0.84010  1.0000
  Hf  Hf59      1.0  0.65924  0.88281  0.33505  1.0000
  Hf  Hf60      1.0  0.65840  0.88203  0.83648  1.0000
  Hf  Hf61      1.0  0.90739  0.38620  0.34479  1.0000
  Hf  Hf62      1.0  0.91191  0.38876  0.83209  1.0000
  Hf  Hf63      1.0  0.90358  0.88886  0.33270  1.0000
  Hf  Hf64      1.0  0.90643  0.89025  0.83742  1.0000
  Hf  Hf65      1.0  0.19073  0.31652  0.08598  1.0000
  Hf  Hf66      1.0  0.19717  0.31861  0.58669  1.0000
  Hf  Hf67      1.0  0.19327  0.81548  0.09039  1.0000
  Hf  Hf68      1.0  0.19374  0.82187  0.58059  1.0000
  Hf  Hf69      1.0  0.44380  0.31530  0.07759  1.0000
  Hf  Hf70      1.0  0.44552  0.31901  0.58343  1.0000
  Hf  Hf71      1.0  0.44194  0.82052  0.08121  1.0000
  Hf  Hf72      1.0  0.44534  0.82091  0.57447  1.0000
  Hf  Hf73      1.0  0.69477  0.31824  0.08402  1.0000
  Hf  Hf74      1.0  0.69232  0.31130  0.58768  1.0000
  Hf  Hf75      1.0  0.69352  0.81130  0.08814  1.0000
  Hf  Hf76      1.0  0.69400  0.81558  0.58633  1.0000
  Hf  Hf77      1.0  0.94569  0.31770  0.08570  1.0000
  Hf  Hf78      1.0  0.94671  0.32137  0.57963  1.0000
  Hf  Hf79      1.0  0.94379  0.82030  0.08024  1.0000
  Hf  Hf80      1.0  0.94576  0.81328  0.58363  1.0000
  Hf  Hf81      1.0  0.09170  0.11180  0.16523  1.0000
  Hf  Hf82      1.0  0.09175  0.11628  0.66290  1.0000
  Hf  Hf83      1.0  0.09424  0.61207  0.17173  1.0000
  Hf  Hf84      1.0  0.09118  0.61491  0.66898  1.0000
  Hf  Hf85      1.0  0.33932  0.11512  0.16246  1.0000
  Hf  Hf86      1.0  0.34647  0.11872  0.65336  1.0000
  Hf  Hf87      1.0  0.33530  0.61011  0.17563  1.0000
  Hf  Hf88      1.0  0.34001  0.61746  0.66449  1.0000
  Hf  Hf89      1.0  0.59240  0.11083  0.16592  1.0000
  Hf  Hf90      1.0  0.59086  0.11199  0.66975  1.0000
  Hf  Hf91      1.0  0.58810  0.60812  0.16602  1.0000
  Hf  Hf92      1.0  0.59088  0.61009  0.66298  1.0000
  Hf  Hf93      1.0  0.83661  0.11243  0.16753  1.0000
  Hf  Hf94      1.0  0.84094  0.10826  0.66318  1.0000
  Hf  Hf95      1.0  0.84196  0.60275  0.17687  1.0000
  Hf  Hf96      1.0  0.84190  0.60544  0.67131  1.0000
  F   F1        1.0  0.07931  0.13791  0.29581  1.0000
  F   F2        1.0  0.08248  0.12058  0.79984  1.0000
  F   F3        1.0  0.07295  0.61714  0.31190  1.0000
  F   F4        1.0  0.08067  0.61984  0.80716  1.0000
  F   F5        1.0  0.32619  0.12561  0.30651  1.0000
  F   F6        1.0  0.33673  0.15208  0.78858  1.0000
  F   F7        1.0  0.32375  0.62675  0.31021  1.0000
  F   F8        1.0  0.33255  0.63373  0.79610  1.0000
  F   F9        1.0  0.58174  0.13362  0.30103  1.0000
  F   F10       1.0  0.57055  0.11891  0.81295  1.0000
  F   F11       1.0  0.58072  0.61776  0.29523  1.0000
  F   F12       1.0  0.57867  0.61294  0.80317  1.0000
  F   F13       1.0  0.82455  0.11871  0.31093  1.0000
  F   F14       1.0  0.83096  0.14117  0.78761  1.0000
  F   F15       1.0  0.83250  0.62529  0.30404  1.0000
  F   F16       1.0  0.82133  0.62011  0.81783  1.0000
  F   F17       1.0  0.18799  0.33947  0.44623  1.0000
  F   F18       1.0  0.18262  0.34957  0.95287  1.0000
  F   F19       1.0  0.18826  0.84796  0.43947  1.0000
  F   F20       1.0  0.19028  0.83956  0.94712  1.0000
  F   F21       1.0  0.44061  0.34974  0.43271  1.0000
  F   F22       1.0  0.44277  0.35389  0.93791  1.0000
  F   F23       1.0  0.43747  0.86405  0.43515  1.0000
  F   F24       1.0  0.43352  0.84861  0.93570  1.0000
  F   F25       1.0  0.68090  0.32618  0.46192  1.0000
  F   F26       1.0  0.68555  0.33970  0.95080  1.0000
  F   F27       1.0  0.67837  0.82892  0.45867  1.0000
  F   F28       1.0  0.68874  0.83018  0.94934  1.0000
  F   F29       1.0  0.93823  0.34872  0.44807  1.0000
  F   F30       1.0  0.94392  0.33704  0.94486  1.0000
  F   F31       1.0  0.92044  0.82226  0.45613  1.0000
  F   F32       1.0  0.93489  0.84294  0.94681  1.0000
  F   F33       1.0  0.17084  0.36343  0.20129  1.0000
  F   F34       1.0  0.17541  0.37103  0.69332  1.0000
  F   F35       1.0  0.16518  0.88062  0.20009  1.0000
  F   F36       1.0  0.17066  0.87468  0.69917  1.0000
  F   F37       1.0  0.42528  0.37096  0.18591  1.0000
  F   F38       1.0  0.42754  0.38803  0.68904  1.0000
  F   F39       1.0  0.41449  0.88287  0.19473  1.0000
  F   F40       1.0  0.42760  0.88190  0.67793  1.0000
  F   F41       1.0  0.67857  0.38974  0.18165  1.0000
  F   F42       1.0  0.67041  0.35675  0.69553  1.0000
  F   F43       1.0  0.66785  0.85861  0.20200  1.0000
  F   F44       1.0  0.66960  0.87526  0.69262  1.0000
  F   F45       1.0  0.91672  0.36073  0.21583  1.0000
  F   F46       1.0  0.92516  0.39533  0.68819  1.0000
  F   F47       1.0  0.92645  0.88487  0.19320  1.0000
  F   F48       1.0  0.91403  0.87138  0.69194  1.0000
  F   F49       1.0  0.06871  0.16221  0.04396  1.0000
  F   F50       1.0  0.05277  0.15181  0.56264  1.0000
  F   F51       1.0  0.06261  0.65734  0.05863  1.0000
  F   F52       1.0  0.05913  0.65168  0.56412  1.0000
  F   F53       1.0  0.31581  0.17125  0.04707  1.0000
  F   F54       1.0  0.31736  0.16557  0.54957  1.0000
  F   F55       1.0  0.31668  0.66006  0.05623  1.0000
  F   F56       1.0  0.31851  0.67486  0.54939  1.0000
  F   F57       1.0  0.56721  0.15852  0.04508  1.0000
  F   F58       1.0  0.56593  0.16236  0.55523  1.0000
  F   F59       1.0  0.56733  0.67104  0.04043  1.0000
  F   F60       1.0  0.55557  0.65531  0.55952  1.0000
  F   F61       1.0  0.81577  0.16857  0.04467  1.0000
  F   F62       1.0  0.80745  0.14540  0.56706  1.0000
  F   F63       1.0  0.81375  0.64156  0.06466  1.0000
  F   F64       1.0  0.81471  0.65808  0.56190  1.0000
  F   F65       1.0  0.20268  0.18995  0.21056  1.0000
  F   F66       1.0  0.21806  0.21663  0.71129  1.0000
  F   F67       1.0  0.20579  0.69667  0.21172  1.0000
  F   F68       1.0  0.20487  0.70433  0.70080  1.0000
  F   F69       1.0  0.45636  0.20458  0.20750  1.0000
  F   F70       1.0  0.44400  0.21493  0.71652  1.0000
  F   F71       1.0  0.45705  0.71359  0.20209  1.0000
  F   F72       1.0  0.43981  0.70345  0.69680  1.0000
  F   F73       1.0  0.69184  0.19440  0.21273  1.0000
  F   F74       1.0  0.70584  0.19663  0.71749  1.0000
  F   F75       1.0  0.70486  0.69256  0.21700  1.0000
  F   F76       1.0  0.69598  0.70267  0.71008  1.0000
  F   F77       1.0  0.95820  0.18885  0.21565  1.0000
  F   F78       1.0  0.95254  0.20293  0.71197  1.0000
  F   F79       1.0  0.94635  0.70882  0.20740  1.0000
  F   F80       1.0  0.95825  0.70293  0.71731  1.0000
  F   F81       1.0  0.14896  0.09630  0.02966  1.0000
  F   F82       1.0  0.15066  0.08994  0.55220  1.0000
  F   F83       1.0  0.15178  0.61000  0.04189  1.0000
  F   F84       1.0  0.14996  0.59794  0.53195  1.0000
  F   F85       1.0  0.39848  0.10016  0.03972  1.0000
  F   F86       1.0  0.40355  0.08970  0.53422  1.0000
  F   F87       1.0  0.39945  0.61044  0.03589  1.0000
  F   F88       1.0  0.40078  0.58931  0.52337  1.0000
  F   F89       1.0  0.65071  0.07241  0.04115  1.0000
  F   F90       1.0  0.65065  0.08978  0.54148  1.0000
  F   F91       1.0  0.65265  0.59654  0.02930  1.0000
  F   F92       1.0  0.64719  0.57717  0.53198  1.0000
  F   F93       1.0  0.89632  0.10199  0.04113  1.0000
  F   F94       1.0  0.90195  0.08270  0.53292  1.0000
  F   F95       1.0  0.89717  0.58940  0.04648  1.0000
  F   F96       1.0  0.90446  0.60005  0.55522  1.0000
  F   F97       1.0  0.14921  0.20547  0.11720  1.0000
  F   F98       1.0  0.15451  0.21037  0.63041  1.0000
  F   F99       1.0  0.15036  0.70797  0.13137  1.0000
  F   F100      1.0  0.14562  0.70786  0.62460  1.0000
  F   F101      1.0  0.40147  0.19554  0.12479  1.0000
  F   F102      1.0  0.40727  0.20514  0.60736  1.0000
  F   F103      1.0  0.40006  0.69845  0.12600  1.0000
  F   F104      1.0  0.39553  0.69749  0.60434  1.0000
  F   F105      1.0  0.65106  0.19152  0.11838  1.0000
  F   F106      1.0  0.65137  0.19352  0.62741  1.0000
  F   F107      1.0  0.64686  0.69391  0.13590  1.0000
  F   F108      1.0  0.64748  0.69907  0.62598  1.0000
  F   F109      1.0  0.89690  0.20007  0.13918  1.0000
  F   F110      1.0  0.89821  0.18866  0.61934  1.0000
  F   F111      1.0  0.90156  0.69962  0.11457  1.0000
  F   F112      1.0  0.89684  0.69673  0.64825  1.0000
  F   F113      1.0  0.10497  0.29396  0.38562  1.0000
  F   F114      1.0  0.09574  0.32102  0.88104  1.0000
  F   F115      1.0  0.09574  0.81397  0.38960  1.0000
  F   F116      1.0  0.09710  0.80928  0.88353  1.0000
  F   F117      1.0  0.34680  0.31474  0.36251  1.0000
  F   F118      1.0  0.35689  0.29889  0.85594  1.0000
  F   F119      1.0  0.33903  0.81950  0.38620  1.0000
  F   F120      1.0  0.35033  0.80397  0.88051  1.0000
  F   F121      1.0  0.59559  0.30315  0.38333  1.0000
  F   F122      1.0  0.59983  0.30803  0.87182  1.0000
  F   F123      1.0  0.59990  0.80793  0.37614  1.0000
  F   F124      1.0  0.60180  0.80826  0.87082  1.0000
  F   F125      1.0  0.85451  0.29482  0.39824  1.0000
  F   F126      1.0  0.84325  0.30980  0.86217  1.0000
  F   F127      1.0  0.84795  0.79612  0.35808  1.0000
  F   F128      1.0  0.85218  0.79929  0.88748  1.0000
  F   F129      1.0  0.06191  0.24934  0.14287  1.0000
  F   F130      1.0  0.07282  0.24824  0.62338  1.0000
  F   F131      1.0  0.07191  0.75393  0.12866  1.0000
  F   F132      1.0  0.05506  0.74271  0.66402  1.0000
  F   F133      1.0  0.31572  0.25995  0.14537  1.0000
  F   F134      1.0  0.32055  0.26066  0.63070  1.0000
  F   F135      1.0  0.31461  0.75892  0.13434  1.0000
  F   F136      1.0  0.29883  0.74928  0.67444  1.0000
  F   F137      1.0  0.56631  0.24706  0.13650  1.0000
  F   F138      1.0  0.56481  0.25136  0.63717  1.0000
  F   F139      1.0  0.55840  0.75094  0.15193  1.0000
  F   F140      1.0  0.57157  0.74850  0.63117  1.0000
  F   F141      1.0  0.80965  0.25325  0.15180  1.0000
  F   F142      1.0  0.81182  0.25180  0.63267  1.0000
  F   F143      1.0  0.81247  0.73006  0.16160  1.0000
  F   F144      1.0  0.81730  0.74255  0.63629  1.0000
  F   F145      1.0  0.11707  0.35970  0.13079  1.0000
  F   F146      1.0  0.12695  0.36706  0.61250  1.0000
  F   F147      1.0  0.12609  0.87785  0.10622  1.0000
  F   F148      1.0  0.12264  0.87999  0.61405  1.0000
  F   F149      1.0  0.37510  0.37006  0.11341  1.0000
  F   F150      1.0  0.37942  0.36749  0.59991  1.0000
  F   F151      1.0  0.37513  0.88838  0.10108  1.0000
  F   F152      1.0  0.36983  0.85358  0.63688  1.0000
  F   F153      1.0  0.62473  0.36642  0.12483  1.0000
  F   F154      1.0  0.62357  0.37101  0.60314  1.0000
  F   F155      1.0  0.62139  0.87656  0.10115  1.0000
  F   F156      1.0  0.62297  0.86625  0.61253  1.0000
  F   F157      1.0  0.87710  0.38522  0.09640  1.0000
  F   F158      1.0  0.87206  0.35817  0.62800  1.0000
  F   F159      1.0  0.87656  0.86968  0.11677  1.0000
  F   F160      1.0  0.87420  0.88139  0.58492  1.0000
  F   F161      1.0  0.18274  0.24103  0.35874  1.0000
  F   F162      1.0  0.18812  0.26388  0.85007  1.0000
  F   F163      1.0  0.18736  0.75297  0.35948  1.0000
  F   F164      1.0  0.18093  0.74562  0.85899  1.0000
  F   F165      1.0  0.42817  0.24683  0.36737  1.0000
  F   F166      1.0  0.43572  0.25497  0.85982  1.0000
  F   F167      1.0  0.42467  0.74992  0.36055  1.0000
  F   F168      1.0  0.43674  0.74761  0.83867  1.0000
  F   F169      1.0  0.68355  0.24389  0.35797  1.0000
  F   F170      1.0  0.68237  0.23914  0.86664  1.0000
  F   F171      1.0  0.68674  0.73787  0.36829  1.0000
  F   F172      1.0  0.68864  0.75334  0.84915  1.0000
  F   F173      1.0  0.94238  0.24988  0.35561  1.0000
  F   F174      1.0  0.92263  0.24245  0.85949  1.0000
  F   F175      1.0  0.93781  0.74526  0.34186  1.0000
  F   F176      1.0  0.93327  0.75536  0.85723  1.0000
  F   F177      1.0  0.12275  0.12415  0.41073  1.0000
  F   F178      1.0  0.13156  0.14821  0.86380  1.0000
  F   F179      1.0  0.13000  0.64789  0.37172  1.0000
  F   F180      1.0  0.12480  0.62888  0.89444  1.0000
  F   F181      1.0  0.37657  0.11755  0.38928  1.0000
  F   F182      1.0  0.37412  0.12573  0.90557  1.0000
  F   F183      1.0  0.37219  0.63674  0.38570  1.0000
  F   F184      1.0  0.37570  0.62660  0.89162  1.0000
  F   F185      1.0  0.62070  0.12025  0.40672  1.0000
  F   F186      1.0  0.62454  0.11747  0.90142  1.0000
  F   F187      1.0  0.62720  0.62689  0.38506  1.0000
  F   F188      1.0  0.62546  0.63746  0.88319  1.0000
  F   F189      1.0  0.87933  0.12547  0.38257  1.0000
  F   F190      1.0  0.87164  0.11393  0.90368  1.0000
  F   F191      1.0  0.87340  0.62171  0.42185  1.0000
  F   F192      1.0  0.87792  0.63068  0.89062  1.0000
  F   F193      1.0  0.00468  0.37070  0.07429  1.0000
  F   F194      1.0  0.01189  0.35616  0.57643  1.0000
  F   F195      1.0  0.00853  0.85799  0.07952  1.0000
  F   F196      1.0  0.00769  0.86069  0.58058  1.0000
  F   F197      1.0  0.25449  0.36534  0.07789  1.0000
  F   F198      1.0  0.26512  0.37506  0.55658  1.0000
  F   F199      1.0  0.25421  0.86220  0.07994  1.0000
  F   F200      1.0  0.25525  0.86015  0.58536  1.0000
  F   F201      1.0  0.50801  0.36149  0.06357  1.0000
  F   F202      1.0  0.51200  0.36096  0.57283  1.0000
  F   F203      1.0  0.50674  0.85979  0.07136  1.0000
  F   F204      1.0  0.51093  0.87055  0.56088  1.0000
  F   F205      1.0  0.76255  0.34935  0.08379  1.0000
  F   F206      1.0  0.75975  0.35331  0.56867  1.0000
  F   F207      1.0  0.76027  0.84446  0.08600  1.0000
  F   F208      1.0  0.75327  0.84935  0.59309  1.0000
  F   F209      1.0  0.06820  0.49333  0.17346  1.0000
  F   F210      1.0  0.08088  0.48269  0.66190  1.0000
  F   F211      1.0  0.07125  0.98985  0.16974  1.0000
  F   F212      1.0  0.06356  0.98361  0.68023  1.0000
  F   F213      1.0  0.31484  0.49149  0.17350  1.0000
  F   F214      1.0  0.32564  0.49265  0.65979  1.0000
  F   F215      1.0  0.31719  0.99644  0.17198  1.0000
  F   F216      1.0  0.31809  0.99648  0.66325  1.0000
  F   F217      1.0  0.57092  0.49865  0.14882  1.0000
  F   F218      1.0  0.56748  0.48482  0.68399  1.0000
  F   F219      1.0  0.56397  0.98424  0.18199  1.0000
  F   F220      1.0  0.56553  0.98155  0.69200  1.0000
  F   F221      1.0  0.82072  0.48024  0.18132  1.0000
  F   F222      1.0  0.81457  0.47725  0.69260  1.0000
  F   F223      1.0  0.81312  0.97890  0.18262  1.0000
  F   F224      1.0  0.82076  0.96985  0.69251  1.0000
  F   F225      1.0  0.24272  0.13638  0.42604  1.0000
  F   F226      1.0  0.24770  0.14299  0.90610  1.0000
  F   F227      1.0  0.24529  0.63473  0.42813  1.0000
  F   F228      1.0  0.24552  0.64969  0.91712  1.0000
  F   F229      1.0  0.49835  0.14844  0.40065  1.0000
  F   F230      1.0  0.49452  0.13792  0.91924  1.0000
  F   F231      1.0  0.49322  0.64739  0.42100  1.0000
  F   F232      1.0  0.49006  0.64674  0.92481  1.0000
  F   F233      1.0  0.73961  0.13767  0.43547  1.0000
  F   F234      1.0  0.74507  0.14814  0.90769  1.0000
  F   F235      1.0  0.74333  0.62659  0.42655  1.0000
  F   F236      1.0  0.74435  0.62508  0.93396  1.0000
  F   F237      1.0  0.99648  0.13899  0.42049  1.0000
  F   F238      1.0  0.98388  0.14307  0.92263  1.0000
  F   F239      1.0  0.99212  0.64434  0.43538  1.0000
  F   F240      1.0  0.99269  0.64773  0.92216  1.0000
  F   F241      1.0  0.18177  0.01681  0.31960  1.0000
  F   F242      1.0  0.17558  0.02712  0.81202  1.0000
  F   F243      1.0  0.18561  0.51561  0.32167  1.0000
  F   F244      1.0  0.17928  0.51922  0.82026  1.0000
  F   F245      1.0  0.43519  0.01759  0.31132  1.0000
  F   F246      1.0  0.42744  0.03024  0.82145  1.0000
  F   F247      1.0  0.42697  0.51774  0.32240  1.0000
  F   F248      1.0  0.42461  0.51517  0.82988  1.0000
  F   F249      1.0  0.68199  0.00850  0.33506  1.0000
  F   F250      1.0  0.68467  0.00914  0.82738  1.0000
  F   F251      1.0  0.67978  0.50801  0.31323  1.0000
  F   F252      1.0  0.67912  0.51797  0.81930  1.0000
  F   F253      1.0  0.92845  0.00581  0.32712  1.0000
  F   F254      1.0  0.93150  0.01408  0.83470  1.0000
  F   F255      1.0  0.92986  0.52169  0.33715  1.0000
  F   F256      1.0  0.93479  0.50606  0.82379  1.0000
  F   F257      1.0  0.00216  0.24207  0.00983  1.0000
  F   F258      1.0  0.00268  0.25460  0.50940  1.0000
  F   F259      1.0  0.00680  0.76836  0.98899  1.0000
  F   F260      1.0  0.00270  0.77229  0.47259  1.0000
  F   F261      1.0  0.24403  0.24437  0.99876  1.0000
  F   F262      1.0  0.24938  0.23648  0.51292  1.0000
  F   F263      1.0  0.25301  0.74433  0.99993  1.0000
  F   F264      1.0  0.24885  0.76030  0.49326  1.0000
  F   F265      1.0  0.49867  0.24633  0.99376  1.0000
  F   F266      1.0  0.50456  0.25715  0.50199  1.0000
  F   F267      1.0  0.50067  0.75804  0.99342  1.0000
  F   F268      1.0  0.50135  0.76135  0.48162  1.0000
  F   F269      1.0  0.75389  0.25222  0.98991  1.0000
  F   F270      1.0  0.75597  0.26119  0.49290  1.0000
  F   F271      1.0  0.74921  0.74147  0.00612  1.0000
  F   F272      1.0  0.74811  0.74419  0.50406  1.0000
  F   F273      1.0  0.13351  0.01322  0.23431  1.0000
  F   F274      1.0  0.11900  0.99564  0.75800  1.0000
  F   F275      1.0  0.13327  0.49622  0.23990  1.0000
  F   F276      1.0  0.12553  0.50354  0.75251  1.0000
  F   F277      1.0  0.37033  0.00704  0.24847  1.0000
  F   F278      1.0  0.37258  0.00536  0.74526  1.0000
  F   F279      1.0  0.37223  0.50174  0.24729  1.0000
  F   F280      1.0  0.36548  0.48978  0.76996  1.0000
  F   F281      1.0  0.62694  0.99810  0.24608  1.0000
  F   F282      1.0  0.62840  0.99392  0.74936  1.0000
  F   F283      1.0  0.61877  0.49506  0.24481  1.0000
  F   F284      1.0  0.63191  0.49320  0.74107  1.0000
  F   F285      1.0  0.86753  0.99867  0.24561  1.0000
  F   F286      1.0  0.87056  0.99944  0.76166  1.0000
  F   F287      1.0  0.88374  0.49704  0.24345  1.0000
  F   F288      1.0  0.87504  0.49220  0.76776  1.0000
  F   F289      1.0  0.03854  0.03721  0.01816  1.0000
  F   F290      1.0  0.04323  0.02518  0.51416  1.0000
  F   F291      1.0  0.03603  0.53722  0.04010  1.0000
  F   F292      1.0  0.04575  0.52874  0.52609  1.0000
  F   F293      1.0  0.29437  0.04305  0.01265  1.0000
  F   F294      1.0  0.29074  0.03427  0.52798  1.0000
  F   F295      1.0  0.30050  0.53612  0.02248  1.0000
  F   F296      1.0  0.29703  0.54405  0.51859  1.0000
  F   F297      1.0  0.54498  0.02987  0.01851  1.0000
  F   F298      1.0  0.54503  0.03663  0.53458  1.0000
  F   F299      1.0  0.54071  0.53078  0.00978  1.0000
  F   F300      1.0  0.54261  0.52550  0.53424  1.0000
  F   F301      1.0  0.79112  0.03322  0.02722  1.0000
  F   F302      1.0  0.80327  0.02104  0.52110  1.0000
  F   F303      1.0  0.78911  0.52058  0.03293  1.0000
  F   F304      1.0  0.79375  0.53510  0.52889  1.0000
  F   F305      1.0  0.23047  0.41872  0.23486  1.0000
  F   F306      1.0  0.23515  0.43193  0.71075  1.0000
  F   F307      1.0  0.23741  0.91117  0.21788  1.0000
  F   F308      1.0  0.23343  0.90855  0.73279  1.0000
  F   F309      1.0  0.48087  0.42824  0.21708  1.0000
  F   F310      1.0  0.48827  0.40793  0.73501  1.0000
  F   F311      1.0  0.48581  0.88682  0.23950  1.0000
  F   F312      1.0  0.48400  0.91670  0.73210  1.0000
  F   F313      1.0  0.73963  0.39305  0.22921  1.0000
  F   F314      1.0  0.72883  0.42327  0.71492  1.0000
  F   F315      1.0  0.73010  0.91045  0.22538  1.0000
  F   F316      1.0  0.73517  0.92147  0.72158  1.0000
  F   F317      1.0  0.98204  0.42046  0.22974  1.0000
  F   F318      1.0  0.98975  0.40872  0.72342  1.0000
  F   F319      1.0  0.99039  0.90687  0.23251  1.0000
  F   F320      1.0  0.97935  0.91981  0.72777  1.0000
  F   F321      1.0  0.21323  0.47370  0.47248  1.0000
  F   F322      1.0  0.19927  0.48288  0.97976  1.0000
  F   F323      1.0  0.21368  0.96489  0.46727  1.0000
  F   F324      1.0  0.20136  0.97264  0.97619  1.0000
  F   F325      1.0  0.46519  0.47960  0.46786  1.0000
  F   F326      1.0  0.45598  0.47637  0.97440  1.0000
  F   F327      1.0  0.45502  0.97979  0.46836  1.0000
  F   F328      1.0  0.46251  0.96555  0.97096  1.0000
  F   F329      1.0  0.70295  0.46346  0.48229  1.0000
  F   F330      1.0  0.70812  0.46282  0.97591  1.0000
  F   F331      1.0  0.70815  0.96767  0.48276  1.0000
  F   F332      1.0  0.71109  0.95542  0.98990  1.0000
  F   F333      1.0  0.95492  0.46891  0.49364  1.0000
  F   F334      1.0  0.95674  0.46429  0.97847  1.0000
  F   F335      1.0  0.95848  0.95941  0.47517  1.0000
  F   F336      1.0  0.95839  0.97038  0.97963  1.0000
  F   F337      1.0  0.01560  0.08506  0.27991  1.0000
  F   F338      1.0  0.01579  0.09314  0.76897  1.0000
  F   F339      1.0  0.01304  0.61952  0.26972  1.0000
  F   F340      1.0  0.01685  0.56776  0.77940  1.0000
  F   F341      1.0  0.26339  0.08951  0.27116  1.0000
  F   F342      1.0  0.27174  0.08363  0.76672  1.0000
  F   F343      1.0  0.26586  0.58786  0.26845  1.0000
  F   F344      1.0  0.26924  0.57451  0.78648  1.0000
  F   F345      1.0  0.51595  0.09073  0.26361  1.0000
  F   F346      1.0  0.51367  0.09564  0.76014  1.0000
  F   F347      1.0  0.51247  0.58847  0.26883  1.0000
  F   F348      1.0  0.50710  0.58698  0.77597  1.0000
  F   F349      1.0  0.75945  0.09251  0.27501  1.0000
  F   F350      1.0  0.76807  0.07321  0.77668  1.0000
  F   F351      1.0  0.76307  0.57519  0.27363  1.0000
  F   F352      1.0  0.76374  0.59928  0.76930  1.0000
  F   F353      1.0  0.10694  0.41956  0.45592  1.0000
  F   F354      1.0  0.09645  0.41128  0.96372  1.0000
  F   F355      1.0  0.09863  0.90699  0.47421  1.0000
  F   F356      1.0  0.10075  0.91819  0.96165  1.0000
  F   F357      1.0  0.35509  0.40822  0.44744  1.0000
  F   F358      1.0  0.34926  0.40908  0.96482  1.0000
  F   F359      1.0  0.34563  0.91552  0.47010  1.0000
  F   F360      1.0  0.35162  0.90996  0.96529  1.0000
  F   F361      1.0  0.60053  0.40640  0.45152  1.0000
  F   F362      1.0  0.60182  0.41408  0.95740  1.0000
  F   F363      1.0  0.59901  0.91704  0.46693  1.0000
  F   F364      1.0  0.60166  0.90574  0.95766  1.0000
  F   F365      1.0  0.85274  0.41967  0.46679  1.0000
  F   F366      1.0  0.85546  0.39422  0.96118  1.0000
  F   F367      1.0  0.84513  0.90962  0.43843  1.0000
  F   F368      1.0  0.85126  0.89894  0.97547  1.0000
  F   F369      1.0  0.04539  0.30387  0.28613  1.0000
  F   F370      1.0  0.05300  0.28966  0.78087  1.0000
  F   F371      1.0  0.05237  0.79365  0.28569  1.0000
  F   F372      1.0  0.05581  0.78889  0.78910  1.0000
  F   F373      1.0  0.29370  0.29797  0.28810  1.0000
  F   F374      1.0  0.29411  0.31202  0.77792  1.0000
  F   F375      1.0  0.29654  0.79547  0.28631  1.0000
  F   F376      1.0  0.29672  0.80793  0.79124  1.0000
  F   F377      1.0  0.54315  0.30821  0.27892  1.0000
  F   F378      1.0  0.55141  0.30618  0.78602  1.0000
  F   F379      1.0  0.55899  0.79333  0.27842  1.0000
  F   F380      1.0  0.54939  0.78843  0.77737  1.0000
  F   F381      1.0  0.80723  0.28596  0.29376  1.0000
  F   F382      1.0  0.78327  0.30239  0.78224  1.0000
  F   F383      1.0  0.79752  0.78550  0.28953  1.0000
  F   F384      1.0  0.79245  0.78694  0.79781  1.0000
