data_image0
_chemical_formula_structural       Hf96F384
_chemical_formula_sum              "Hf96 F384"
_cell_length_a       31.0322
_cell_length_b       15.5197
_cell_length_c       15.5121
_cell_angle_alpha    63.342
_cell_angle_beta     63.342
_cell_angle_gamma    80.1625

_space_group_name_H-M_alt    "P 1"
_space_group_IT_number       1

loop_
  _space_group_symop_operation_xyz
  'x, y, z'

loop_
  _atom_site_type_symbol
  _atom_site_label
  _atom_site_symmetry_multiplicity
  _atom_site_fract_x
  _atom_site_fract_y
  _atom_site_fract_z
  _atom_site_occupancy
  Hf  Hf1       1.0  0.19644  0.11512  0.36810  1.0000
  Hf  Hf2       1.0  0.20103  0.11238  0.86042  1.0000
  Hf  Hf3       1.0  0.19680  0.61264  0.37017  1.0000
  Hf  Hf4       1.0  0.19719  0.61635  0.86179  1.0000
  Hf  Hf5       1.0  0.44368  0.09811  0.38030  1.0000
  Hf  Hf6       1.0  0.44428  0.10966  0.87980  1.0000
  Hf  Hf7       1.0  0.44501  0.60673  0.37928  1.0000
  Hf  Hf8       1.0  0.44700  0.60859  0.87499  1.0000
  Hf  Hf9       1.0  0.69589  0.09438  0.37395  1.0000
  Hf  Hf10      1.0  0.69489  0.10210  0.87543  1.0000
  Hf  Hf11      1.0  0.70065  0.59954  0.37362  1.0000
  Hf  Hf12      1.0  0.69598  0.60074  0.87759  1.0000
  Hf  Hf13      1.0  0.94611  0.11176  0.37042  1.0000
  Hf  Hf14      1.0  0.94603  0.11087  0.86756  1.0000
  Hf  Hf15      1.0  0.94602  0.61337  0.36511  1.0000
  Hf  Hf16      1.0  0.94692  0.60314  0.87644  1.0000
  Hf  Hf17      1.0  0.04895  0.38924  0.13073  1.0000
  Hf  Hf18      1.0  0.05330  0.39340  0.63342  1.0000
  Hf  Hf19      1.0  0.05440  0.89744  0.12970  1.0000
  Hf  Hf20      1.0  0.05420  0.88945  0.62530  1.0000
  Hf  Hf21      1.0  0.30422  0.40213  0.12056  1.0000
  Hf  Hf22      1.0  0.30194  0.39690  0.63118  1.0000
  Hf  Hf23      1.0  0.30615  0.88786  0.12598  1.0000
  Hf  Hf24      1.0  0.30405  0.90471  0.62313  1.0000
  Hf  Hf25      1.0  0.55677  0.39608  0.12699  1.0000
  Hf  Hf26      1.0  0.55022  0.38266  0.63828  1.0000
  Hf  Hf27      1.0  0.55605  0.88714  0.13215  1.0000
  Hf  Hf28      1.0  0.55318  0.88700  0.62319  1.0000
  Hf  Hf29      1.0  0.80348  0.38845  0.12935  1.0000
  Hf  Hf30      1.0  0.79785  0.38622  0.63934  1.0000
  Hf  Hf31      1.0  0.80194  0.88724  0.12664  1.0000
  Hf  Hf32      1.0  0.80340  0.89150  0.62564  1.0000
  Hf  Hf33      1.0  0.05356  0.18093  0.41585  1.0000
  Hf  Hf34      1.0  0.05386  0.17445  0.92297  1.0000
  Hf  Hf35      1.0  0.05460  0.68387  0.41633  1.0000
  Hf  Hf36      1.0  0.05578  0.68230  0.91778  1.0000
  Hf  Hf37      1.0  0.30539  0.19435  0.41148  1.0000
  Hf  Hf38      1.0  0.30408  0.18261  0.91987  1.0000
  Hf  Hf39      1.0  0.30737  0.67701  0.41982  1.0000
  Hf  Hf40      1.0  0.30960  0.69207  0.91366  1.0000
  Hf  Hf41      1.0  0.55272  0.17620  0.41942  1.0000
  Hf  Hf42      1.0  0.55335  0.17136  0.92506  1.0000
  Hf  Hf43      1.0  0.56037  0.67984  0.41190  1.0000
  Hf  Hf44      1.0  0.55362  0.67900  0.91867  1.0000
  Hf  Hf45      1.0  0.80423  0.16979  0.42390  1.0000
  Hf  Hf46      1.0  0.80407  0.18394  0.92569  1.0000
  Hf  Hf47      1.0  0.80650  0.68158  0.41905  1.0000
  Hf  Hf48      1.0  0.80732  0.67908  0.91719  1.0000
  Hf  Hf49      1.0  0.15376  0.39474  0.33223  1.0000
  Hf  Hf50      1.0  0.15633  0.39392  0.83322  1.0000
  Hf  Hf51      1.0  0.16216  0.89721  0.33028  1.0000
  Hf  Hf52      1.0  0.15619  0.89685  0.82842  1.0000
  Hf  Hf53      1.0  0.41030  0.38729  0.33429  1.0000
  Hf  Hf54      1.0  0.40788  0.38870  0.83280  1.0000
  Hf  Hf55      1.0  0.40945  0.88879  0.33006  1.0000
  Hf  Hf56      1.0  0.41073  0.88980  0.83457  1.0000
  Hf  Hf57      1.0  0.65318  0.37959  0.34165  1.0000
  Hf  Hf58      1.0  0.65401  0.37735  0.84832  1.0000
  Hf  Hf59      1.0  0.65741  0.88246  0.33263  1.0000
  Hf  Hf60      1.0  0.65950  0.87753  0.83595  1.0000
  Hf  Hf61      1.0  0.90775  0.38621  0.33243  1.0000
  Hf  Hf62      1.0  0.90614  0.39060  0.82902  1.0000
  Hf  Hf63      1.0  0.90695  0.88693  0.33165  1.0000
  Hf  Hf64      1.0  0.90701  0.88164  0.84139  1.0000
  Hf  Hf65      1.0  0.19421  0.32302  0.08191  1.0000
  Hf  Hf66      1.0  0.19694  0.32366  0.58110  1.0000
  Hf  Hf67      1.0  0.19322  0.82213  0.08194  1.0000
  Hf  Hf68      1.0  0.19684  0.82086  0.57474  1.0000
  Hf  Hf69      1.0  0.44402  0.32103  0.08056  1.0000
  Hf  Hf70      1.0  0.43881  0.31662  0.59452  1.0000
  Hf  Hf71      1.0  0.44722  0.82629  0.07728  1.0000
  Hf  Hf72      1.0  0.44308  0.81635  0.58463  1.0000
  Hf  Hf73      1.0  0.69566  0.31130  0.08718  1.0000
  Hf  Hf74      1.0  0.69198  0.31479  0.58152  1.0000
  Hf  Hf75      1.0  0.69695  0.81372  0.07792  1.0000
  Hf  Hf76      1.0  0.69592  0.80943  0.57679  1.0000
  Hf  Hf77      1.0  0.94437  0.32498  0.07995  1.0000
  Hf  Hf78      1.0  0.94610  0.32945  0.57038  1.0000
  Hf  Hf79      1.0  0.94187  0.81656  0.08654  1.0000
  Hf  Hf80      1.0  0.94508  0.81376  0.58389  1.0000
  Hf  Hf81      1.0  0.09587  0.11934  0.15370  1.0000
  Hf  Hf82      1.0  0.09300  0.11594  0.66118  1.0000
  Hf  Hf83      1.0  0.09166  0.61554  0.16163  1.0000
  Hf  Hf84      1.0  0.09273  0.61984  0.66092  1.0000
  Hf  Hf85      1.0  0.34293  0.11761  0.16144  1.0000
  Hf  Hf86      1.0  0.34331  0.11560  0.66606  1.0000
  Hf  Hf87      1.0  0.34476  0.61076  0.16605  1.0000
  Hf  Hf88      1.0  0.34284  0.62410  0.66903  1.0000
  Hf  Hf89      1.0  0.58780  0.10398  0.17231  1.0000
  Hf  Hf90      1.0  0.58969  0.09698  0.67536  1.0000
  Hf  Hf91      1.0  0.59514  0.60868  0.16213  1.0000
  Hf  Hf92      1.0  0.59117  0.60324  0.67132  1.0000
  Hf  Hf93      1.0  0.84650  0.11174  0.16354  1.0000
  Hf  Hf94      1.0  0.84219  0.11195  0.67126  1.0000
  Hf  Hf95      1.0  0.84801  0.61060  0.16138  1.0000
  Hf  Hf96      1.0  0.84082  0.61498  0.66412  1.0000
  F   F1        1.0  0.08371  0.12736  0.30099  1.0000
  F   F2        1.0  0.07685  0.13109  0.80186  1.0000
  F   F3        1.0  0.08338  0.62783  0.30565  1.0000
  F   F4        1.0  0.08705  0.63696  0.80030  1.0000
  F   F5        1.0  0.33642  0.13742  0.29552  1.0000
  F   F6        1.0  0.32657  0.11215  0.81668  1.0000
  F   F7        1.0  0.33776  0.63069  0.30629  1.0000
  F   F8        1.0  0.32734  0.64037  0.80246  1.0000
  F   F9        1.0  0.58044  0.12772  0.29798  1.0000
  F   F10       1.0  0.57806  0.10865  0.81162  1.0000
  F   F11       1.0  0.58187  0.62637  0.29840  1.0000
  F   F12       1.0  0.57717  0.62284  0.80527  1.0000
  F   F13       1.0  0.83538  0.12833  0.30243  1.0000
  F   F14       1.0  0.82600  0.13011  0.81312  1.0000
  F   F15       1.0  0.83490  0.64920  0.29289  1.0000
  F   F16       1.0  0.82758  0.63214  0.80548  1.0000
  F   F17       1.0  0.18129  0.34304  0.44311  1.0000
  F   F18       1.0  0.19130  0.34942  0.93609  1.0000
  F   F19       1.0  0.19713  0.85495  0.42610  1.0000
  F   F20       1.0  0.18558  0.83548  0.94525  1.0000
  F   F21       1.0  0.42841  0.33684  0.46268  1.0000
  F   F22       1.0  0.43418  0.33925  0.94302  1.0000
  F   F23       1.0  0.43179  0.84834  0.44489  1.0000
  F   F24       1.0  0.44459  0.84760  0.93813  1.0000
  F   F25       1.0  0.68349  0.32725  0.44643  1.0000
  F   F26       1.0  0.67977  0.32636  0.95940  1.0000
  F   F27       1.0  0.69258  0.84897  0.43121  1.0000
  F   F28       1.0  0.69464  0.85858  0.93525  1.0000
  F   F29       1.0  0.93680  0.33830  0.44877  1.0000
  F   F30       1.0  0.93305  0.34697  0.94973  1.0000
  F   F31       1.0  0.93537  0.83608  0.44644  1.0000
  F   F32       1.0  0.93862  0.84418  0.94061  1.0000
  F   F33       1.0  0.17306  0.39163  0.18987  1.0000
  F   F34       1.0  0.17260  0.38858  0.68653  1.0000
  F   F35       1.0  0.17273  0.87572  0.19643  1.0000
  F   F36       1.0  0.17157  0.87669  0.69480  1.0000
  F   F37       1.0  0.42460  0.36591  0.20499  1.0000
  F   F38       1.0  0.41647  0.38543  0.69520  1.0000
  F   F39       1.0  0.42643  0.87878  0.18609  1.0000
  F   F40       1.0  0.42181  0.87135  0.68902  1.0000
  F   F41       1.0  0.67611  0.37077  0.19113  1.0000
  F   F42       1.0  0.66038  0.35045  0.70336  1.0000
  F   F43       1.0  0.66709  0.83955  0.20762  1.0000
  F   F44       1.0  0.66920  0.86321  0.69951  1.0000
  F   F45       1.0  0.91815  0.37809  0.19785  1.0000
  F   F46       1.0  0.91756  0.37229  0.69808  1.0000
  F   F47       1.0  0.92084  0.87347  0.19136  1.0000
  F   F48       1.0  0.91689  0.84740  0.71869  1.0000
  F   F49       1.0  0.05711  0.15606  0.06325  1.0000
  F   F50       1.0  0.05529  0.14838  0.56741  1.0000
  F   F51       1.0  0.05992  0.65514  0.06046  1.0000
  F   F52       1.0  0.06930  0.66355  0.54776  1.0000
  F   F53       1.0  0.31649  0.15632  0.05449  1.0000
  F   F54       1.0  0.31133  0.17241  0.54961  1.0000
  F   F55       1.0  0.32425  0.66242  0.04805  1.0000
  F   F56       1.0  0.31679  0.67582  0.55311  1.0000
  F   F57       1.0  0.55539  0.14072  0.06591  1.0000
  F   F58       1.0  0.56062  0.15633  0.56822  1.0000
  F   F59       1.0  0.57280  0.66794  0.03875  1.0000
  F   F60       1.0  0.56689  0.65411  0.54839  1.0000
  F   F61       1.0  0.81194  0.15644  0.05863  1.0000
  F   F62       1.0  0.81111  0.15739  0.56529  1.0000
  F   F63       1.0  0.81867  0.66507  0.05313  1.0000
  F   F64       1.0  0.81019  0.65497  0.55733  1.0000
  F   F65       1.0  0.19704  0.20671  0.21263  1.0000
  F   F66       1.0  0.21363  0.21420  0.69711  1.0000
  F   F67       1.0  0.20273  0.69649  0.21391  1.0000
  F   F68       1.0  0.20103  0.70041  0.70488  1.0000
  F   F69       1.0  0.44967  0.19723  0.20989  1.0000
  F   F70       1.0  0.45263  0.20298  0.71620  1.0000
  F   F71       1.0  0.44517  0.70143  0.21706  1.0000
  F   F72       1.0  0.45008  0.70569  0.71284  1.0000
  F   F73       1.0  0.70199  0.20287  0.21085  1.0000
  F   F74       1.0  0.70372  0.18906  0.71401  1.0000
  F   F75       1.0  0.71100  0.68368  0.21111  1.0000
  F   F76       1.0  0.70159  0.70718  0.71512  1.0000
  F   F77       1.0  0.94822  0.21675  0.21480  1.0000
  F   F78       1.0  0.96537  0.21119  0.69952  1.0000
  F   F79       1.0  0.95764  0.69111  0.20935  1.0000
  F   F80       1.0  0.96257  0.70009  0.71086  1.0000
  F   F81       1.0  0.14162  0.09077  0.03173  1.0000
  F   F82       1.0  0.14891  0.11908  0.53435  1.0000
  F   F83       1.0  0.15194  0.62865  0.02732  1.0000
  F   F84       1.0  0.14927  0.57915  0.54312  1.0000
  F   F85       1.0  0.40148  0.11808  0.02583  1.0000
  F   F86       1.0  0.39967  0.10409  0.53656  1.0000
  F   F87       1.0  0.40424  0.57915  0.03172  1.0000
  F   F88       1.0  0.40003  0.60947  0.53818  1.0000
  F   F89       1.0  0.64232  0.08498  0.04144  1.0000
  F   F90       1.0  0.64552  0.08419  0.54935  1.0000
  F   F91       1.0  0.65120  0.56842  0.04978  1.0000
  F   F92       1.0  0.64899  0.57960  0.54054  1.0000
  F   F93       1.0  0.89704  0.08039  0.04282  1.0000
  F   F94       1.0  0.90309  0.09507  0.54463  1.0000
  F   F95       1.0  0.90296  0.59451  0.03797  1.0000
  F   F96       1.0  0.89653  0.59671  0.54092  1.0000
  F   F97       1.0  0.15797  0.19601  0.09671  1.0000
  F   F98       1.0  0.15894  0.19995  0.63704  1.0000
  F   F99       1.0  0.14594  0.70723  0.14355  1.0000
  F   F100      1.0  0.15232  0.70679  0.60276  1.0000
  F   F101      1.0  0.40261  0.20773  0.12285  1.0000
  F   F102      1.0  0.40323  0.18768  0.64410  1.0000
  F   F103      1.0  0.40600  0.69236  0.10840  1.0000
  F   F104      1.0  0.39719  0.71163  0.62373  1.0000
  F   F105      1.0  0.65024  0.19686  0.13429  1.0000
  F   F106      1.0  0.65305  0.18210  0.63412  1.0000
  F   F107      1.0  0.65492  0.69000  0.10533  1.0000
  F   F108      1.0  0.65600  0.68409  0.61791  1.0000
  F   F109      1.0  0.90186  0.19050  0.13053  1.0000
  F   F110      1.0  0.90041  0.20810  0.63109  1.0000
  F   F111      1.0  0.90196  0.69731  0.12766  1.0000
  F   F112      1.0  0.90276  0.68745  0.63531  1.0000
  F   F113      1.0  0.09067  0.30931  0.37815  1.0000
  F   F114      1.0  0.09692  0.30523  0.87203  1.0000
  F   F115      1.0  0.09345  0.80309  0.38275  1.0000
  F   F116      1.0  0.09711  0.80460  0.88677  1.0000
  F   F117      1.0  0.35183  0.30750  0.38115  1.0000
  F   F118      1.0  0.35165  0.30480  0.87582  1.0000
  F   F119      1.0  0.35360  0.80073  0.36117  1.0000
  F   F120      1.0  0.35528  0.80966  0.87653  1.0000
  F   F121      1.0  0.60022  0.29752  0.37353  1.0000
  F   F122      1.0  0.59291  0.30978  0.90094  1.0000
  F   F123      1.0  0.59751  0.79607  0.37340  1.0000
  F   F124      1.0  0.59810  0.79432  0.87156  1.0000
  F   F125      1.0  0.84786  0.29091  0.37786  1.0000
  F   F126      1.0  0.83937  0.30823  0.88053  1.0000
  F   F127      1.0  0.84728  0.79013  0.39246  1.0000
  F   F128      1.0  0.85082  0.79932  0.88698  1.0000
  F   F129      1.0  0.06558  0.24376  0.14532  1.0000
  F   F130      1.0  0.07209  0.26073  0.63161  1.0000
  F   F131      1.0  0.06844  0.76777  0.12012  1.0000
  F   F132      1.0  0.05571  0.75629  0.64507  1.0000
  F   F133      1.0  0.31264  0.26447  0.13879  1.0000
  F   F134      1.0  0.30858  0.25514  0.66086  1.0000
  F   F135      1.0  0.31060  0.74188  0.16131  1.0000
  F   F136      1.0  0.31548  0.76601  0.64338  1.0000
  F   F137      1.0  0.57480  0.25255  0.12264  1.0000
  F   F138      1.0  0.56654  0.24181  0.65668  1.0000
  F   F139      1.0  0.55698  0.74499  0.14283  1.0000
  F   F140      1.0  0.56422  0.74818  0.63285  1.0000
  F   F141      1.0  0.82554  0.25371  0.12273  1.0000
  F   F142      1.0  0.82002  0.25148  0.65223  1.0000
  F   F143      1.0  0.81382  0.75396  0.14022  1.0000
  F   F144      1.0  0.81674  0.74505  0.63810  1.0000
  F   F145      1.0  0.12800  0.36573  0.11213  1.0000
  F   F146      1.0  0.12559  0.39511  0.59168  1.0000
  F   F147      1.0  0.12531  0.87629  0.10779  1.0000
  F   F148      1.0  0.12495  0.85111  0.61845  1.0000
  F   F149      1.0  0.38052  0.38994  0.09906  1.0000
  F   F150      1.0  0.37176  0.36385  0.62098  1.0000
  F   F151      1.0  0.37264  0.84984  0.12554  1.0000
  F   F152      1.0  0.37483  0.89361  0.59146  1.0000
  F   F153      1.0  0.62943  0.36851  0.10612  1.0000
  F   F154      1.0  0.62804  0.38324  0.58518  1.0000
  F   F155      1.0  0.62475  0.86915  0.09867  1.0000
  F   F156      1.0  0.62521  0.85307  0.61698  1.0000
  F   F157      1.0  0.87430  0.35827  0.12752  1.0000
  F   F158      1.0  0.86995  0.38065  0.60722  1.0000
  F   F159      1.0  0.87261  0.86530  0.11253  1.0000
  F   F160      1.0  0.87037  0.86659  0.61952  1.0000
  F   F161      1.0  0.18617  0.25632  0.34500  1.0000
  F   F162      1.0  0.18637  0.25803  0.85510  1.0000
  F   F163      1.0  0.18854  0.75049  0.35428  1.0000
  F   F164      1.0  0.18445  0.76295  0.83130  1.0000
  F   F165      1.0  0.44247  0.24070  0.35755  1.0000
  F   F166      1.0  0.44248  0.26213  0.83478  1.0000
  F   F167      1.0  0.43522  0.75093  0.34557  1.0000
  F   F168      1.0  0.44684  0.75464  0.83553  1.0000
  F   F169      1.0  0.68133  0.23417  0.36416  1.0000
  F   F170      1.0  0.68662  0.25058  0.85993  1.0000
  F   F171      1.0  0.69119  0.74170  0.35298  1.0000
  F   F172      1.0  0.67620  0.73993  0.88606  1.0000
  F   F173      1.0  0.93276  0.24881  0.36694  1.0000
  F   F174      1.0  0.93130  0.24860  0.86635  1.0000
  F   F175      1.0  0.93721  0.75947  0.33342  1.0000
  F   F176      1.0  0.93642  0.73313  0.87705  1.0000
  F   F177      1.0  0.12452  0.14632  0.39164  1.0000
  F   F178      1.0  0.12520  0.14836  0.88118  1.0000
  F   F179      1.0  0.12823  0.63497  0.39352  1.0000
  F   F180      1.0  0.12486  0.62686  0.90107  1.0000
  F   F181      1.0  0.37153  0.12320  0.40744  1.0000
  F   F182      1.0  0.37598  0.13692  0.89351  1.0000
  F   F183      1.0  0.37209  0.60499  0.42642  1.0000
  F   F184      1.0  0.37881  0.63028  0.89607  1.0000
  F   F185      1.0  0.62158  0.11977  0.40623  1.0000
  F   F186      1.0  0.62395  0.13723  0.89181  1.0000
  F   F187      1.0  0.62815  0.63672  0.37804  1.0000
  F   F188      1.0  0.62499  0.62229  0.89082  1.0000
  F   F189      1.0  0.86755  0.10602  0.42234  1.0000
  F   F190      1.0  0.87764  0.15368  0.88588  1.0000
  F   F191      1.0  0.88062  0.63927  0.38205  1.0000
  F   F192      1.0  0.88066  0.63378  0.87787  1.0000
  F   F193      1.0  0.00876  0.35376  0.07594  1.0000
  F   F194      1.0  0.00966  0.35877  0.56713  1.0000
  F   F195      1.0  0.00728  0.84800  0.09169  1.0000
  F   F196      1.0  0.00452  0.87165  0.57057  1.0000
  F   F197      1.0  0.25498  0.37974  0.06105  1.0000
  F   F198      1.0  0.25722  0.37233  0.57119  1.0000
  F   F199      1.0  0.25699  0.85807  0.08739  1.0000
  F   F200      1.0  0.25491  0.86528  0.57282  1.0000
  F   F201      1.0  0.50758  0.35510  0.07721  1.0000
  F   F202      1.0  0.49800  0.36394  0.58245  1.0000
  F   F203      1.0  0.50925  0.87354  0.06343  1.0000
  F   F204      1.0  0.50831  0.85905  0.57444  1.0000
  F   F205      1.0  0.76432  0.36744  0.06207  1.0000
  F   F206      1.0  0.75600  0.35850  0.57600  1.0000
  F   F207      1.0  0.75283  0.86936  0.07375  1.0000
  F   F208      1.0  0.76310  0.86399  0.56423  1.0000
  F   F209      1.0  0.07212  0.47684  0.17205  1.0000
  F   F210      1.0  0.06231  0.48432  0.68643  1.0000
  F   F211      1.0  0.06720  0.99294  0.18062  1.0000
  F   F212      1.0  0.06625  0.98886  0.66828  1.0000
  F   F213      1.0  0.32329  0.49656  0.16635  1.0000
  F   F214      1.0  0.32272  0.49615  0.66959  1.0000
  F   F215      1.0  0.33036  0.99466  0.15984  1.0000
  F   F216      1.0  0.31929  0.99207  0.67320  1.0000
  F   F217      1.0  0.57060  0.48115  0.18723  1.0000
  F   F218      1.0  0.56824  0.47447  0.68664  1.0000
  F   F219      1.0  0.56323  0.97056  0.19594  1.0000
  F   F220      1.0  0.56301  0.96839  0.69329  1.0000
  F   F221      1.0  0.82437  0.48701  0.15420  1.0000
  F   F222      1.0  0.80914  0.48512  0.68581  1.0000
  F   F223      1.0  0.81931  0.98252  0.17247  1.0000
  F   F224      1.0  0.81712  0.98157  0.68174  1.0000
  F   F225      1.0  0.24279  0.15922  0.41098  1.0000
  F   F226      1.0  0.24317  0.12238  0.92993  1.0000
  F   F227      1.0  0.24474  0.63282  0.43208  1.0000
  F   F228      1.0  0.23788  0.65878  0.91355  1.0000
  F   F229      1.0  0.49373  0.13214  0.44114  1.0000
  F   F230      1.0  0.49477  0.14312  0.91708  1.0000
  F   F231      1.0  0.49563  0.63704  0.42128  1.0000
  F   F232      1.0  0.49219  0.63699  0.92484  1.0000
  F   F233      1.0  0.73848  0.13146  0.42110  1.0000
  F   F234      1.0  0.73634  0.14280  0.93740  1.0000
  F   F235      1.0  0.74856  0.62911  0.42413  1.0000
  F   F236      1.0  0.74088  0.64584  0.91944  1.0000
  F   F237      1.0  0.99493  0.13389  0.42738  1.0000
  F   F238      1.0  0.99210  0.13912  0.91924  1.0000
  F   F239      1.0  0.98850  0.64050  0.42378  1.0000
  F   F240      1.0  0.99927  0.63869  0.92081  1.0000
  F   F241      1.0  0.18220  0.03392  0.30765  1.0000
  F   F242      1.0  0.18080  0.02117  0.81941  1.0000
  F   F243      1.0  0.17644  0.52368  0.31850  1.0000
  F   F244      1.0  0.18008  0.52038  0.80321  1.0000
  F   F245      1.0  0.42776  0.01606  0.31811  1.0000
  F   F246      1.0  0.42205  0.02084  0.84215  1.0000
  F   F247      1.0  0.42974  0.51335  0.32312  1.0000
  F   F248      1.0  0.43206  0.51764  0.82203  1.0000
  F   F249      1.0  0.67966  0.01506  0.31471  1.0000
  F   F250      1.0  0.68267  0.01144  0.82782  1.0000
  F   F251      1.0  0.67477  0.50327  0.34418  1.0000
  F   F252      1.0  0.68034  0.51777  0.82801  1.0000
  F   F253      1.0  0.92911  0.02075  0.32245  1.0000
  F   F254      1.0  0.92963  0.02127  0.81922  1.0000
  F   F255      1.0  0.92473  0.51184  0.32640  1.0000
  F   F256      1.0  0.93200  0.51589  0.82101  1.0000
  F   F257      1.0  0.99178  0.23556  0.01591  1.0000
  F   F258      1.0  0.00124  0.25962  0.48848  1.0000
  F   F259      1.0  0.99823  0.76306  0.99543  1.0000
  F   F260      1.0  0.99389  0.73439  0.51571  1.0000
  F   F261      1.0  0.25130  0.24450  0.99873  1.0000
  F   F262      1.0  0.25443  0.27260  0.48036  1.0000
  F   F263      1.0  0.25632  0.76398  0.99160  1.0000
  F   F264      1.0  0.25013  0.74182  0.50894  1.0000
  F   F265      1.0  0.50296  0.25164  0.99774  1.0000
  F   F266      1.0  0.49683  0.25006  0.50649  1.0000
  F   F267      1.0  0.50237  0.74077  0.01101  1.0000
  F   F268      1.0  0.49474  0.73901  0.50363  1.0000
  F   F269      1.0  0.74918  0.25471  0.99735  1.0000
  F   F270      1.0  0.74596  0.24118  0.49540  1.0000
  F   F271      1.0  0.75575  0.74342  0.00581  1.0000
  F   F272      1.0  0.74853  0.74496  0.49787  1.0000
  F   F273      1.0  0.12840  0.00442  0.24655  1.0000
  F   F274      1.0  0.12436  0.00744  0.74004  1.0000
  F   F275      1.0  0.12451  0.50756  0.23858  1.0000
  F   F276      1.0  0.11823  0.49937  0.75837  1.0000
  F   F277      1.0  0.38087  0.00043  0.23746  1.0000
  F   F278      1.0  0.37420  0.99524  0.75203  1.0000
  F   F279      1.0  0.37756  0.49270  0.24804  1.0000
  F   F280      1.0  0.36996  0.51126  0.75265  1.0000
  F   F281      1.0  0.62531  0.99801  0.24407  1.0000
  F   F282      1.0  0.62750  0.99245  0.74601  1.0000
  F   F283      1.0  0.62250  0.49445  0.25897  1.0000
  F   F284      1.0  0.62344  0.49558  0.74926  1.0000
  F   F285      1.0  0.87436  0.99081  0.24817  1.0000
  F   F286      1.0  0.86965  0.99054  0.76544  1.0000
  F   F287      1.0  0.85673  0.49191  0.27202  1.0000
  F   F288      1.0  0.87042  0.50501  0.74919  1.0000
  F   F289      1.0  0.04598  0.02960  0.01838  1.0000
  F   F290      1.0  0.04640  0.03029  0.51045  1.0000
  F   F291      1.0  0.04432  0.52225  0.01936  1.0000
  F   F292      1.0  0.04197  0.53949  0.52139  1.0000
  F   F293      1.0  0.29461  0.03042  0.02542  1.0000
  F   F294      1.0  0.29106  0.04031  0.52184  1.0000
  F   F295      1.0  0.29011  0.54277  0.02724  1.0000
  F   F296      1.0  0.29022  0.53798  0.53681  1.0000
  F   F297      1.0  0.54249  0.02345  0.02497  1.0000
  F   F298      1.0  0.54244  0.03238  0.53022  1.0000
  F   F299      1.0  0.54339  0.53243  0.04099  1.0000
  F   F300      1.0  0.54541  0.52656  0.51680  1.0000
  F   F301      1.0  0.79142  0.01991  0.02524  1.0000
  F   F302      1.0  0.78254  0.02427  0.53069  1.0000
  F   F303      1.0  0.79272  0.53865  0.01589  1.0000
  F   F304      1.0  0.79401  0.52896  0.52296  1.0000
  F   F305      1.0  0.24037  0.41327  0.22418  1.0000
  F   F306      1.0  0.23409  0.41137  0.73403  1.0000
  F   F307      1.0  0.23691  0.92730  0.22211  1.0000
  F   F308      1.0  0.23624  0.91888  0.73581  1.0000
  F   F309      1.0  0.48472  0.41198  0.23268  1.0000
  F   F310      1.0  0.48500  0.40157  0.73555  1.0000
  F   F311      1.0  0.48647  0.90647  0.23041  1.0000
  F   F312      1.0  0.48001  0.93175  0.71420  1.0000
  F   F313      1.0  0.73423  0.39509  0.24016  1.0000
  F   F314      1.0  0.72333  0.41791  0.72126  1.0000
  F   F315      1.0  0.72835  0.91140  0.22256  1.0000
  F   F316      1.0  0.73381  0.90639  0.72640  1.0000
  F   F317      1.0  0.98058  0.41544  0.22839  1.0000
  F   F318      1.0  0.97888  0.40223  0.74575  1.0000
  F   F319      1.0  0.98148  0.93110  0.22456  1.0000
  F   F320      1.0  0.98598  0.91995  0.71228  1.0000
  F   F321      1.0  0.21078  0.47118  0.44717  1.0000
  F   F322      1.0  0.20067  0.48566  0.97279  1.0000
  F   F323      1.0  0.20211  0.97727  0.47852  1.0000
  F   F324      1.0  0.20637  0.96547  0.97158  1.0000
  F   F325      1.0  0.44645  0.46746  0.48883  1.0000
  F   F326      1.0  0.46636  0.45687  0.96876  1.0000
  F   F327      1.0  0.45825  0.96747  0.47555  1.0000
  F   F328      1.0  0.44990  0.97596  0.98336  1.0000
  F   F329      1.0  0.71508  0.46530  0.46711  1.0000
  F   F330      1.0  0.71639  0.46922  0.96604  1.0000
  F   F331      1.0  0.70792  0.96018  0.47255  1.0000
  F   F332      1.0  0.70404  0.97006  0.99132  1.0000
  F   F333      1.0  0.94851  0.47391  0.48506  1.0000
  F   F334      1.0  0.96586  0.46931  0.96089  1.0000
  F   F335      1.0  0.96229  0.96961  0.46333  1.0000
  F   F336      1.0  0.95935  0.96885  0.96968  1.0000
  F   F337      1.0  0.01192  0.10330  0.26997  1.0000
  F   F338      1.0  0.01761  0.09051  0.76098  1.0000
  F   F339      1.0  0.01852  0.59038  0.26809  1.0000
  F   F340      1.0  0.01888  0.60086  0.77029  1.0000
  F   F341      1.0  0.26609  0.10656  0.26254  1.0000
  F   F342      1.0  0.26619  0.09489  0.75677  1.0000
  F   F343      1.0  0.26744  0.58405  0.25919  1.0000
  F   F344      1.0  0.26506  0.59260  0.76643  1.0000
  F   F345      1.0  0.51323  0.10027  0.26496  1.0000
  F   F346      1.0  0.51273  0.08007  0.78381  1.0000
  F   F347      1.0  0.51393  0.58635  0.27081  1.0000
  F   F348      1.0  0.51303  0.59064  0.76657  1.0000
  F   F349      1.0  0.76374  0.08808  0.26658  1.0000
  F   F350      1.0  0.76618  0.07771  0.78919  1.0000
  F   F351      1.0  0.77296  0.57134  0.27319  1.0000
  F   F352      1.0  0.76402  0.60069  0.76866  1.0000
  F   F353      1.0  0.10270  0.40754  0.45933  1.0000
  F   F354      1.0  0.09892  0.40376  0.96303  1.0000
  F   F355      1.0  0.10697  0.90659  0.45871  1.0000
  F   F356      1.0  0.10375  0.92662  0.94827  1.0000
  F   F357      1.0  0.34949  0.40636  0.46953  1.0000
  F   F358      1.0  0.35049  0.41978  0.96639  1.0000
  F   F359      1.0  0.35066  0.90280  0.45272  1.0000
  F   F360      1.0  0.35552  0.91158  0.96401  1.0000
  F   F361      1.0  0.59145  0.38467  0.47922  1.0000
  F   F362      1.0  0.60187  0.42908  0.96817  1.0000
  F   F363      1.0  0.59966  0.90385  0.46512  1.0000
  F   F364      1.0  0.60225  0.89060  0.95936  1.0000
  F   F365      1.0  0.85336  0.39695  0.46518  1.0000
  F   F366      1.0  0.85758  0.42131  0.95519  1.0000
  F   F367      1.0  0.85314  0.90564  0.47197  1.0000
  F   F368      1.0  0.85300  0.89255  0.97283  1.0000
  F   F369      1.0  0.04180  0.30360  0.27909  1.0000
  F   F370      1.0  0.04857  0.29995  0.77839  1.0000
  F   F371      1.0  0.04493  0.80156  0.28093  1.0000
  F   F372      1.0  0.04905  0.80100  0.78965  1.0000
  F   F373      1.0  0.30253  0.31505  0.28421  1.0000
  F   F374      1.0  0.29820  0.29848  0.79577  1.0000
  F   F375      1.0  0.29394  0.80111  0.29488  1.0000
  F   F376      1.0  0.30809  0.81816  0.78261  1.0000
  F   F377      1.0  0.54762  0.28863  0.28837  1.0000
  F   F378      1.0  0.55252  0.29463  0.79355  1.0000
  F   F379      1.0  0.54663  0.79036  0.28586  1.0000
  F   F380      1.0  0.53907  0.78688  0.78397  1.0000
  F   F381      1.0  0.79670  0.27850  0.28689  1.0000
  F   F382      1.0  0.77952  0.29540  0.80641  1.0000
  F   F383      1.0  0.78951  0.80658  0.28724  1.0000
  F   F384      1.0  0.79895  0.79522  0.79388  1.0000
