data_image0
_chemical_formula_structural       Hf96F384
_chemical_formula_sum              "Hf96 F384"
_cell_length_a       31.047
_cell_length_b       15.5275
_cell_length_c       15.5178
_cell_angle_alpha    63.342
_cell_angle_beta     63.342
_cell_angle_gamma    80.1625

_space_group_name_H-M_alt    "P 1"
_space_group_IT_number       1

loop_
  _space_group_symop_operation_xyz
  'x, y, z'

loop_
  _atom_site_type_symbol
  _atom_site_label
  _atom_site_symmetry_multiplicity
  _atom_site_fract_x
  _atom_site_fract_y
  _atom_site_fract_z
  _atom_site_occupancy
  Hf  Hf1       1.0  0.19906  0.11522  0.36512  1.0000
  Hf  Hf2       1.0  0.19740  0.10236  0.87419  1.0000
  Hf  Hf3       1.0  0.19987  0.61245  0.37295  1.0000
  Hf  Hf4       1.0  0.19832  0.60314  0.86498  1.0000
  Hf  Hf5       1.0  0.44725  0.10765  0.38613  1.0000
  Hf  Hf6       1.0  0.44904  0.10910  0.87127  1.0000
  Hf  Hf7       1.0  0.44798  0.60595  0.37350  1.0000
  Hf  Hf8       1.0  0.44765  0.60132  0.88063  1.0000
  Hf  Hf9       1.0  0.69235  0.10202  0.38387  1.0000
  Hf  Hf10      1.0  0.69513  0.10671  0.87502  1.0000
  Hf  Hf11      1.0  0.69609  0.61349  0.36219  1.0000
  Hf  Hf12      1.0  0.69823  0.61100  0.87365  1.0000
  Hf  Hf13      1.0  0.94673  0.11594  0.37372  1.0000
  Hf  Hf14      1.0  0.94720  0.11150  0.87753  1.0000
  Hf  Hf15      1.0  0.94499  0.60912  0.37645  1.0000
  Hf  Hf16      1.0  0.94507  0.61402  0.87080  1.0000
  Hf  Hf17      1.0  0.05386  0.39541  0.12418  1.0000
  Hf  Hf18      1.0  0.05155  0.39310  0.63167  1.0000
  Hf  Hf19      1.0  0.05328  0.88718  0.12888  1.0000
  Hf  Hf20      1.0  0.05694  0.89665  0.61304  1.0000
  Hf  Hf21      1.0  0.30705  0.39730  0.12957  1.0000
  Hf  Hf22      1.0  0.30806  0.39304  0.61532  1.0000
  Hf  Hf23      1.0  0.30774  0.89970  0.12219  1.0000
  Hf  Hf24      1.0  0.30141  0.89393  0.62431  1.0000
  Hf  Hf25      1.0  0.55672  0.39822  0.11507  1.0000
  Hf  Hf26      1.0  0.55228  0.38006  0.64239  1.0000
  Hf  Hf27      1.0  0.55628  0.89743  0.12298  1.0000
  Hf  Hf28      1.0  0.55272  0.89188  0.62299  1.0000
  Hf  Hf29      1.0  0.79932  0.39356  0.11643  1.0000
  Hf  Hf30      1.0  0.80307  0.39535  0.62580  1.0000
  Hf  Hf31      1.0  0.80442  0.89252  0.11970  1.0000
  Hf  Hf32      1.0  0.79974  0.87798  0.62463  1.0000
  Hf  Hf33      1.0  0.05942  0.17945  0.41304  1.0000
  Hf  Hf34      1.0  0.05974  0.18943  0.91147  1.0000
  Hf  Hf35      1.0  0.05561  0.67981  0.42061  1.0000
  Hf  Hf36      1.0  0.05593  0.68407  0.91157  1.0000
  Hf  Hf37      1.0  0.30500  0.17400  0.42539  1.0000
  Hf  Hf38      1.0  0.30593  0.18627  0.92517  1.0000
  Hf  Hf39      1.0  0.30909  0.68429  0.41039  1.0000
  Hf  Hf40      1.0  0.30895  0.67686  0.91847  1.0000
  Hf  Hf41      1.0  0.55594  0.19077  0.41320  1.0000
  Hf  Hf42      1.0  0.55847  0.18119  0.91897  1.0000
  Hf  Hf43      1.0  0.55539  0.68427  0.41929  1.0000
  Hf  Hf44      1.0  0.55513  0.68143  0.91275  1.0000
  Hf  Hf45      1.0  0.80372  0.17846  0.42153  1.0000
  Hf  Hf46      1.0  0.80491  0.17954  0.91619  1.0000
  Hf  Hf47      1.0  0.80607  0.67679  0.41185  1.0000
  Hf  Hf48      1.0  0.80451  0.68858  0.90777  1.0000
  Hf  Hf49      1.0  0.15827  0.38867  0.33717  1.0000
  Hf  Hf50      1.0  0.16461  0.38397  0.83169  1.0000
  Hf  Hf51      1.0  0.16020  0.88666  0.33093  1.0000
  Hf  Hf52      1.0  0.15206  0.88251  0.84210  1.0000
  Hf  Hf53      1.0  0.40875  0.38540  0.33324  1.0000
  Hf  Hf54      1.0  0.41202  0.38399  0.83909  1.0000
  Hf  Hf55      1.0  0.41048  0.88705  0.33770  1.0000
  Hf  Hf56      1.0  0.40679  0.88946  0.83070  1.0000
  Hf  Hf57      1.0  0.65718  0.38481  0.33480  1.0000
  Hf  Hf58      1.0  0.65899  0.38971  0.83535  1.0000
  Hf  Hf59      1.0  0.65775  0.88616  0.32954  1.0000
  Hf  Hf60      1.0  0.65995  0.88545  0.83006  1.0000
  Hf  Hf61      1.0  0.90573  0.39385  0.33328  1.0000
  Hf  Hf62      1.0  0.90772  0.39159  0.83087  1.0000
  Hf  Hf63      1.0  0.90808  0.88501  0.33878  1.0000
  Hf  Hf64      1.0  0.91131  0.88685  0.83299  1.0000
  Hf  Hf65      1.0  0.19460  0.32207  0.09124  1.0000
  Hf  Hf66      1.0  0.19149  0.32112  0.58913  1.0000
  Hf  Hf67      1.0  0.19458  0.81928  0.07754  1.0000
  Hf  Hf68      1.0  0.19253  0.81495  0.58266  1.0000
  Hf  Hf69      1.0  0.44435  0.31554  0.08637  1.0000
  Hf  Hf70      1.0  0.44314  0.32240  0.58426  1.0000
  Hf  Hf71      1.0  0.44704  0.82969  0.07527  1.0000
  Hf  Hf72      1.0  0.44280  0.81251  0.59273  1.0000
  Hf  Hf73      1.0  0.68989  0.30754  0.09289  1.0000
  Hf  Hf74      1.0  0.69709  0.32650  0.57349  1.0000
  Hf  Hf75      1.0  0.69189  0.81901  0.08122  1.0000
  Hf  Hf76      1.0  0.69159  0.81372  0.58046  1.0000
  Hf  Hf77      1.0  0.94496  0.32136  0.07944  1.0000
  Hf  Hf78      1.0  0.94361  0.32607  0.58079  1.0000
  Hf  Hf79      1.0  0.94115  0.81994  0.08941  1.0000
  Hf  Hf80      1.0  0.94168  0.81763  0.58196  1.0000
  Hf  Hf81      1.0  0.09270  0.09976  0.16331  1.0000
  Hf  Hf82      1.0  0.09358  0.11491  0.66557  1.0000
  Hf  Hf83      1.0  0.08964  0.60788  0.17457  1.0000
  Hf  Hf84      1.0  0.09084  0.61310  0.66257  1.0000
  Hf  Hf85      1.0  0.34539  0.10912  0.16596  1.0000
  Hf  Hf86      1.0  0.33544  0.11085  0.68280  1.0000
  Hf  Hf87      1.0  0.34259  0.61896  0.16589  1.0000
  Hf  Hf88      1.0  0.34377  0.61085  0.66074  1.0000
  Hf  Hf89      1.0  0.58990  0.11503  0.16856  1.0000
  Hf  Hf90      1.0  0.59013  0.11339  0.66284  1.0000
  Hf  Hf91      1.0  0.59030  0.61684  0.16705  1.0000
  Hf  Hf92      1.0  0.59271  0.60901  0.66483  1.0000
  Hf  Hf93      1.0  0.83987  0.11325  0.16789  1.0000
  Hf  Hf94      1.0  0.84599  0.11451  0.65920  1.0000
  Hf  Hf95      1.0  0.83808  0.60434  0.15884  1.0000
  Hf  Hf96      1.0  0.83840  0.60137  0.67199  1.0000
  F   F1        1.0  0.07914  0.12268  0.29960  1.0000
  F   F2        1.0  0.08335  0.14309  0.79537  1.0000
  F   F3        1.0  0.07311  0.61224  0.32420  1.0000
  F   F4        1.0  0.07844  0.62877  0.79977  1.0000
  F   F5        1.0  0.33020  0.13921  0.29933  1.0000
  F   F6        1.0  0.32780  0.12124  0.81310  1.0000
  F   F7        1.0  0.33329  0.62701  0.30384  1.0000
  F   F8        1.0  0.33277  0.62234  0.80794  1.0000
  F   F9        1.0  0.57513  0.13883  0.30331  1.0000
  F   F10       1.0  0.58754  0.14141  0.79800  1.0000
  F   F11       1.0  0.57457  0.63538  0.30028  1.0000
  F   F12       1.0  0.58622  0.63801  0.79647  1.0000
  F   F13       1.0  0.82303  0.13345  0.30366  1.0000
  F   F14       1.0  0.82998  0.13139  0.79819  1.0000
  F   F15       1.0  0.83240  0.64098  0.29082  1.0000
  F   F16       1.0  0.82977  0.64056  0.79492  1.0000
  F   F17       1.0  0.17721  0.33010  0.46034  1.0000
  F   F18       1.0  0.18874  0.34410  0.94788  1.0000
  F   F19       1.0  0.18606  0.85286  0.44177  1.0000
  F   F20       1.0  0.16834  0.83747  0.96794  1.0000
  F   F21       1.0  0.43647  0.31888  0.45974  1.0000
  F   F22       1.0  0.44453  0.34598  0.94239  1.0000
  F   F23       1.0  0.44021  0.84245  0.44967  1.0000
  F   F24       1.0  0.42464  0.82460  0.95533  1.0000
  F   F25       1.0  0.69803  0.35112  0.43239  1.0000
  F   F26       1.0  0.69101  0.35602  0.93972  1.0000
  F   F27       1.0  0.67214  0.82417  0.46226  1.0000
  F   F28       1.0  0.67548  0.82610  0.95903  1.0000
  F   F29       1.0  0.93642  0.35641  0.44211  1.0000
  F   F30       1.0  0.93038  0.33401  0.95540  1.0000
  F   F31       1.0  0.93708  0.84415  0.44285  1.0000
  F   F32       1.0  0.93524  0.83019  0.94965  1.0000
  F   F33       1.0  0.17004  0.38480  0.20047  1.0000
  F   F34       1.0  0.17215  0.37337  0.69930  1.0000
  F   F35       1.0  0.16569  0.87506  0.19654  1.0000
  F   F36       1.0  0.16931  0.86518  0.69754  1.0000
  F   F37       1.0  0.42498  0.37011  0.18906  1.0000
  F   F38       1.0  0.41941  0.37226  0.69425  1.0000
  F   F39       1.0  0.42285  0.87049  0.19144  1.0000
  F   F40       1.0  0.42469  0.87614  0.68866  1.0000
  F   F41       1.0  0.67392  0.37854  0.18939  1.0000
  F   F42       1.0  0.67345  0.38699  0.68986  1.0000
  F   F43       1.0  0.66473  0.85197  0.20607  1.0000
  F   F44       1.0  0.67716  0.87435  0.68312  1.0000
  F   F45       1.0  0.92353  0.38084  0.18428  1.0000
  F   F46       1.0  0.92046  0.38956  0.69217  1.0000
  F   F47       1.0  0.91846  0.87445  0.20300  1.0000
  F   F48       1.0  0.91576  0.86699  0.70101  1.0000
  F   F49       1.0  0.06562  0.15428  0.05607  1.0000
  F   F50       1.0  0.06202  0.15948  0.55677  1.0000
  F   F51       1.0  0.08099  0.66505  0.03555  1.0000
  F   F52       1.0  0.06476  0.65812  0.54948  1.0000
  F   F53       1.0  0.32086  0.16830  0.04316  1.0000
  F   F54       1.0  0.31499  0.15731  0.55528  1.0000
  F   F55       1.0  0.30941  0.65255  0.06548  1.0000
  F   F56       1.0  0.31678  0.65853  0.54705  1.0000
  F   F57       1.0  0.55597  0.15192  0.07102  1.0000
  F   F58       1.0  0.56806  0.17670  0.53967  1.0000
  F   F59       1.0  0.55295  0.65481  0.06557  1.0000
  F   F60       1.0  0.56359  0.65628  0.55965  1.0000
  F   F61       1.0  0.81956  0.16475  0.04910  1.0000
  F   F62       1.0  0.82133  0.14718  0.54792  1.0000
  F   F63       1.0  0.80513  0.64884  0.05394  1.0000
  F   F64       1.0  0.80971  0.64425  0.55710  1.0000
  F   F65       1.0  0.20991  0.21367  0.20535  1.0000
  F   F66       1.0  0.20103  0.20428  0.71659  1.0000
  F   F67       1.0  0.20816  0.70925  0.21268  1.0000
  F   F68       1.0  0.21012  0.69688  0.69308  1.0000
  F   F69       1.0  0.45410  0.19899  0.21990  1.0000
  F   F70       1.0  0.46293  0.21756  0.70157  1.0000
  F   F71       1.0  0.46004  0.70529  0.20369  1.0000
  F   F72       1.0  0.44774  0.68418  0.71114  1.0000
  F   F73       1.0  0.69729  0.19729  0.22199  1.0000
  F   F74       1.0  0.67938  0.20388  0.72238  1.0000
  F   F75       1.0  0.71242  0.69297  0.20251  1.0000
  F   F76       1.0  0.70358  0.69644  0.70891  1.0000
  F   F77       1.0  0.95990  0.21536  0.20162  1.0000
  F   F78       1.0  0.94826  0.19773  0.72698  1.0000
  F   F79       1.0  0.95221  0.72642  0.22336  1.0000
  F   F80       1.0  0.94770  0.69075  0.72339  1.0000
  F   F81       1.0  0.15023  0.08102  0.03680  1.0000
  F   F82       1.0  0.14627  0.10378  0.53674  1.0000
  F   F83       1.0  0.14772  0.58244  0.07261  1.0000
  F   F84       1.0  0.14681  0.60091  0.52657  1.0000
  F   F85       1.0  0.40291  0.07970  0.04283  1.0000
  F   F86       1.0  0.39410  0.10311  0.54250  1.0000
  F   F87       1.0  0.40189  0.59311  0.03578  1.0000
  F   F88       1.0  0.41050  0.58203  0.54138  1.0000
  F   F89       1.0  0.65149  0.08596  0.05351  1.0000
  F   F90       1.0  0.64261  0.07453  0.53361  1.0000
  F   F91       1.0  0.64849  0.61314  0.03844  1.0000
  F   F92       1.0  0.65181  0.59588  0.52004  1.0000
  F   F93       1.0  0.89879  0.11065  0.02946  1.0000
  F   F94       1.0  0.90396  0.09207  0.54159  1.0000
  F   F95       1.0  0.89617  0.59159  0.03283  1.0000
  F   F96       1.0  0.89532  0.59105  0.53268  1.0000
  F   F97       1.0  0.15327  0.19694  0.11522  1.0000
  F   F98       1.0  0.15253  0.18581  0.63140  1.0000
  F   F99       1.0  0.14525  0.70580  0.14568  1.0000
  F   F100      1.0  0.15492  0.69801  0.60243  1.0000
  F   F101      1.0  0.40405  0.19258  0.10818  1.0000
  F   F102      1.0  0.39324  0.20015  0.64211  1.0000
  F   F103      1.0  0.40127  0.69408  0.14329  1.0000
  F   F104      1.0  0.39950  0.70265  0.60850  1.0000
  F   F105      1.0  0.65050  0.19216  0.13550  1.0000
  F   F106      1.0  0.65547  0.17663  0.59941  1.0000
  F   F107      1.0  0.65383  0.69020  0.14320  1.0000
  F   F108      1.0  0.65791  0.67359  0.62000  1.0000
  F   F109      1.0  0.89502  0.20111  0.14416  1.0000
  F   F110      1.0  0.90000  0.21192  0.63202  1.0000
  F   F111      1.0  0.90792  0.69099  0.13169  1.0000
  F   F112      1.0  0.90575  0.70018  0.60890  1.0000
  F   F113      1.0  0.09838  0.30346  0.37689  1.0000
  F   F114      1.0  0.10422  0.31004  0.87617  1.0000
  F   F115      1.0  0.10601  0.80205  0.37481  1.0000
  F   F116      1.0  0.09409  0.80969  0.86483  1.0000
  F   F117      1.0  0.35125  0.30000  0.35609  1.0000
  F   F118      1.0  0.35085  0.31735  0.88127  1.0000
  F   F119      1.0  0.35594  0.80001  0.37454  1.0000
  F   F120      1.0  0.34738  0.79565  0.87991  1.0000
  F   F121      1.0  0.60274  0.30431  0.35306  1.0000
  F   F122      1.0  0.60195  0.28738  0.88236  1.0000
  F   F123      1.0  0.59612  0.81071  0.38590  1.0000
  F   F124      1.0  0.60543  0.78353  0.88352  1.0000
  F   F125      1.0  0.84873  0.31612  0.37329  1.0000
  F   F126      1.0  0.85093  0.29208  0.86375  1.0000
  F   F127      1.0  0.84834  0.78850  0.37190  1.0000
  F   F128      1.0  0.84554  0.78930  0.88149  1.0000
  F   F129      1.0  0.05582  0.23455  0.15748  1.0000
  F   F130      1.0  0.06922  0.25383  0.64559  1.0000
  F   F131      1.0  0.06088  0.75414  0.16011  1.0000
  F   F132      1.0  0.06980  0.74823  0.62467  1.0000
  F   F133      1.0  0.31420  0.25496  0.13907  1.0000
  F   F134      1.0  0.30604  0.24919  0.65176  1.0000
  F   F135      1.0  0.32411  0.75550  0.12408  1.0000
  F   F136      1.0  0.30828  0.74127  0.66089  1.0000
  F   F137      1.0  0.56504  0.25473  0.13570  1.0000
  F   F138      1.0  0.55966  0.24450  0.66780  1.0000
  F   F139      1.0  0.57315  0.75871  0.13022  1.0000
  F   F140      1.0  0.57759  0.75000  0.62739  1.0000
  F   F141      1.0  0.80009  0.25234  0.15495  1.0000
  F   F142      1.0  0.81985  0.26577  0.62315  1.0000
  F   F143      1.0  0.82090  0.74641  0.12384  1.0000
  F   F144      1.0  0.80586  0.72976  0.65525  1.0000
  F   F145      1.0  0.12939  0.37474  0.10876  1.0000
  F   F146      1.0  0.12179  0.36527  0.62501  1.0000
  F   F147      1.0  0.12333  0.88450  0.10720  1.0000
  F   F148      1.0  0.12574  0.85912  0.60737  1.0000
  F   F149      1.0  0.37429  0.34952  0.13062  1.0000
  F   F150      1.0  0.37652  0.39097  0.59098  1.0000
  F   F151      1.0  0.38160  0.89173  0.09012  1.0000
  F   F152      1.0  0.37228  0.88483  0.59178  1.0000
  F   F153      1.0  0.62519  0.36424  0.10331  1.0000
  F   F154      1.0  0.62745  0.35745  0.61153  1.0000
  F   F155      1.0  0.62804  0.89574  0.08894  1.0000
  F   F156      1.0  0.61916  0.85206  0.63336  1.0000
  F   F157      1.0  0.87132  0.37357  0.10589  1.0000
  F   F158      1.0  0.87427  0.39994  0.60037  1.0000
  F   F159      1.0  0.87221  0.87353  0.11390  1.0000
  F   F160      1.0  0.87090  0.86455  0.61249  1.0000
  F   F161      1.0  0.18359  0.25030  0.36024  1.0000
  F   F162      1.0  0.18970  0.24806  0.85387  1.0000
  F   F163      1.0  0.18897  0.75088  0.35316  1.0000
  F   F164      1.0  0.18116  0.74624  0.85927  1.0000
  F   F165      1.0  0.44051  0.25194  0.35180  1.0000
  F   F166      1.0  0.43280  0.24393  0.87555  1.0000
  F   F167      1.0  0.44506  0.75180  0.35344  1.0000
  F   F168      1.0  0.43725  0.75161  0.83832  1.0000
  F   F169      1.0  0.68130  0.25566  0.36330  1.0000
  F   F170      1.0  0.68243  0.24915  0.85200  1.0000
  F   F171      1.0  0.69163  0.75231  0.34216  1.0000
  F   F172      1.0  0.70089  0.75955  0.83387  1.0000
  F   F173      1.0  0.93115  0.25610  0.36319  1.0000
  F   F174      1.0  0.93354  0.25291  0.85452  1.0000
  F   F175      1.0  0.93425  0.74631  0.37379  1.0000
  F   F176      1.0  0.93689  0.75295  0.84878  1.0000
  F   F177      1.0  0.12518  0.13033  0.39738  1.0000
  F   F178      1.0  0.12722  0.11878  0.89955  1.0000
  F   F179      1.0  0.12854  0.63561  0.38438  1.0000
  F   F180      1.0  0.13194  0.61685  0.89182  1.0000
  F   F181      1.0  0.37281  0.11053  0.42129  1.0000
  F   F182      1.0  0.37839  0.12868  0.89045  1.0000
  F   F183      1.0  0.37595  0.62588  0.40255  1.0000
  F   F184      1.0  0.37666  0.61262  0.90259  1.0000
  F   F185      1.0  0.62331  0.13485  0.38239  1.0000
  F   F186      1.0  0.62070  0.11083  0.92290  1.0000
  F   F187      1.0  0.62803  0.65998  0.36382  1.0000
  F   F188      1.0  0.62230  0.61282  0.91309  1.0000
  F   F189      1.0  0.87690  0.13887  0.37883  1.0000
  F   F190      1.0  0.87206  0.11325  0.90119  1.0000
  F   F191      1.0  0.87368  0.62034  0.39114  1.0000
  F   F192      1.0  0.87103  0.60928  0.90373  1.0000
  F   F193      1.0  0.01256  0.37873  0.05367  1.0000
  F   F194      1.0  0.00628  0.35699  0.58533  1.0000
  F   F195      1.0  0.00473  0.86436  0.06519  1.0000
  F   F196      1.0  0.00724  0.86726  0.57751  1.0000
  F   F197      1.0  0.25808  0.36775  0.06836  1.0000
  F   F198      1.0  0.25534  0.37101  0.57535  1.0000
  F   F199      1.0  0.26046  0.86105  0.08832  1.0000
  F   F200      1.0  0.24755  0.85913  0.58809  1.0000
  F   F201      1.0  0.50970  0.36046  0.08212  1.0000
  F   F202      1.0  0.50649  0.37576  0.57182  1.0000
  F   F203      1.0  0.50628  0.86650  0.08525  1.0000
  F   F204      1.0  0.50567  0.84640  0.59069  1.0000
  F   F205      1.0  0.75743  0.36697  0.05066  1.0000
  F   F206      1.0  0.75371  0.35799  0.57995  1.0000
  F   F207      1.0  0.75426  0.85296  0.09054  1.0000
  F   F208      1.0  0.75912  0.86842  0.55817  1.0000
  F   F209      1.0  0.07086  0.48887  0.16943  1.0000
  F   F210      1.0  0.06633  0.47777  0.69619  1.0000
  F   F211      1.0  0.06008  0.97806  0.19734  1.0000
  F   F212      1.0  0.06814  0.98472  0.67043  1.0000
  F   F213      1.0  0.32475  0.48045  0.17950  1.0000
  F   F214      1.0  0.32112  0.49008  0.66812  1.0000
  F   F215      1.0  0.32036  0.99172  0.17084  1.0000
  F   F216      1.0  0.31718  0.98407  0.67682  1.0000
  F   F217      1.0  0.57504  0.49051  0.15843  1.0000
  F   F218      1.0  0.56605  0.47656  0.68454  1.0000
  F   F219      1.0  0.56751  0.98169  0.17627  1.0000
  F   F220      1.0  0.57222  0.98966  0.66156  1.0000
  F   F221      1.0  0.81204  0.47453  0.17514  1.0000
  F   F222      1.0  0.80626  0.48459  0.69482  1.0000
  F   F223      1.0  0.82728  0.99272  0.15494  1.0000
  F   F224      1.0  0.81711  0.99434  0.69561  1.0000
  F   F225      1.0  0.23642  0.13623  0.43360  1.0000
  F   F226      1.0  0.24469  0.13923  0.91386  1.0000
  F   F227      1.0  0.24173  0.64206  0.42247  1.0000
  F   F228      1.0  0.24140  0.63080  0.93021  1.0000
  F   F229      1.0  0.49027  0.14563  0.43310  1.0000
  F   F230      1.0  0.49672  0.13137  0.91991  1.0000
  F   F231      1.0  0.49583  0.63085  0.43026  1.0000
  F   F232      1.0  0.48877  0.64596  0.93983  1.0000
  F   F233      1.0  0.73213  0.12617  0.44705  1.0000
  F   F234      1.0  0.74088  0.12831  0.92463  1.0000
  F   F235      1.0  0.74575  0.62830  0.41356  1.0000
  F   F236      1.0  0.74196  0.64305  0.92139  1.0000
  F   F237      1.0  0.99150  0.14216  0.43056  1.0000
  F   F238      1.0  0.99655  0.13889  0.92034  1.0000
  F   F239      1.0  0.99202  0.64060  0.43604  1.0000
  F   F240      1.0  0.98277  0.64850  0.92506  1.0000
  F   F241      1.0  0.18176  0.02379  0.31712  1.0000
  F   F242      1.0  0.17313  0.00200  0.84048  1.0000
  F   F243      1.0  0.17770  0.51674  0.32983  1.0000
  F   F244      1.0  0.18268  0.51172  0.80868  1.0000
  F   F245      1.0  0.43156  0.01397  0.32814  1.0000
  F   F246      1.0  0.42915  0.00826  0.83664  1.0000
  F   F247      1.0  0.43119  0.51053  0.32947  1.0000
  F   F248      1.0  0.44186  0.51772  0.81282  1.0000
  F   F249      1.0  0.67750  0.02855  0.31189  1.0000
  F   F250      1.0  0.67994  0.00699  0.82752  1.0000
  F   F251      1.0  0.67887  0.51901  0.32203  1.0000
  F   F252      1.0  0.67958  0.52355  0.81364  1.0000
  F   F253      1.0  0.92307  0.01951  0.33546  1.0000
  F   F254      1.0  0.93411  0.00317  0.83285  1.0000
  F   F255      1.0  0.93072  0.52182  0.31446  1.0000
  F   F256      1.0  0.92690  0.51009  0.82385  1.0000
  F   F257      1.0  0.99087  0.22930  0.01838  1.0000
  F   F258      1.0  0.99851  0.25823  0.49601  1.0000
  F   F259      1.0  0.00325  0.74043  0.99913  1.0000
  F   F260      1.0  0.99767  0.75048  0.50817  1.0000
  F   F261      1.0  0.25320  0.25414  0.99718  1.0000
  F   F262      1.0  0.24575  0.24762  0.50607  1.0000
  F   F263      1.0  0.24584  0.73755  0.01178  1.0000
  F   F264      1.0  0.25619  0.77652  0.46483  1.0000
  F   F265      1.0  0.50201  0.25508  0.00279  1.0000
  F   F266      1.0  0.50316  0.25604  0.49941  1.0000
  F   F267      1.0  0.50518  0.77012  0.98111  1.0000
  F   F268      1.0  0.49940  0.74487  0.50969  1.0000
  F   F269      1.0  0.74391  0.22919  0.01484  1.0000
  F   F270      1.0  0.75094  0.22505  0.52839  1.0000
  F   F271      1.0  0.74836  0.76994  0.97746  1.0000
  F   F272      1.0  0.75295  0.76331  0.48407  1.0000
  F   F273      1.0  0.12523  0.00028  0.25018  1.0000
  F   F274      1.0  0.11608  0.99735  0.75877  1.0000
  F   F275      1.0  0.11760  0.49569  0.26656  1.0000
  F   F276      1.0  0.12552  0.50436  0.76173  1.0000
  F   F277      1.0  0.37543  0.00305  0.25696  1.0000
  F   F278      1.0  0.37955  0.99667  0.74556  1.0000
  F   F279      1.0  0.37833  0.49067  0.25606  1.0000
  F   F280      1.0  0.38090  0.50642  0.74910  1.0000
  F   F281      1.0  0.62303  0.99731  0.25497  1.0000
  F   F282      1.0  0.62307  0.99480  0.74992  1.0000
  F   F283      1.0  0.61496  0.48658  0.26235  1.0000
  F   F284      1.0  0.61578  0.49409  0.75976  1.0000
  F   F285      1.0  0.87318  0.99973  0.25328  1.0000
  F   F286      1.0  0.88191  0.99784  0.73939  1.0000
  F   F287      1.0  0.86943  0.49826  0.24571  1.0000
  F   F288      1.0  0.86214  0.48618  0.77235  1.0000
  F   F289      1.0  0.04380  0.02887  0.03090  1.0000
  F   F290      1.0  0.03641  0.03334  0.52536  1.0000
  F   F291      1.0  0.04277  0.53785  0.02020  1.0000
  F   F292      1.0  0.03977  0.52880  0.54088  1.0000
  F   F293      1.0  0.29201  0.03072  0.02780  1.0000
  F   F294      1.0  0.29460  0.02303  0.51250  1.0000
  F   F295      1.0  0.28860  0.52327  0.03675  1.0000
  F   F296      1.0  0.29097  0.52593  0.52174  1.0000
  F   F297      1.0  0.54318  0.03354  0.01609  1.0000
  F   F298      1.0  0.53744  0.04075  0.53136  1.0000
  F   F299      1.0  0.54149  0.53180  0.99617  1.0000
  F   F300      1.0  0.55453  0.51734  0.52313  1.0000
  F   F301      1.0  0.78252  0.03289  0.03950  1.0000
  F   F302      1.0  0.80451  0.02007  0.50904  1.0000
  F   F303      1.0  0.78508  0.53331  0.01249  1.0000
  F   F304      1.0  0.78312  0.52063  0.53979  1.0000
  F   F305      1.0  0.23836  0.42049  0.21947  1.0000
  F   F306      1.0  0.24169  0.40380  0.73970  1.0000
  F   F307      1.0  0.23705  0.91027  0.22960  1.0000
  F   F308      1.0  0.22855  0.90728  0.73368  1.0000
  F   F309      1.0  0.48118  0.42624  0.22345  1.0000
  F   F310      1.0  0.48352  0.40883  0.72865  1.0000
  F   F311      1.0  0.48501  0.91396  0.23314  1.0000
  F   F312      1.0  0.48414  0.92163  0.72340  1.0000
  F   F313      1.0  0.73418  0.39123  0.22918  1.0000
  F   F314      1.0  0.73081  0.41289  0.73160  1.0000
  F   F315      1.0  0.72855  0.92483  0.24051  1.0000
  F   F316      1.0  0.73360  0.91646  0.73085  1.0000
  F   F317      1.0  0.98463  0.40762  0.23137  1.0000
  F   F318      1.0  0.98219  0.41693  0.73584  1.0000
  F   F319      1.0  0.98209  0.91372  0.22566  1.0000
  F   F320      1.0  0.98456  0.90112  0.73063  1.0000
  F   F321      1.0  0.20242  0.46013  0.48705  1.0000
  F   F322      1.0  0.20234  0.47028  0.98323  1.0000
  F   F323      1.0  0.20086  0.97674  0.48045  1.0000
  F   F324      1.0  0.21566  0.96407  0.96072  1.0000
  F   F325      1.0  0.46644  0.46091  0.45584  1.0000
  F   F326      1.0  0.45043  0.47244  0.98492  1.0000
  F   F327      1.0  0.45376  0.97542  0.49416  1.0000
  F   F328      1.0  0.46799  0.97270  0.96352  1.0000
  F   F329      1.0  0.71430  0.47607  0.46253  1.0000
  F   F330      1.0  0.69805  0.47537  0.98431  1.0000
  F   F331      1.0  0.70266  0.95977  0.47472  1.0000
  F   F332      1.0  0.71467  0.97228  0.96133  1.0000
  F   F333      1.0  0.95113  0.47803  0.48677  1.0000
  F   F334      1.0  0.95297  0.46855  0.97525  1.0000
  F   F335      1.0  0.95496  0.96594  0.48558  1.0000
  F   F336      1.0  0.95291  0.97726  0.97710  1.0000
  F   F337      1.0  0.00752  0.08129  0.28193  1.0000
  F   F338      1.0  0.01955  0.08561  0.77394  1.0000
  F   F339      1.0  0.01059  0.58950  0.26395  1.0000
  F   F340      1.0  0.01366  0.59887  0.77318  1.0000
  F   F341      1.0  0.26952  0.10426  0.25628  1.0000
  F   F342      1.0  0.26595  0.06850  0.77453  1.0000
  F   F343      1.0  0.26900  0.57951  0.27534  1.0000
  F   F344      1.0  0.26700  0.57343  0.77313  1.0000
  F   F345      1.0  0.51665  0.07219  0.29693  1.0000
  F   F346      1.0  0.51764  0.08196  0.76399  1.0000
  F   F347      1.0  0.51396  0.57803  0.27596  1.0000
  F   F348      1.0  0.51944  0.60155  0.76894  1.0000
  F   F349      1.0  0.76294  0.08014  0.27415  1.0000
  F   F350      1.0  0.76481  0.11575  0.75502  1.0000
  F   F351      1.0  0.77025  0.56112  0.27907  1.0000
  F   F352      1.0  0.76714  0.57674  0.79388  1.0000
  F   F353      1.0  0.09979  0.41818  0.47290  1.0000
  F   F354      1.0  0.10567  0.41180  0.96834  1.0000
  F   F355      1.0  0.10398  0.92851  0.45924  1.0000
  F   F356      1.0  0.09095  0.91142  0.97571  1.0000
  F   F357      1.0  0.35041  0.41251  0.45772  1.0000
  F   F358      1.0  0.35984  0.41940  0.96114  1.0000
  F   F359      1.0  0.34482  0.89156  0.46887  1.0000
  F   F360      1.0  0.34715  0.90904  0.96334  1.0000
  F   F361      1.0  0.60487  0.39849  0.46117  1.0000
  F   F362      1.0  0.59830  0.39459  0.95767  1.0000
  F   F363      1.0  0.60101  0.92326  0.46532  1.0000
  F   F364      1.0  0.60017  0.90917  0.96220  1.0000
  F   F365      1.0  0.84973  0.41852  0.45547  1.0000
  F   F366      1.0  0.85040  0.39738  0.96307  1.0000
  F   F367      1.0  0.84715  0.88998  0.46680  1.0000
  F   F368      1.0  0.84271  0.90678  0.96777  1.0000
  F   F369      1.0  0.05286  0.29017  0.28702  1.0000
  F   F370      1.0  0.03610  0.29908  0.80181  1.0000
  F   F371      1.0  0.05069  0.79594  0.29719  1.0000
  F   F372      1.0  0.04214  0.79259  0.78354  1.0000
  F   F373      1.0  0.28925  0.29406  0.29618  1.0000
  F   F374      1.0  0.30967  0.29488  0.78456  1.0000
  F   F375      1.0  0.30671  0.79945  0.27532  1.0000
  F   F376      1.0  0.29883  0.78861  0.79597  1.0000
  F   F377      1.0  0.53814  0.30987  0.28133  1.0000
  F   F378      1.0  0.54859  0.29912  0.80050  1.0000
  F   F379      1.0  0.54464  0.79504  0.28837  1.0000
  F   F380      1.0  0.54176  0.79440  0.79170  1.0000
  F   F381      1.0  0.80006  0.29227  0.29983  1.0000
  F   F382      1.0  0.79112  0.29523  0.79375  1.0000
  F   F383      1.0  0.79515  0.79836  0.27558  1.0000
  F   F384      1.0  0.79929  0.81395  0.76955  1.0000
