data_image0
_chemical_formula_structural       Hf96F384
_chemical_formula_sum              "Hf96 F384"
_cell_length_a       31.0272
_cell_length_b       15.5137
_cell_length_c       15.5071
_cell_angle_alpha    63.342
_cell_angle_beta     63.342
_cell_angle_gamma    80.1625

_space_group_name_H-M_alt    "P 1"
_space_group_IT_number       1

loop_
  _space_group_symop_operation_xyz
  'x, y, z'

loop_
  _atom_site_type_symbol
  _atom_site_label
  _atom_site_symmetry_multiplicity
  _atom_site_fract_x
  _atom_site_fract_y
  _atom_site_fract_z
  _atom_site_occupancy
  Hf  Hf1       1.0  0.19697  0.10654  0.37404  1.0000
  Hf  Hf2       1.0  0.19460  0.10537  0.87437  1.0000
  Hf  Hf3       1.0  0.19618  0.60846  0.37184  1.0000
  Hf  Hf4       1.0  0.19816  0.60588  0.87153  1.0000
  Hf  Hf5       1.0  0.44794  0.10645  0.37888  1.0000
  Hf  Hf6       1.0  0.44590  0.10251  0.87419  1.0000
  Hf  Hf7       1.0  0.44531  0.60533  0.36929  1.0000
  Hf  Hf8       1.0  0.44489  0.61051  0.87418  1.0000
  Hf  Hf9       1.0  0.69770  0.10525  0.36518  1.0000
  Hf  Hf10      1.0  0.69772  0.11066  0.87795  1.0000
  Hf  Hf11      1.0  0.69107  0.60288  0.38210  1.0000
  Hf  Hf12      1.0  0.69695  0.61316  0.86883  1.0000
  Hf  Hf13      1.0  0.94688  0.11179  0.37090  1.0000
  Hf  Hf14      1.0  0.94548  0.10878  0.88258  1.0000
  Hf  Hf15      1.0  0.94911  0.61251  0.36979  1.0000
  Hf  Hf16      1.0  0.94372  0.60580  0.88710  1.0000
  Hf  Hf17      1.0  0.05461  0.39292  0.12505  1.0000
  Hf  Hf18      1.0  0.05080  0.38747  0.63127  1.0000
  Hf  Hf19      1.0  0.05515  0.88387  0.12824  1.0000
  Hf  Hf20      1.0  0.05848  0.89280  0.61375  1.0000
  Hf  Hf21      1.0  0.30515  0.39083  0.12094  1.0000
  Hf  Hf22      1.0  0.30366  0.39121  0.62687  1.0000
  Hf  Hf23      1.0  0.29935  0.88831  0.12987  1.0000
  Hf  Hf24      1.0  0.29972  0.88465  0.63815  1.0000
  Hf  Hf25      1.0  0.55514  0.39774  0.11851  1.0000
  Hf  Hf26      1.0  0.55300  0.38871  0.62549  1.0000
  Hf  Hf27      1.0  0.55604  0.89795  0.12184  1.0000
  Hf  Hf28      1.0  0.55453  0.89363  0.61617  1.0000
  Hf  Hf29      1.0  0.80235  0.40061  0.12549  1.0000
  Hf  Hf30      1.0  0.80637  0.38887  0.62538  1.0000
  Hf  Hf31      1.0  0.80639  0.89768  0.11942  1.0000
  Hf  Hf32      1.0  0.80433  0.89939  0.62292  1.0000
  Hf  Hf33      1.0  0.05689  0.18532  0.41075  1.0000
  Hf  Hf34      1.0  0.05393  0.17861  0.92931  1.0000
  Hf  Hf35      1.0  0.05762  0.68718  0.41876  1.0000
  Hf  Hf36      1.0  0.05520  0.67662  0.92650  1.0000
  Hf  Hf37      1.0  0.30824  0.18489  0.41263  1.0000
  Hf  Hf38      1.0  0.30389  0.18258  0.91537  1.0000
  Hf  Hf39      1.0  0.30465  0.68226  0.41767  1.0000
  Hf  Hf40      1.0  0.30575  0.67601  0.92282  1.0000
  Hf  Hf41      1.0  0.56015  0.18576  0.40215  1.0000
  Hf  Hf42      1.0  0.55856  0.18384  0.91576  1.0000
  Hf  Hf43      1.0  0.55379  0.68093  0.41027  1.0000
  Hf  Hf44      1.0  0.55596  0.69022  0.91497  1.0000
  Hf  Hf45      1.0  0.80426  0.18438  0.41767  1.0000
  Hf  Hf46      1.0  0.80425  0.18155  0.92463  1.0000
  Hf  Hf47      1.0  0.80133  0.67525  0.42205  1.0000
  Hf  Hf48      1.0  0.80705  0.67859  0.91699  1.0000
  Hf  Hf49      1.0  0.16082  0.37793  0.34083  1.0000
  Hf  Hf50      1.0  0.16212  0.38764  0.82771  1.0000
  Hf  Hf51      1.0  0.16028  0.88571  0.33480  1.0000
  Hf  Hf52      1.0  0.15652  0.88865  0.83851  1.0000
  Hf  Hf53      1.0  0.41185  0.38651  0.33523  1.0000
  Hf  Hf54      1.0  0.40780  0.38779  0.83245  1.0000
  Hf  Hf55      1.0  0.40997  0.89018  0.32779  1.0000
  Hf  Hf56      1.0  0.40700  0.88809  0.83696  1.0000
  Hf  Hf57      1.0  0.65871  0.38055  0.33527  1.0000
  Hf  Hf58      1.0  0.66063  0.39478  0.82632  1.0000
  Hf  Hf59      1.0  0.65597  0.88675  0.33266  1.0000
  Hf  Hf60      1.0  0.65801  0.89367  0.83473  1.0000
  Hf  Hf61      1.0  0.90833  0.39166  0.33471  1.0000
  Hf  Hf62      1.0  0.90693  0.39336  0.83740  1.0000
  Hf  Hf63      1.0  0.91037  0.89403  0.33130  1.0000
  Hf  Hf64      1.0  0.91124  0.89310  0.82687  1.0000
  Hf  Hf65      1.0  0.19180  0.31493  0.08633  1.0000
  Hf  Hf66      1.0  0.19309  0.31708  0.58144  1.0000
  Hf  Hf67      1.0  0.19637  0.81280  0.08753  1.0000
  Hf  Hf68      1.0  0.19591  0.81962  0.58541  1.0000
  Hf  Hf69      1.0  0.44683  0.31851  0.07498  1.0000
  Hf  Hf70      1.0  0.44504  0.31368  0.57870  1.0000
  Hf  Hf71      1.0  0.44462  0.82234  0.08246  1.0000
  Hf  Hf72      1.0  0.44148  0.81642  0.57956  1.0000
  Hf  Hf73      1.0  0.69619  0.32693  0.06747  1.0000
  Hf  Hf74      1.0  0.69254  0.31581  0.58753  1.0000
  Hf  Hf75      1.0  0.69519  0.82027  0.08204  1.0000
  Hf  Hf76      1.0  0.69570  0.82228  0.57497  1.0000
  Hf  Hf77      1.0  0.94522  0.31759  0.08795  1.0000
  Hf  Hf78      1.0  0.94184  0.31497  0.59369  1.0000
  Hf  Hf79      1.0  0.94304  0.81818  0.08537  1.0000
  Hf  Hf80      1.0  0.94550  0.81675  0.58510  1.0000
  Hf  Hf81      1.0  0.09327  0.10783  0.16471  1.0000
  Hf  Hf82      1.0  0.08715  0.11611  0.66500  1.0000
  Hf  Hf83      1.0  0.09461  0.60583  0.17207  1.0000
  Hf  Hf84      1.0  0.08881  0.60309  0.67895  1.0000
  Hf  Hf85      1.0  0.34199  0.11313  0.15893  1.0000
  Hf  Hf86      1.0  0.33788  0.10365  0.66810  1.0000
  Hf  Hf87      1.0  0.34469  0.61797  0.15800  1.0000
  Hf  Hf88      1.0  0.33867  0.61042  0.67232  1.0000
  Hf  Hf89      1.0  0.59166  0.11485  0.16465  1.0000
  Hf  Hf90      1.0  0.58950  0.10845  0.65787  1.0000
  Hf  Hf91      1.0  0.59448  0.60813  0.16361  1.0000
  Hf  Hf92      1.0  0.58735  0.61469  0.66385  1.0000
  Hf  Hf93      1.0  0.84067  0.11150  0.16933  1.0000
  Hf  Hf94      1.0  0.84101  0.11436  0.66749  1.0000
  Hf  Hf95      1.0  0.84072  0.61432  0.17209  1.0000
  Hf  Hf96      1.0  0.84102  0.61463  0.66257  1.0000
  F   F1        1.0  0.08267  0.11559  0.30226  1.0000
  F   F2        1.0  0.07681  0.13027  0.81103  1.0000
  F   F3        1.0  0.07503  0.62254  0.30860  1.0000
  F   F4        1.0  0.07987  0.62294  0.81089  1.0000
  F   F5        1.0  0.32906  0.12896  0.29770  1.0000
  F   F6        1.0  0.32655  0.13654  0.79054  1.0000
  F   F7        1.0  0.32509  0.62863  0.30141  1.0000
  F   F8        1.0  0.32872  0.63414  0.79907  1.0000
  F   F9        1.0  0.57695  0.12399  0.30128  1.0000
  F   F10       1.0  0.58139  0.13172  0.80342  1.0000
  F   F11       1.0  0.58172  0.62827  0.29274  1.0000
  F   F12       1.0  0.58403  0.64962  0.78758  1.0000
  F   F13       1.0  0.83074  0.14015  0.29259  1.0000
  F   F14       1.0  0.82834  0.12482  0.80963  1.0000
  F   F15       1.0  0.82381  0.61345  0.31586  1.0000
  F   F16       1.0  0.83190  0.63556  0.79494  1.0000
  F   F17       1.0  0.19878  0.33699  0.43277  1.0000
  F   F18       1.0  0.18490  0.33921  0.94403  1.0000
  F   F19       1.0  0.18188  0.83598  0.45985  1.0000
  F   F20       1.0  0.18556  0.83495  0.95619  1.0000
  F   F21       1.0  0.43461  0.32893  0.45172  1.0000
  F   F22       1.0  0.43846  0.34450  0.93204  1.0000
  F   F23       1.0  0.44083  0.85239  0.43815  1.0000
  F   F24       1.0  0.43170  0.84047  0.95577  1.0000
  F   F25       1.0  0.67846  0.33737  0.45201  1.0000
  F   F26       1.0  0.68300  0.32826  0.94458  1.0000
  F   F27       1.0  0.68536  0.84894  0.44682  1.0000
  F   F28       1.0  0.68666  0.84293  0.95423  1.0000
  F   F29       1.0  0.93375  0.34625  0.45710  1.0000
  F   F30       1.0  0.93424  0.33626  0.95184  1.0000
  F   F31       1.0  0.93844  0.84349  0.44248  1.0000
  F   F32       1.0  0.93981  0.85409  0.94367  1.0000
  F   F33       1.0  0.17632  0.37466  0.19650  1.0000
  F   F34       1.0  0.16496  0.37807  0.69486  1.0000
  F   F35       1.0  0.17114  0.86108  0.20870  1.0000
  F   F36       1.0  0.17091  0.87314  0.69461  1.0000
  F   F37       1.0  0.42267  0.36801  0.19909  1.0000
  F   F38       1.0  0.41775  0.35730  0.69677  1.0000
  F   F39       1.0  0.42342  0.87608  0.19109  1.0000
  F   F40       1.0  0.42468  0.86834  0.69007  1.0000
  F   F41       1.0  0.66515  0.35241  0.19596  1.0000
  F   F42       1.0  0.67216  0.36307  0.70342  1.0000
  F   F43       1.0  0.67534  0.90127  0.18055  1.0000
  F   F44       1.0  0.66432  0.86158  0.70623  1.0000
  F   F45       1.0  0.92637  0.38705  0.18605  1.0000
  F   F46       1.0  0.91827  0.37369  0.70232  1.0000
  F   F47       1.0  0.91957  0.86935  0.20300  1.0000
  F   F48       1.0  0.92352  0.88724  0.68527  1.0000
  F   F49       1.0  0.05927  0.16479  0.06386  1.0000
  F   F50       1.0  0.05624  0.15089  0.56051  1.0000
  F   F51       1.0  0.07040  0.66208  0.05096  1.0000
  F   F52       1.0  0.06473  0.65910  0.55281  1.0000
  F   F53       1.0  0.31721  0.15226  0.04659  1.0000
  F   F54       1.0  0.31169  0.15196  0.55119  1.0000
  F   F55       1.0  0.31668  0.65521  0.05557  1.0000
  F   F56       1.0  0.31358  0.66385  0.55526  1.0000
  F   F57       1.0  0.55716  0.16471  0.06029  1.0000
  F   F58       1.0  0.57271  0.15265  0.53475  1.0000
  F   F59       1.0  0.55992  0.65172  0.06555  1.0000
  F   F60       1.0  0.56075  0.65847  0.55319  1.0000
  F   F61       1.0  0.81144  0.15456  0.05872  1.0000
  F   F62       1.0  0.80468  0.16333  0.56115  1.0000
  F   F63       1.0  0.82257  0.66969  0.04198  1.0000
  F   F64       1.0  0.80572  0.66117  0.55735  1.0000
  F   F65       1.0  0.19983  0.20383  0.21457  1.0000
  F   F66       1.0  0.19908  0.20015  0.70489  1.0000
  F   F67       1.0  0.20513  0.70301  0.21492  1.0000
  F   F68       1.0  0.21132  0.69349  0.71955  1.0000
  F   F69       1.0  0.44622  0.19973  0.20136  1.0000
  F   F70       1.0  0.46376  0.20201  0.71614  1.0000
  F   F71       1.0  0.45115  0.70127  0.21876  1.0000
  F   F72       1.0  0.44937  0.69847  0.71687  1.0000
  F   F73       1.0  0.71516  0.18082  0.20738  1.0000
  F   F74       1.0  0.70125  0.20152  0.70834  1.0000
  F   F75       1.0  0.69097  0.69418  0.22722  1.0000
  F   F76       1.0  0.70952  0.69306  0.71410  1.0000
  F   F77       1.0  0.95605  0.21511  0.21117  1.0000
  F   F78       1.0  0.95519  0.20892  0.71720  1.0000
  F   F79       1.0  0.95243  0.69327  0.21184  1.0000
  F   F80       1.0  0.95107  0.71883  0.72150  1.0000
  F   F81       1.0  0.15193  0.09746  0.02997  1.0000
  F   F82       1.0  0.14987  0.08968  0.54327  1.0000
  F   F83       1.0  0.15215  0.58367  0.05237  1.0000
  F   F84       1.0  0.14233  0.59350  0.55348  1.0000
  F   F85       1.0  0.39805  0.07013  0.02985  1.0000
  F   F86       1.0  0.39877  0.10560  0.52979  1.0000
  F   F87       1.0  0.39980  0.58936  0.04429  1.0000
  F   F88       1.0  0.39573  0.58370  0.53944  1.0000
  F   F89       1.0  0.64724  0.09702  0.04307  1.0000
  F   F90       1.0  0.64886  0.07763  0.53115  1.0000
  F   F91       1.0  0.64894  0.57412  0.03999  1.0000
  F   F92       1.0  0.64780  0.57604  0.53214  1.0000
  F   F93       1.0  0.89879  0.09612  0.04065  1.0000
  F   F94       1.0  0.89779  0.09618  0.54163  1.0000
  F   F95       1.0  0.89730  0.57174  0.05273  1.0000
  F   F96       1.0  0.89140  0.60303  0.53635  1.0000
  F   F97       1.0  0.14935  0.19848  0.12756  1.0000
  F   F98       1.0  0.14656  0.19750  0.61692  1.0000
  F   F99       1.0  0.15122  0.69408  0.14848  1.0000
  F   F100      1.0  0.15279  0.69602  0.65397  1.0000
  F   F101      1.0  0.40037  0.19452  0.09719  1.0000
  F   F102      1.0  0.40774  0.19439  0.62633  1.0000
  F   F103      1.0  0.39861  0.70599  0.12340  1.0000
  F   F104      1.0  0.39544  0.70133  0.62031  1.0000
  F   F105      1.0  0.65246  0.19843  0.12868  1.0000
  F   F106      1.0  0.65375  0.19161  0.61420  1.0000
  F   F107      1.0  0.65672  0.69614  0.11830  1.0000
  F   F108      1.0  0.65098  0.70322  0.60884  1.0000
  F   F109      1.0  0.90280  0.20809  0.12152  1.0000
  F   F110      1.0  0.90118  0.19361  0.63773  1.0000
  F   F111      1.0  0.90395  0.69094  0.12629  1.0000
  F   F112      1.0  0.90543  0.70524  0.61954  1.0000
  F   F113      1.0  0.10343  0.29185  0.37185  1.0000
  F   F114      1.0  0.10527  0.29908  0.88752  1.0000
  F   F115      1.0  0.10276  0.79747  0.37840  1.0000
  F   F116      1.0  0.10063  0.80374  0.86983  1.0000
  F   F117      1.0  0.35301  0.29336  0.38587  1.0000
  F   F118      1.0  0.34368  0.31500  0.86711  1.0000
  F   F119      1.0  0.34718  0.80393  0.35178  1.0000
  F   F120      1.0  0.34570  0.80039  0.89883  1.0000
  F   F121      1.0  0.59733  0.30660  0.37700  1.0000
  F   F122      1.0  0.59906  0.30614  0.86694  1.0000
  F   F123      1.0  0.59308  0.80624  0.37344  1.0000
  F   F124      1.0  0.59677  0.80688  0.88621  1.0000
  F   F125      1.0  0.84653  0.30159  0.37730  1.0000
  F   F126      1.0  0.84749  0.30792  0.88664  1.0000
  F   F127      1.0  0.85520  0.80068  0.39555  1.0000
  F   F128      1.0  0.84547  0.80880  0.86813  1.0000
  F   F129      1.0  0.05490  0.25071  0.16678  1.0000
  F   F130      1.0  0.05699  0.24568  0.66046  1.0000
  F   F131      1.0  0.06939  0.74821  0.14607  1.0000
  F   F132      1.0  0.06722  0.74635  0.64489  1.0000
  F   F133      1.0  0.31170  0.24602  0.14136  1.0000
  F   F134      1.0  0.30899  0.25293  0.63300  1.0000
  F   F135      1.0  0.31281  0.75236  0.14060  1.0000
  F   F136      1.0  0.30809  0.75356  0.66018  1.0000
  F   F137      1.0  0.57258  0.26543  0.12394  1.0000
  F   F138      1.0  0.56192  0.24401  0.64198  1.0000
  F   F139      1.0  0.58728  0.76049  0.10187  1.0000
  F   F140      1.0  0.56251  0.75438  0.63894  1.0000
  F   F141      1.0  0.81808  0.26003  0.13831  1.0000
  F   F142      1.0  0.81533  0.25017  0.64198  1.0000
  F   F143      1.0  0.81237  0.75821  0.14854  1.0000
  F   F144      1.0  0.82153  0.76876  0.60926  1.0000
  F   F145      1.0  0.12768  0.36780  0.11186  1.0000
  F   F146      1.0  0.11957  0.36992  0.60788  1.0000
  F   F147      1.0  0.12784  0.87331  0.10954  1.0000
  F   F148      1.0  0.12236  0.87834  0.60771  1.0000
  F   F149      1.0  0.37337  0.35307  0.11614  1.0000
  F   F150      1.0  0.37058  0.35672  0.61957  1.0000
  F   F151      1.0  0.37166  0.87500  0.11774  1.0000
  F   F152      1.0  0.37291  0.87483  0.61052  1.0000
  F   F153      1.0  0.62732  0.38550  0.08858  1.0000
  F   F154      1.0  0.62433  0.37003  0.61354  1.0000
  F   F155      1.0  0.62506  0.88032  0.11175  1.0000
  F   F156      1.0  0.62381  0.87614  0.60243  1.0000
  F   F157      1.0  0.87662  0.37996  0.11535  1.0000
  F   F158      1.0  0.87143  0.36302  0.62000  1.0000
  F   F159      1.0  0.87317  0.86604  0.11693  1.0000
  F   F160      1.0  0.87452  0.87527  0.61686  1.0000
  F   F161      1.0  0.18949  0.24419  0.35471  1.0000
  F   F162      1.0  0.19368  0.24615  0.84110  1.0000
  F   F163      1.0  0.19326  0.74942  0.35328  1.0000
  F   F164      1.0  0.18167  0.75004  0.86442  1.0000
  F   F165      1.0  0.44356  0.25051  0.34602  1.0000
  F   F166      1.0  0.42187  0.24649  0.87369  1.0000
  F   F167      1.0  0.43041  0.74935  0.36098  1.0000
  F   F168      1.0  0.43043  0.76039  0.85752  1.0000
  F   F169      1.0  0.68634  0.24561  0.36208  1.0000
  F   F170      1.0  0.68365  0.24766  0.85245  1.0000
  F   F171      1.0  0.68407  0.74870  0.35816  1.0000
  F   F172      1.0  0.67405  0.74654  0.88774  1.0000
  F   F173      1.0  0.93414  0.25128  0.36384  1.0000
  F   F174      1.0  0.93698  0.24565  0.86451  1.0000
  F   F175      1.0  0.94386  0.75233  0.34963  1.0000
  F   F176      1.0  0.93287  0.75001  0.87563  1.0000
  F   F177      1.0  0.12577  0.11833  0.40648  1.0000
  F   F178      1.0  0.12478  0.13333  0.88926  1.0000
  F   F179      1.0  0.12441  0.62356  0.40254  1.0000
  F   F180      1.0  0.12776  0.62258  0.90512  1.0000
  F   F181      1.0  0.37773  0.13705  0.37834  1.0000
  F   F182      1.0  0.37574  0.14244  0.87162  1.0000
  F   F183      1.0  0.37465  0.62953  0.38901  1.0000
  F   F184      1.0  0.37393  0.62556  0.89839  1.0000
  F   F185      1.0  0.63298  0.15319  0.35346  1.0000
  F   F186      1.0  0.61924  0.12110  0.91329  1.0000
  F   F187      1.0  0.62118  0.62572  0.40083  1.0000
  F   F188      1.0  0.62433  0.62283  0.90228  1.0000
  F   F189      1.0  0.86935  0.11643  0.41500  1.0000
  F   F190      1.0  0.87055  0.11941  0.90843  1.0000
  F   F191      1.0  0.87589  0.64553  0.37853  1.0000
  F   F192      1.0  0.87139  0.61250  0.90615  1.0000
  F   F193      1.0  0.00715  0.36607  0.07716  1.0000
  F   F194      1.0  0.01245  0.38000  0.55780  1.0000
  F   F195      1.0  0.00765  0.84598  0.08448  1.0000
  F   F196      1.0  0.00602  0.85972  0.57946  1.0000
  F   F197      1.0  0.25657  0.36060  0.07427  1.0000
  F   F198      1.0  0.25981  0.36954  0.55842  1.0000
  F   F199      1.0  0.26115  0.86423  0.06381  1.0000
  F   F200      1.0  0.25712  0.86057  0.57910  1.0000
  F   F201      1.0  0.51264  0.37392  0.06128  1.0000
  F   F202      1.0  0.50579  0.35531  0.58395  1.0000
  F   F203      1.0  0.51007  0.85763  0.07889  1.0000
  F   F204      1.0  0.50755  0.85962  0.56586  1.0000
  F   F205      1.0  0.75806  0.36903  0.08066  1.0000
  F   F206      1.0  0.75432  0.35209  0.59379  1.0000
  F   F207      1.0  0.75450  0.86834  0.06888  1.0000
  F   F208      1.0  0.75469  0.86157  0.59274  1.0000
  F   F209      1.0  0.07248  0.48673  0.17169  1.0000
  F   F210      1.0  0.06013  0.47571  0.69555  1.0000
  F   F211      1.0  0.07046  0.97964  0.17143  1.0000
  F   F212      1.0  0.06595  0.98945  0.66546  1.0000
  F   F213      1.0  0.32260  0.47692  0.18122  1.0000
  F   F214      1.0  0.31640  0.47709  0.68540  1.0000
  F   F215      1.0  0.31133  0.98314  0.18898  1.0000
  F   F216      1.0  0.31182  0.98897  0.68345  1.0000
  F   F217      1.0  0.56693  0.48997  0.18059  1.0000
  F   F218      1.0  0.56396  0.48531  0.67594  1.0000
  F   F219      1.0  0.56754  0.99102  0.17019  1.0000
  F   F220      1.0  0.57204  0.97777  0.67759  1.0000
  F   F221      1.0  0.81679  0.49790  0.17402  1.0000
  F   F222      1.0  0.82122  0.48938  0.66848  1.0000
  F   F223      1.0  0.82019  0.98837  0.16164  1.0000
  F   F224      1.0  0.81199  0.99516  0.67488  1.0000
  F   F225      1.0  0.24584  0.13338  0.42897  1.0000
  F   F226      1.0  0.23954  0.13447  0.93748  1.0000
  F   F227      1.0  0.23825  0.61775  0.44065  1.0000
  F   F228      1.0  0.24206  0.63682  0.92485  1.0000
  F   F229      1.0  0.49682  0.14989  0.41049  1.0000
  F   F230      1.0  0.49339  0.14576  0.90795  1.0000
  F   F231      1.0  0.49235  0.65058  0.41482  1.0000
  F   F232      1.0  0.48863  0.64098  0.92465  1.0000
  F   F233      1.0  0.74959  0.13224  0.41629  1.0000
  F   F234      1.0  0.74464  0.14564  0.92036  1.0000
  F   F235      1.0  0.73931  0.64043  0.41884  1.0000
  F   F236      1.0  0.74222  0.63700  0.92061  1.0000
  F   F237      1.0  0.99241  0.13506  0.41992  1.0000
  F   F238      1.0  0.99286  0.13842  0.93285  1.0000
  F   F239      1.0  0.99012  0.64521  0.43821  1.0000
  F   F240      1.0  0.98692  0.62064  0.94588  1.0000
  F   F241      1.0  0.17987  0.01953  0.32569  1.0000
  F   F242      1.0  0.17404  0.01214  0.82665  1.0000
  F   F243      1.0  0.18291  0.51202  0.32424  1.0000
  F   F244      1.0  0.18094  0.51388  0.82958  1.0000
  F   F245      1.0  0.42938  0.01063  0.33457  1.0000
  F   F246      1.0  0.43924  0.01900  0.81226  1.0000
  F   F247      1.0  0.43395  0.50915  0.31735  1.0000
  F   F248      1.0  0.42901  0.51655  0.82032  1.0000
  F   F249      1.0  0.68156  0.01404  0.31220  1.0000
  F   F250      1.0  0.68315  0.01874  0.82820  1.0000
  F   F251      1.0  0.67773  0.49778  0.34829  1.0000
  F   F252      1.0  0.68672  0.51646  0.81320  1.0000
  F   F253      1.0  0.93232  0.03094  0.31830  1.0000
  F   F254      1.0  0.92822  0.01322  0.82473  1.0000
  F   F255      1.0  0.92544  0.52145  0.32099  1.0000
  F   F256      1.0  0.93472  0.50992  0.82514  1.0000
  F   F257      1.0  0.99732  0.24105  0.01352  1.0000
  F   F258      1.0  0.00411  0.24991  0.49792  1.0000
  F   F259      1.0  0.99697  0.73005  0.00742  1.0000
  F   F260      1.0  0.00808  0.76324  0.49313  1.0000
  F   F261      1.0  0.25246  0.25533  0.99858  1.0000
  F   F262      1.0  0.24882  0.24234  0.50395  1.0000
  F   F263      1.0  0.25407  0.74084  0.00816  1.0000
  F   F264      1.0  0.25141  0.73750  0.50936  1.0000
  F   F265      1.0  0.49705  0.25054  0.99081  1.0000
  F   F266      1.0  0.50438  0.25756  0.50041  1.0000
  F   F267      1.0  0.49933  0.75605  0.99919  1.0000
  F   F268      1.0  0.49771  0.75082  0.50005  1.0000
  F   F269      1.0  0.75602  0.27312  0.98886  1.0000
  F   F270      1.0  0.75177  0.26210  0.48974  1.0000
  F   F271      1.0  0.75069  0.75065  0.00642  1.0000
  F   F272      1.0  0.74479  0.75052  0.49421  1.0000
  F   F273      1.0  0.12681  0.99367  0.24157  1.0000
  F   F274      1.0  0.11592  0.99671  0.76327  1.0000
  F   F275      1.0  0.12056  0.48846  0.26730  1.0000
  F   F276      1.0  0.11730  0.48800  0.76584  1.0000
  F   F277      1.0  0.37035  0.99877  0.25309  1.0000
  F   F278      1.0  0.37554  0.00042  0.74431  1.0000
  F   F279      1.0  0.38629  0.51231  0.23457  1.0000
  F   F280      1.0  0.36669  0.49461  0.76662  1.0000
  F   F281      1.0  0.61990  0.00239  0.25599  1.0000
  F   F282      1.0  0.62430  0.01128  0.74836  1.0000
  F   F283      1.0  0.62851  0.48648  0.24966  1.0000
  F   F284      1.0  0.62892  0.50435  0.73686  1.0000
  F   F285      1.0  0.86845  0.00412  0.25687  1.0000
  F   F286      1.0  0.87224  0.99691  0.74948  1.0000
  F   F287      1.0  0.87333  0.50246  0.24724  1.0000
  F   F288      1.0  0.87235  0.50301  0.76129  1.0000
  F   F289      1.0  0.05272  0.01562  0.01569  1.0000
  F   F290      1.0  0.04787  0.02667  0.51849  1.0000
  F   F291      1.0  0.03859  0.53725  0.02706  1.0000
  F   F292      1.0  0.04502  0.53652  0.52476  1.0000
  F   F293      1.0  0.29273  0.03079  0.02730  1.0000
  F   F294      1.0  0.30453  0.01503  0.51905  1.0000
  F   F295      1.0  0.29193  0.53698  0.02787  1.0000
  F   F296      1.0  0.29720  0.53012  0.51766  1.0000
  F   F297      1.0  0.53060  0.04019  0.02939  1.0000
  F   F298      1.0  0.54759  0.03528  0.51426  1.0000
  F   F299      1.0  0.54392  0.53897  0.01099  1.0000
  F   F300      1.0  0.53492  0.53703  0.52418  1.0000
  F   F301      1.0  0.78777  0.03459  0.02205  1.0000
  F   F302      1.0  0.78897  0.03249  0.52154  1.0000
  F   F303      1.0  0.78669  0.53660  0.03506  1.0000
  F   F304      1.0  0.79338  0.52314  0.51576  1.0000
  F   F305      1.0  0.23820  0.40709  0.22515  1.0000
  F   F306      1.0  0.23363  0.41242  0.72370  1.0000
  F   F307      1.0  0.23245  0.92762  0.21208  1.0000
  F   F308      1.0  0.23426  0.91633  0.73183  1.0000
  F   F309      1.0  0.48887  0.41548  0.22699  1.0000
  F   F310      1.0  0.48359  0.42600  0.72030  1.0000
  F   F311      1.0  0.48531  0.91458  0.22591  1.0000
  F   F312      1.0  0.48797  0.91385  0.72219  1.0000
  F   F313      1.0  0.72881  0.41748  0.22895  1.0000
  F   F314      1.0  0.73907  0.41284  0.72671  1.0000
  F   F315      1.0  0.73934  0.89412  0.23550  1.0000
  F   F316      1.0  0.72822  0.92523  0.72806  1.0000
  F   F317      1.0  0.98727  0.42129  0.23258  1.0000
  F   F318      1.0  0.98453  0.39834  0.73371  1.0000
  F   F319      1.0  0.98614  0.92494  0.21108  1.0000
  F   F320      1.0  0.98704  0.89775  0.74140  1.0000
  F   F321      1.0  0.19570  0.46765  0.48276  1.0000
  F   F322      1.0  0.20825  0.46272  0.97896  1.0000
  F   F323      1.0  0.20777  0.96152  0.49020  1.0000
  F   F324      1.0  0.20613  0.96770  0.98209  1.0000
  F   F325      1.0  0.45639  0.46895  0.47080  1.0000
  F   F326      1.0  0.45338  0.47376  0.97051  1.0000
  F   F327      1.0  0.45809  0.97921  0.48781  1.0000
  F   F328      1.0  0.46444  0.96906  0.97435  1.0000
  F   F329      1.0  0.71116  0.46295  0.48615  1.0000
  F   F330      1.0  0.71864  0.47164  0.95903  1.0000
  F   F331      1.0  0.71597  0.96367  0.46432  1.0000
  F   F332      1.0  0.70621  0.98190  0.97678  1.0000
  F   F333      1.0  0.94410  0.47199  0.50331  1.0000
  F   F334      1.0  0.96671  0.46332  0.96000  1.0000
  F   F335      1.0  0.95300  0.97501  0.47432  1.0000
  F   F336      1.0  0.95600  0.97492  0.98953  1.0000
  F   F337      1.0  0.02328  0.07920  0.26352  1.0000
  F   F338      1.0  0.01086  0.08844  0.77411  1.0000
  F   F339      1.0  0.01228  0.58671  0.27745  1.0000
  F   F340      1.0  0.01226  0.59697  0.77211  1.0000
  F   F341      1.0  0.26417  0.10542  0.27005  1.0000
  F   F342      1.0  0.26294  0.07411  0.78137  1.0000
  F   F343      1.0  0.26218  0.58508  0.27600  1.0000
  F   F344      1.0  0.26540  0.57510  0.77588  1.0000
  F   F345      1.0  0.51164  0.09298  0.27326  1.0000
  F   F346      1.0  0.52056  0.09348  0.75997  1.0000
  F   F347      1.0  0.52032  0.59397  0.26349  1.0000
  F   F348      1.0  0.51793  0.58220  0.77069  1.0000
  F   F349      1.0  0.77190  0.07027  0.27923  1.0000
  F   F350      1.0  0.76214  0.08534  0.78445  1.0000
  F   F351      1.0  0.76312  0.58373  0.27662  1.0000
  F   F352      1.0  0.76898  0.58735  0.76799  1.0000
  F   F353      1.0  0.10659  0.37701  0.46694  1.0000
  F   F354      1.0  0.10096  0.40396  0.97415  1.0000
  F   F355      1.0  0.09867  0.90170  0.46433  1.0000
  F   F356      1.0  0.09901  0.89092  0.97104  1.0000
  F   F357      1.0  0.35456  0.40466  0.45830  1.0000
  F   F358      1.0  0.35093  0.41580  0.96659  1.0000
  F   F359      1.0  0.35436  0.87667  0.46477  1.0000
  F   F360      1.0  0.35227  0.92612  0.95039  1.0000
  F   F361      1.0  0.59724  0.40912  0.46700  1.0000
  F   F362      1.0  0.60092  0.41138  0.95119  1.0000
  F   F363      1.0  0.59552  0.91334  0.46158  1.0000
  F   F364      1.0  0.60132  0.93201  0.95743  1.0000
  F   F365      1.0  0.85090  0.40125  0.46245  1.0000
  F   F366      1.0  0.85217  0.42795  0.96289  1.0000
  F   F367      1.0  0.85463  0.92325  0.45589  1.0000
  F   F368      1.0  0.85204  0.89142  0.96724  1.0000
  F   F369      1.0  0.04858  0.30520  0.29361  1.0000
  F   F370      1.0  0.05132  0.29910  0.80252  1.0000
  F   F371      1.0  0.04596  0.80516  0.28717  1.0000
  F   F372      1.0  0.04687  0.78334  0.79141  1.0000
  F   F373      1.0  0.30122  0.30093  0.28812  1.0000
  F   F374      1.0  0.29513  0.29364  0.78609  1.0000
  F   F375      1.0  0.28477  0.78284  0.29318  1.0000
  F   F376      1.0  0.29474  0.80233  0.78812  1.0000
  F   F377      1.0  0.56301  0.28546  0.26286  1.0000
  F   F378      1.0  0.54980  0.30333  0.78088  1.0000
  F   F379      1.0  0.54506  0.79361  0.27554  1.0000
  F   F380      1.0  0.54682  0.80247  0.79255  1.0000
  F   F381      1.0  0.79140  0.30983  0.28310  1.0000
  F   F382      1.0  0.79585  0.30558  0.79207  1.0000
  F   F383      1.0  0.80171  0.80030  0.30216  1.0000
  F   F384      1.0  0.79795  0.80393  0.77895  1.0000
