data_image0
_chemical_formula_structural       Hf96F384
_chemical_formula_sum              "Hf96 F384"
_cell_length_a       31.0268
_cell_length_b       15.5173
_cell_length_c       15.5098
_cell_angle_alpha    63.342
_cell_angle_beta     63.342
_cell_angle_gamma    80.1625

_space_group_name_H-M_alt    "P 1"
_space_group_IT_number       1

loop_
  _space_group_symop_operation_xyz
  'x, y, z'

loop_
  _atom_site_type_symbol
  _atom_site_label
  _atom_site_symmetry_multiplicity
  _atom_site_fract_x
  _atom_site_fract_y
  _atom_site_fract_z
  _atom_site_occupancy
  Hf  Hf1       1.0  0.19672  0.10144  0.37693  1.0000
  Hf  Hf2       1.0  0.19543  0.09739  0.88112  1.0000
  Hf  Hf3       1.0  0.19726  0.59352  0.38293  1.0000
  Hf  Hf4       1.0  0.19727  0.59586  0.87891  1.0000
  Hf  Hf5       1.0  0.44641  0.11211  0.37550  1.0000
  Hf  Hf6       1.0  0.45011  0.10486  0.87127  1.0000
  Hf  Hf7       1.0  0.44555  0.60450  0.37470  1.0000
  Hf  Hf8       1.0  0.44394  0.60245  0.88477  1.0000
  Hf  Hf9       1.0  0.69490  0.11054  0.36977  1.0000
  Hf  Hf10      1.0  0.70083  0.11554  0.85996  1.0000
  Hf  Hf11      1.0  0.69317  0.62106  0.37013  1.0000
  Hf  Hf12      1.0  0.69615  0.61284  0.86891  1.0000
  Hf  Hf13      1.0  0.94689  0.10117  0.38296  1.0000
  Hf  Hf14      1.0  0.94791  0.10045  0.88286  1.0000
  Hf  Hf15      1.0  0.94492  0.60211  0.37746  1.0000
  Hf  Hf16      1.0  0.94503  0.60751  0.87684  1.0000
  Hf  Hf17      1.0  0.05280  0.37379  0.13591  1.0000
  Hf  Hf18      1.0  0.05760  0.38868  0.62134  1.0000
  Hf  Hf19      1.0  0.05192  0.87869  0.13293  1.0000
  Hf  Hf20      1.0  0.05039  0.88250  0.63672  1.0000
  Hf  Hf21      1.0  0.30113  0.39042  0.12550  1.0000
  Hf  Hf22      1.0  0.30577  0.39062  0.62318  1.0000
  Hf  Hf23      1.0  0.30665  0.90359  0.11280  1.0000
  Hf  Hf24      1.0  0.30455  0.89713  0.61989  1.0000
  Hf  Hf25      1.0  0.55514  0.39943  0.12058  1.0000
  Hf  Hf26      1.0  0.55542  0.40303  0.61472  1.0000
  Hf  Hf27      1.0  0.55499  0.90527  0.11659  1.0000
  Hf  Hf28      1.0  0.55286  0.90014  0.62320  1.0000
  Hf  Hf29      1.0  0.80217  0.39697  0.13404  1.0000
  Hf  Hf30      1.0  0.80157  0.39197  0.62192  1.0000
  Hf  Hf31      1.0  0.80340  0.89872  0.12413  1.0000
  Hf  Hf32      1.0  0.80235  0.89327  0.62317  1.0000
  Hf  Hf33      1.0  0.05487  0.17737  0.42609  1.0000
  Hf  Hf34      1.0  0.05900  0.17725  0.92186  1.0000
  Hf  Hf35      1.0  0.05637  0.68128  0.41885  1.0000
  Hf  Hf36      1.0  0.05619  0.66497  0.92473  1.0000
  Hf  Hf37      1.0  0.30564  0.18732  0.41242  1.0000
  Hf  Hf38      1.0  0.30668  0.18552  0.91251  1.0000
  Hf  Hf39      1.0  0.30606  0.68163  0.41257  1.0000
  Hf  Hf40      1.0  0.30751  0.68648  0.91184  1.0000
  Hf  Hf41      1.0  0.55761  0.19607  0.40561  1.0000
  Hf  Hf42      1.0  0.55682  0.19270  0.91194  1.0000
  Hf  Hf43      1.0  0.55526  0.68858  0.41659  1.0000
  Hf  Hf44      1.0  0.55730  0.68861  0.91473  1.0000
  Hf  Hf45      1.0  0.80624  0.17809  0.41735  1.0000
  Hf  Hf46      1.0  0.80535  0.18077  0.92048  1.0000
  Hf  Hf47      1.0  0.80458  0.68975  0.42035  1.0000
  Hf  Hf48      1.0  0.80161  0.68148  0.92847  1.0000
  Hf  Hf49      1.0  0.15924  0.37823  0.33591  1.0000
  Hf  Hf50      1.0  0.16098  0.38216  0.83247  1.0000
  Hf  Hf51      1.0  0.15886  0.89186  0.33231  1.0000
  Hf  Hf52      1.0  0.15905  0.87626  0.83543  1.0000
  Hf  Hf53      1.0  0.41133  0.39507  0.33007  1.0000
  Hf  Hf54      1.0  0.40907  0.38818  0.83226  1.0000
  Hf  Hf55      1.0  0.41114  0.88944  0.33170  1.0000
  Hf  Hf56      1.0  0.40975  0.88699  0.83951  1.0000
  Hf  Hf57      1.0  0.65907  0.39396  0.32223  1.0000
  Hf  Hf58      1.0  0.66087  0.38542  0.83397  1.0000
  Hf  Hf59      1.0  0.66013  0.89812  0.32751  1.0000
  Hf  Hf60      1.0  0.65768  0.89605  0.82697  1.0000
  Hf  Hf61      1.0  0.90709  0.38314  0.34021  1.0000
  Hf  Hf62      1.0  0.90910  0.38862  0.82600  1.0000
  Hf  Hf63      1.0  0.90989  0.88196  0.33936  1.0000
  Hf  Hf64      1.0  0.90871  0.88946  0.82829  1.0000
  Hf  Hf65      1.0  0.19322  0.30827  0.08371  1.0000
  Hf  Hf66      1.0  0.19559  0.31367  0.58167  1.0000
  Hf  Hf67      1.0  0.19420  0.81420  0.08376  1.0000
  Hf  Hf68      1.0  0.19096  0.80711  0.58722  1.0000
  Hf  Hf69      1.0  0.44110  0.31872  0.08308  1.0000
  Hf  Hf70      1.0  0.44306  0.31883  0.58805  1.0000
  Hf  Hf71      1.0  0.44757  0.81956  0.08304  1.0000
  Hf  Hf72      1.0  0.44217  0.82275  0.58311  1.0000
  Hf  Hf73      1.0  0.69644  0.31656  0.07691  1.0000
  Hf  Hf74      1.0  0.69394  0.32136  0.57398  1.0000
  Hf  Hf75      1.0  0.69025  0.82637  0.07811  1.0000
  Hf  Hf76      1.0  0.69636  0.83056  0.57677  1.0000
  Hf  Hf77      1.0  0.94518  0.31971  0.08584  1.0000
  Hf  Hf78      1.0  0.94125  0.30383  0.59869  1.0000
  Hf  Hf79      1.0  0.94217  0.81037  0.08999  1.0000
  Hf  Hf80      1.0  0.93881  0.81036  0.59037  1.0000
  Hf  Hf81      1.0  0.08792  0.09873  0.17576  1.0000
  Hf  Hf82      1.0  0.09351  0.10701  0.66479  1.0000
  Hf  Hf83      1.0  0.08344  0.59587  0.18053  1.0000
  Hf  Hf84      1.0  0.09602  0.60598  0.66224  1.0000
  Hf  Hf85      1.0  0.34308  0.11444  0.15890  1.0000
  Hf  Hf86      1.0  0.33971  0.11429  0.66272  1.0000
  Hf  Hf87      1.0  0.34320  0.61027  0.16760  1.0000
  Hf  Hf88      1.0  0.34267  0.61302  0.66329  1.0000
  Hf  Hf89      1.0  0.59420  0.12220  0.15482  1.0000
  Hf  Hf90      1.0  0.59081  0.12359  0.66604  1.0000
  Hf  Hf91      1.0  0.59050  0.62150  0.16783  1.0000
  Hf  Hf92      1.0  0.59262  0.61938  0.66734  1.0000
  Hf  Hf93      1.0  0.84142  0.11304  0.16998  1.0000
  Hf  Hf94      1.0  0.84062  0.11593  0.66359  1.0000
  Hf  Hf95      1.0  0.84293  0.61606  0.17290  1.0000
  Hf  Hf96      1.0  0.83748  0.60860  0.67745  1.0000
  F   F1        1.0  0.07866  0.12726  0.29923  1.0000
  F   F2        1.0  0.08311  0.12560  0.79946  1.0000
  F   F3        1.0  0.07804  0.61677  0.30932  1.0000
  F   F4        1.0  0.08210  0.63135  0.79750  1.0000
  F   F5        1.0  0.33484  0.13544  0.29107  1.0000
  F   F6        1.0  0.32878  0.13138  0.79982  1.0000
  F   F7        1.0  0.32970  0.62125  0.30629  1.0000
  F   F8        1.0  0.33444  0.61996  0.79686  1.0000
  F   F9        1.0  0.58114  0.13648  0.29942  1.0000
  F   F10       1.0  0.57379  0.13552  0.80199  1.0000
  F   F11       1.0  0.58510  0.65834  0.28785  1.0000
  F   F12       1.0  0.57561  0.62624  0.81009  1.0000
  F   F13       1.0  0.82643  0.11503  0.31208  1.0000
  F   F14       1.0  0.83179  0.14066  0.79530  1.0000
  F   F15       1.0  0.82582  0.63122  0.31350  1.0000
  F   F16       1.0  0.82534  0.62647  0.81581  1.0000
  F   F17       1.0  0.18565  0.32202  0.44996  1.0000
  F   F18       1.0  0.19798  0.32710  0.94324  1.0000
  F   F19       1.0  0.18097  0.83931  0.45323  1.0000
  F   F20       1.0  0.18348  0.82460  0.95362  1.0000
  F   F21       1.0  0.43122  0.32440  0.44852  1.0000
  F   F22       1.0  0.43422  0.34347  0.95391  1.0000
  F   F23       1.0  0.44122  0.84584  0.43872  1.0000
  F   F24       1.0  0.43154  0.83622  0.96085  1.0000
  F   F25       1.0  0.69411  0.36216  0.42950  1.0000
  F   F26       1.0  0.68243  0.34663  0.94721  1.0000
  F   F27       1.0  0.68932  0.84647  0.43133  1.0000
  F   F28       1.0  0.68906  0.84859  0.93301  1.0000
  F   F29       1.0  0.92969  0.34887  0.45157  1.0000
  F   F30       1.0  0.93985  0.33960  0.94292  1.0000
  F   F31       1.0  0.94308  0.83871  0.43767  1.0000
  F   F32       1.0  0.92892  0.83263  0.94469  1.0000
  F   F33       1.0  0.16187  0.34907  0.21445  1.0000
  F   F34       1.0  0.17714  0.36658  0.69905  1.0000
  F   F35       1.0  0.16916  0.87892  0.18311  1.0000
  F   F36       1.0  0.17716  0.87486  0.68687  1.0000
  F   F37       1.0  0.42102  0.37510  0.19652  1.0000
  F   F38       1.0  0.42387  0.38825  0.68522  1.0000
  F   F39       1.0  0.42757  0.88231  0.18685  1.0000
  F   F40       1.0  0.42573  0.87039  0.70048  1.0000
  F   F41       1.0  0.67377  0.38631  0.18258  1.0000
  F   F42       1.0  0.66603  0.36526  0.69444  1.0000
  F   F43       1.0  0.67214  0.88975  0.18992  1.0000
  F   F44       1.0  0.66678  0.89367  0.68665  1.0000
  F   F45       1.0  0.91675  0.36933  0.19797  1.0000
  F   F46       1.0  0.92285  0.36738  0.69771  1.0000
  F   F47       1.0  0.92519  0.87638  0.19202  1.0000
  F   F48       1.0  0.92338  0.87990  0.69015  1.0000
  F   F49       1.0  0.06788  0.14916  0.05454  1.0000
  F   F50       1.0  0.06078  0.15009  0.56250  1.0000
  F   F51       1.0  0.05817  0.66088  0.05659  1.0000
  F   F52       1.0  0.06559  0.64710  0.56132  1.0000
  F   F53       1.0  0.31868  0.15240  0.04655  1.0000
  F   F54       1.0  0.30857  0.13871  0.56576  1.0000
  F   F55       1.0  0.31270  0.65281  0.06242  1.0000
  F   F56       1.0  0.31818  0.67818  0.53535  1.0000
  F   F57       1.0  0.55967  0.15997  0.04900  1.0000
  F   F58       1.0  0.57317  0.19828  0.53379  1.0000
  F   F59       1.0  0.56640  0.66856  0.05076  1.0000
  F   F60       1.0  0.56855  0.67625  0.54715  1.0000
  F   F61       1.0  0.81497  0.16011  0.05347  1.0000
  F   F62       1.0  0.81498  0.15634  0.55539  1.0000
  F   F63       1.0  0.81421  0.65893  0.06118  1.0000
  F   F64       1.0  0.80656  0.66082  0.56761  1.0000
  F   F65       1.0  0.20338  0.20100  0.20945  1.0000
  F   F66       1.0  0.20829  0.18539  0.72455  1.0000
  F   F67       1.0  0.20960  0.71041  0.20763  1.0000
  F   F68       1.0  0.19446  0.69370  0.71428  1.0000
  F   F69       1.0  0.44560  0.19950  0.21216  1.0000
  F   F70       1.0  0.45344  0.21438  0.71753  1.0000
  F   F71       1.0  0.45135  0.69537  0.21385  1.0000
  F   F72       1.0  0.44921  0.71200  0.71228  1.0000
  F   F73       1.0  0.69617  0.19485  0.21696  1.0000
  F   F74       1.0  0.70314  0.19608  0.71289  1.0000
  F   F75       1.0  0.69534  0.70995  0.21116  1.0000
  F   F76       1.0  0.71014  0.71112  0.69999  1.0000
  F   F77       1.0  0.95336  0.19277  0.22137  1.0000
  F   F78       1.0  0.95029  0.19060  0.71593  1.0000
  F   F79       1.0  0.95366  0.69297  0.21669  1.0000
  F   F80       1.0  0.94696  0.70270  0.70993  1.0000
  F   F81       1.0  0.14589  0.08113  0.04122  1.0000
  F   F82       1.0  0.14680  0.09186  0.53087  1.0000
  F   F83       1.0  0.14184  0.59721  0.05357  1.0000
  F   F84       1.0  0.14981  0.57468  0.53410  1.0000
  F   F85       1.0  0.39814  0.08416  0.03385  1.0000
  F   F86       1.0  0.40184  0.11171  0.53756  1.0000
  F   F87       1.0  0.39696  0.57807  0.04630  1.0000
  F   F88       1.0  0.39634  0.58772  0.53358  1.0000
  F   F89       1.0  0.64678  0.10388  0.01828  1.0000
  F   F90       1.0  0.64885  0.10813  0.52958  1.0000
  F   F91       1.0  0.64989  0.59375  0.02235  1.0000
  F   F92       1.0  0.65041  0.60369  0.53700  1.0000
  F   F93       1.0  0.90240  0.09153  0.04894  1.0000
  F   F94       1.0  0.90069  0.09827  0.53520  1.0000
  F   F95       1.0  0.89480  0.61231  0.04164  1.0000
  F   F96       1.0  0.89067  0.58875  0.54859  1.0000
  F   F97       1.0  0.14879  0.19879  0.11793  1.0000
  F   F98       1.0  0.15926  0.19667  0.61785  1.0000
  F   F99       1.0  0.14977  0.69433  0.14155  1.0000
  F   F100      1.0  0.15809  0.69306  0.60434  1.0000
  F   F101      1.0  0.40051  0.19750  0.11323  1.0000
  F   F102      1.0  0.40149  0.20033  0.63656  1.0000
  F   F103      1.0  0.40362  0.69285  0.12249  1.0000
  F   F104      1.0  0.40358  0.70317  0.60672  1.0000
  F   F105      1.0  0.65824  0.18746  0.11468  1.0000
  F   F106      1.0  0.65239  0.20761  0.61352  1.0000
  F   F107      1.0  0.65287  0.71008  0.09949  1.0000
  F   F108      1.0  0.65395  0.70277  0.62403  1.0000
  F   F109      1.0  0.89791  0.20514  0.13531  1.0000
  F   F110      1.0  0.90180  0.19642  0.62678  1.0000
  F   F111      1.0  0.89764  0.69553  0.13735  1.0000
  F   F112      1.0  0.89298  0.70510  0.62375  1.0000
  F   F113      1.0  0.09904  0.29779  0.38451  1.0000
  F   F114      1.0  0.08990  0.30128  0.86740  1.0000
  F   F115      1.0  0.09724  0.80351  0.37450  1.0000
  F   F116      1.0  0.10542  0.78040  0.86273  1.0000
  F   F117      1.0  0.34705  0.29524  0.38310  1.0000
  F   F118      1.0  0.34900  0.29580  0.87219  1.0000
  F   F119      1.0  0.34791  0.82068  0.37687  1.0000
  F   F120      1.0  0.34635  0.79956  0.88150  1.0000
  F   F121      1.0  0.60334  0.31785  0.33714  1.0000
  F   F122      1.0  0.60228  0.30687  0.88583  1.0000
  F   F123      1.0  0.59895  0.80143  0.36619  1.0000
  F   F124      1.0  0.60156  0.80633  0.88448  1.0000
  F   F125      1.0  0.85055  0.30265  0.37379  1.0000
  F   F126      1.0  0.84808  0.29814  0.87043  1.0000
  F   F127      1.0  0.85125  0.78986  0.38483  1.0000
  F   F128      1.0  0.85275  0.79896  0.88032  1.0000
  F   F129      1.0  0.05919  0.23726  0.14837  1.0000
  F   F130      1.0  0.07761  0.25418  0.61556  1.0000
  F   F131      1.0  0.06356  0.74406  0.14617  1.0000
  F   F132      1.0  0.07286  0.75155  0.63417  1.0000
  F   F133      1.0  0.31468  0.25286  0.12904  1.0000
  F   F134      1.0  0.32291  0.25711  0.62167  1.0000
  F   F135      1.0  0.32092  0.75382  0.14450  1.0000
  F   F136      1.0  0.31691  0.75044  0.64629  1.0000
  F   F137      1.0  0.57213  0.26360  0.12177  1.0000
  F   F138      1.0  0.56122  0.26420  0.65225  1.0000
  F   F139      1.0  0.56054  0.76581  0.14416  1.0000
  F   F140      1.0  0.56463  0.75701  0.64594  1.0000
  F   F141      1.0  0.81662  0.24987  0.14448  1.0000
  F   F142      1.0  0.80943  0.24458  0.65524  1.0000
  F   F143      1.0  0.81291  0.76335  0.13658  1.0000
  F   F144      1.0  0.80868  0.74428  0.66521  1.0000
  F   F145      1.0  0.12414  0.38080  0.09593  1.0000
  F   F146      1.0  0.12505  0.37131  0.62352  1.0000
  F   F147      1.0  0.12297  0.87152  0.08864  1.0000
  F   F148      1.0  0.12153  0.87078  0.61162  1.0000
  F   F149      1.0  0.37346  0.36938  0.10697  1.0000
  F   F150      1.0  0.37263  0.36384  0.62993  1.0000
  F   F151      1.0  0.37566  0.87146  0.10982  1.0000
  F   F152      1.0  0.37175  0.86161  0.61846  1.0000
  F   F153      1.0  0.62904  0.36100  0.10839  1.0000
  F   F154      1.0  0.62290  0.37914  0.59679  1.0000
  F   F155      1.0  0.62603  0.88878  0.11237  1.0000
  F   F156      1.0  0.62408  0.87962  0.59702  1.0000
  F   F157      1.0  0.87102  0.37550  0.10499  1.0000
  F   F158      1.0  0.87061  0.35305  0.61256  1.0000
  F   F159      1.0  0.88048  0.88024  0.09610  1.0000
  F   F160      1.0  0.87501  0.86137  0.61595  1.0000
  F   F161      1.0  0.18899  0.24232  0.35186  1.0000
  F   F162      1.0  0.17461  0.24652  0.87405  1.0000
  F   F163      1.0  0.18668  0.75127  0.36083  1.0000
  F   F164      1.0  0.18333  0.73963  0.85139  1.0000
  F   F165      1.0  0.44625  0.25648  0.33282  1.0000
  F   F166      1.0  0.43831  0.25369  0.86643  1.0000
  F   F167      1.0  0.43537  0.75026  0.36274  1.0000
  F   F168      1.0  0.43893  0.75532  0.85109  1.0000
  F   F169      1.0  0.68165  0.25788  0.35456  1.0000
  F   F170      1.0  0.69678  0.26591  0.83787  1.0000
  F   F171      1.0  0.68244  0.76118  0.34305  1.0000
  F   F172      1.0  0.68853  0.76070  0.83762  1.0000
  F   F173      1.0  0.93388  0.23980  0.36973  1.0000
  F   F174      1.0  0.93767  0.24428  0.85906  1.0000
  F   F175      1.0  0.92970  0.74228  0.37223  1.0000
  F   F176      1.0  0.94507  0.75066  0.83660  1.0000
  F   F177      1.0  0.12694  0.13492  0.37684  1.0000
  F   F178      1.0  0.12976  0.13791  0.86993  1.0000
  F   F179      1.0  0.13107  0.63967  0.37792  1.0000
  F   F180      1.0  0.12519  0.60234  0.90741  1.0000
  F   F181      1.0  0.37347  0.13450  0.39404  1.0000
  F   F182      1.0  0.37758  0.13986  0.88518  1.0000
  F   F183      1.0  0.37677  0.62821  0.38453  1.0000
  F   F184      1.0  0.37386  0.62553  0.89605  1.0000
  F   F185      1.0  0.62088  0.11840  0.40527  1.0000
  F   F186      1.0  0.62627  0.13435  0.87201  1.0000
  F   F187      1.0  0.62517  0.62548  0.39395  1.0000
  F   F188      1.0  0.62519  0.63682  0.88076  1.0000
  F   F189      1.0  0.87416  0.14137  0.38650  1.0000
  F   F190      1.0  0.87598  0.11315  0.90652  1.0000
  F   F191      1.0  0.87377  0.61285  0.40628  1.0000
  F   F192      1.0  0.87377  0.62520  0.89528  1.0000
  F   F193      1.0  0.00425  0.36613  0.08088  1.0000
  F   F194      1.0  0.01249  0.34487  0.57870  1.0000
  F   F195      1.0  0.00439  0.86622  0.07109  1.0000
  F   F196      1.0  0.00961  0.84137  0.59667  1.0000
  F   F197      1.0  0.25357  0.36377  0.07762  1.0000
  F   F198      1.0  0.25678  0.35441  0.58592  1.0000
  F   F199      1.0  0.25897  0.87180  0.06956  1.0000
  F   F200      1.0  0.25826  0.84517  0.58528  1.0000
  F   F201      1.0  0.50739  0.36020  0.08468  1.0000
  F   F202      1.0  0.50472  0.37498  0.56532  1.0000
  F   F203      1.0  0.50803  0.87059  0.07774  1.0000
  F   F204      1.0  0.50876  0.85702  0.57800  1.0000
  F   F205      1.0  0.75710  0.35483  0.08327  1.0000
  F   F206      1.0  0.75800  0.35468  0.57043  1.0000
  F   F207      1.0  0.75041  0.86032  0.08396  1.0000
  F   F208      1.0  0.75641  0.86281  0.58073  1.0000
  F   F209      1.0  0.06394  0.47215  0.18019  1.0000
  F   F210      1.0  0.06899  0.47798  0.68898  1.0000
  F   F211      1.0  0.07406  0.97406  0.17737  1.0000
  F   F212      1.0  0.06375  0.98176  0.69012  1.0000
  F   F213      1.0  0.31461  0.49070  0.17824  1.0000
  F   F214      1.0  0.31241  0.49324  0.67356  1.0000
  F   F215      1.0  0.31708  0.97973  0.18316  1.0000
  F   F216      1.0  0.31624  0.98077  0.67907  1.0000
  F   F217      1.0  0.57282  0.49698  0.16679  1.0000
  F   F218      1.0  0.56914  0.50069  0.65271  1.0000
  F   F219      1.0  0.56954  0.99406  0.17358  1.0000
  F   F220      1.0  0.57052  0.00287  0.65885  1.0000
  F   F221      1.0  0.81701  0.47468  0.19840  1.0000
  F   F222      1.0  0.81257  0.47932  0.68430  1.0000
  F   F223      1.0  0.82084  0.99164  0.17431  1.0000
  F   F224      1.0  0.81987  0.97952  0.66628  1.0000
  F   F225      1.0  0.23822  0.14107  0.43000  1.0000
  F   F226      1.0  0.24355  0.15075  0.91859  1.0000
  F   F227      1.0  0.24101  0.62519  0.44058  1.0000
  F   F228      1.0  0.24028  0.63199  0.93188  1.0000
  F   F229      1.0  0.49416  0.14319  0.43244  1.0000
  F   F230      1.0  0.49533  0.13142  0.91894  1.0000
  F   F231      1.0  0.48909  0.62792  0.42814  1.0000
  F   F232      1.0  0.49379  0.65270  0.92542  1.0000
  F   F233      1.0  0.73760  0.13953  0.42262  1.0000
  F   F234      1.0  0.74283  0.14926  0.91351  1.0000
  F   F235      1.0  0.74179  0.66023  0.42725  1.0000
  F   F236      1.0  0.73998  0.64651  0.92178  1.0000
  F   F237      1.0  0.99864  0.12794  0.42327  1.0000
  F   F238      1.0  0.99085  0.14184  0.93779  1.0000
  F   F239      1.0  0.98943  0.62810  0.43010  1.0000
  F   F240      1.0  0.99217  0.63596  0.92535  1.0000
  F   F241      1.0  0.18691  0.01023  0.32196  1.0000
  F   F242      1.0  0.17478  0.00207  0.84452  1.0000
  F   F243      1.0  0.18775  0.50405  0.32650  1.0000
  F   F244      1.0  0.18497  0.50107  0.83596  1.0000
  F   F245      1.0  0.43245  0.02234  0.32664  1.0000
  F   F246      1.0  0.43068  0.00585  0.83843  1.0000
  F   F247      1.0  0.43664  0.51505  0.32026  1.0000
  F   F248      1.0  0.43019  0.52122  0.82653  1.0000
  F   F249      1.0  0.68300  0.02191  0.31790  1.0000
  F   F250      1.0  0.68754  0.01978  0.80154  1.0000
  F   F251      1.0  0.67844  0.52485  0.32614  1.0000
  F   F252      1.0  0.67842  0.51666  0.82501  1.0000
  F   F253      1.0  0.93064  0.00924  0.32815  1.0000
  F   F254      1.0  0.93174  0.01279  0.82703  1.0000
  F   F255      1.0  0.92492  0.51324  0.32597  1.0000
  F   F256      1.0  0.92799  0.51335  0.81735  1.0000
  F   F257      1.0  0.00114  0.24428  0.00015  1.0000
  F   F258      1.0  0.99503  0.25895  0.48620  1.0000
  F   F259      1.0  0.99950  0.75221  0.99352  1.0000
  F   F260      1.0  0.00180  0.74795  0.50141  1.0000
  F   F261      1.0  0.25533  0.24642  0.00524  1.0000
  F   F262      1.0  0.24807  0.24950  0.49932  1.0000
  F   F263      1.0  0.24879  0.73467  0.01174  1.0000
  F   F264      1.0  0.24752  0.74844  0.49586  1.0000
  F   F265      1.0  0.49786  0.25292  0.99641  1.0000
  F   F266      1.0  0.50177  0.26602  0.49225  1.0000
  F   F267      1.0  0.50282  0.76426  0.98999  1.0000
  F   F268      1.0  0.49725  0.74312  0.50278  1.0000
  F   F269      1.0  0.74862  0.23884  0.00445  1.0000
  F   F270      1.0  0.75003  0.24783  0.49985  1.0000
  F   F271      1.0  0.74530  0.75068  0.00807  1.0000
  F   F272      1.0  0.75462  0.77896  0.48619  1.0000
  F   F273      1.0  0.12017  0.98703  0.26381  1.0000
  F   F274      1.0  0.12054  0.99044  0.75374  1.0000
  F   F275      1.0  0.11632  0.49093  0.26152  1.0000
  F   F276      1.0  0.12682  0.50110  0.74621  1.0000
  F   F277      1.0  0.38361  0.00876  0.24280  1.0000
  F   F278      1.0  0.37999  0.00967  0.73734  1.0000
  F   F279      1.0  0.38017  0.51016  0.24129  1.0000
  F   F280      1.0  0.36574  0.49016  0.75827  1.0000
  F   F281      1.0  0.61731  0.99973  0.25071  1.0000
  F   F282      1.0  0.61566  0.00895  0.76506  1.0000
  F   F283      1.0  0.62055  0.51623  0.24759  1.0000
  F   F284      1.0  0.62287  0.50221  0.74740  1.0000
  F   F285      1.0  0.87266  0.99433  0.26415  1.0000
  F   F286      1.0  0.86653  0.99242  0.75937  1.0000
  F   F287      1.0  0.86795  0.50100  0.26566  1.0000
  F   F288      1.0  0.87372  0.50283  0.74722  1.0000
  F   F289      1.0  0.04343  0.01555  0.02330  1.0000
  F   F290      1.0  0.05170  0.02852  0.51818  1.0000
  F   F291      1.0  0.04041  0.52001  0.03804  1.0000
  F   F292      1.0  0.04899  0.53179  0.51216  1.0000
  F   F293      1.0  0.29723  0.03104  0.01296  1.0000
  F   F294      1.0  0.29152  0.02953  0.51096  1.0000
  F   F295      1.0  0.28715  0.52184  0.03254  1.0000
  F   F296      1.0  0.29132  0.53084  0.52128  1.0000
  F   F297      1.0  0.54402  0.04261  0.01666  1.0000
  F   F298      1.0  0.53508  0.05082  0.53153  1.0000
  F   F299      1.0  0.53512  0.54066  0.02961  1.0000
  F   F300      1.0  0.54563  0.53849  0.50495  1.0000
  F   F301      1.0  0.78632  0.02472  0.02764  1.0000
  F   F302      1.0  0.79252  0.03670  0.52194  1.0000
  F   F303      1.0  0.79759  0.52771  0.02397  1.0000
  F   F304      1.0  0.79207  0.53859  0.52511  1.0000
  F   F305      1.0  0.23507  0.40200  0.23532  1.0000
  F   F306      1.0  0.23665  0.40874  0.73484  1.0000
  F   F307      1.0  0.23759  0.90828  0.22326  1.0000
  F   F308      1.0  0.23299  0.91781  0.73404  1.0000
  F   F309      1.0  0.48468  0.43342  0.22406  1.0000
  F   F310      1.0  0.48549  0.42140  0.72539  1.0000
  F   F311      1.0  0.48622  0.91738  0.23004  1.0000
  F   F312      1.0  0.48864  0.90378  0.74564  1.0000
  F   F313      1.0  0.72962  0.42748  0.21580  1.0000
  F   F314      1.0  0.73122  0.42719  0.71072  1.0000
  F   F315      1.0  0.73606  0.91487  0.22631  1.0000
  F   F316      1.0  0.73562  0.91894  0.71974  1.0000
  F   F317      1.0  0.98341  0.38829  0.24316  1.0000
  F   F318      1.0  0.98503  0.41880  0.71625  1.0000
  F   F319      1.0  0.98618  0.89827  0.24299  1.0000
  F   F320      1.0  0.98413  0.92466  0.72260  1.0000
  F   F321      1.0  0.21292  0.45501  0.46941  1.0000
  F   F322      1.0  0.20089  0.46726  0.99367  1.0000
  F   F323      1.0  0.21012  0.97084  0.47337  1.0000
  F   F324      1.0  0.21015  0.97265  0.97346  1.0000
  F   F325      1.0  0.44985  0.45589  0.47436  1.0000
  F   F326      1.0  0.46425  0.46871  0.96959  1.0000
  F   F327      1.0  0.45382  0.97261  0.49844  1.0000
  F   F328      1.0  0.46476  0.96653  0.96404  1.0000
  F   F329      1.0  0.70948  0.48133  0.47039  1.0000
  F   F330      1.0  0.71694  0.45759  0.96801  1.0000
  F   F331      1.0  0.71505  0.97350  0.45954  1.0000
  F   F332      1.0  0.70464  0.98005  0.96616  1.0000
  F   F333      1.0  0.95099  0.45677  0.49859  1.0000
  F   F334      1.0  0.95376  0.46892  0.98827  1.0000
  F   F335      1.0  0.95925  0.96047  0.48682  1.0000
  F   F336      1.0  0.95752  0.96465  0.97989  1.0000
  F   F337      1.0  0.01537  0.06533  0.28428  1.0000
  F   F338      1.0  0.01834  0.09723  0.77041  1.0000
  F   F339      1.0  0.01153  0.56509  0.28470  1.0000
  F   F340      1.0  0.01093  0.58487  0.77573  1.0000
  F   F341      1.0  0.27118  0.08601  0.26733  1.0000
  F   F342      1.0  0.26665  0.08169  0.77786  1.0000
  F   F343      1.0  0.26536  0.58944  0.27913  1.0000
  F   F344      1.0  0.26670  0.59618  0.77036  1.0000
  F   F345      1.0  0.51486  0.11220  0.26340  1.0000
  F   F346      1.0  0.51619  0.09333  0.75637  1.0000
  F   F347      1.0  0.51528  0.58508  0.27995  1.0000
  F   F348      1.0  0.51385  0.58740  0.77672  1.0000
  F   F349      1.0  0.76340  0.08430  0.27570  1.0000
  F   F350      1.0  0.76835  0.08228  0.77727  1.0000
  F   F351      1.0  0.76324  0.60210  0.26806  1.0000
  F   F352      1.0  0.76545  0.57580  0.77440  1.0000
  F   F353      1.0  0.11002  0.40913  0.45926  1.0000
  F   F354      1.0  0.09963  0.39344  0.96065  1.0000
  F   F355      1.0  0.10313  0.91579  0.44952  1.0000
  F   F356      1.0  0.09661  0.89035  0.95946  1.0000
  F   F357      1.0  0.35508  0.41832  0.45571  1.0000
  F   F358      1.0  0.35193  0.40699  0.96913  1.0000
  F   F359      1.0  0.35329  0.91328  0.46343  1.0000
  F   F360      1.0  0.35228  0.90823  0.95495  1.0000
  F   F361      1.0  0.59863  0.41266  0.45311  1.0000
  F   F362      1.0  0.60173  0.42635  0.96061  1.0000
  F   F363      1.0  0.59907  0.90512  0.46300  1.0000
  F   F364      1.0  0.60574  0.93050  0.95887  1.0000
  F   F365      1.0  0.84664  0.41279  0.46611  1.0000
  F   F366      1.0  0.85184  0.39340  0.96216  1.0000
  F   F367      1.0  0.85067  0.89152  0.46939  1.0000
  F   F368      1.0  0.84545  0.91699  0.96741  1.0000
  F   F369      1.0  0.04984  0.29052  0.28370  1.0000
  F   F370      1.0  0.04039  0.28612  0.77690  1.0000
  F   F371      1.0  0.04745  0.78293  0.29660  1.0000
  F   F372      1.0  0.04346  0.78456  0.78846  1.0000
  F   F373      1.0  0.29952  0.30035  0.28966  1.0000
  F   F374      1.0  0.29544  0.29060  0.78264  1.0000
  F   F375      1.0  0.29890  0.80087  0.29626  1.0000
  F   F376      1.0  0.29137  0.78911  0.79499  1.0000
  F   F377      1.0  0.53720  0.30376  0.29382  1.0000
  F   F378      1.0  0.54841  0.31693  0.79168  1.0000
  F   F379      1.0  0.54073  0.80379  0.28337  1.0000
  F   F380      1.0  0.55517  0.80322  0.78150  1.0000
  F   F381      1.0  0.78841  0.29590  0.29172  1.0000
  F   F382      1.0  0.78984  0.30379  0.79577  1.0000
  F   F383      1.0  0.81029  0.80448  0.27547  1.0000
  F   F384      1.0  0.79637  0.80040  0.79910  1.0000
