data_image0
_chemical_formula_structural       Hf96F384
_chemical_formula_sum              "Hf96 F384"
_cell_length_a       31.03
_cell_length_b       15.513
_cell_length_c       15.5092
_cell_angle_alpha    63.342
_cell_angle_beta     63.342
_cell_angle_gamma    80.1625

_space_group_name_H-M_alt    "P 1"
_space_group_IT_number       1

loop_
  _space_group_symop_operation_xyz
  'x, y, z'

loop_
  _atom_site_type_symbol
  _atom_site_label
  _atom_site_symmetry_multiplicity
  _atom_site_fract_x
  _atom_site_fract_y
  _atom_site_fract_z
  _atom_site_occupancy
  Hf  Hf1       1.0  0.19706  0.10610  0.37597  1.0000
  Hf  Hf2       1.0  0.19938  0.10493  0.87126  1.0000
  Hf  Hf3       1.0  0.19549  0.61392  0.36845  1.0000
  Hf  Hf4       1.0  0.19796  0.61114  0.86874  1.0000
  Hf  Hf5       1.0  0.44392  0.10084  0.37753  1.0000
  Hf  Hf6       1.0  0.44706  0.10494  0.86602  1.0000
  Hf  Hf7       1.0  0.44484  0.60930  0.38110  1.0000
  Hf  Hf8       1.0  0.44692  0.60388  0.87434  1.0000
  Hf  Hf9       1.0  0.69698  0.11060  0.37012  1.0000
  Hf  Hf10      1.0  0.69498  0.10064  0.89050  1.0000
  Hf  Hf11      1.0  0.69572  0.60385  0.37109  1.0000
  Hf  Hf12      1.0  0.69427  0.60458  0.87865  1.0000
  Hf  Hf13      1.0  0.95136  0.10757  0.36907  1.0000
  Hf  Hf14      1.0  0.94450  0.10709  0.88117  1.0000
  Hf  Hf15      1.0  0.94906  0.60817  0.37077  1.0000
  Hf  Hf16      1.0  0.94485  0.61675  0.87407  1.0000
  Hf  Hf17      1.0  0.05776  0.39294  0.11984  1.0000
  Hf  Hf18      1.0  0.05615  0.39489  0.62222  1.0000
  Hf  Hf19      1.0  0.05441  0.89222  0.12189  1.0000
  Hf  Hf20      1.0  0.05297  0.88644  0.62501  1.0000
  Hf  Hf21      1.0  0.30186  0.38826  0.12839  1.0000
  Hf  Hf22      1.0  0.30513  0.39511  0.62479  1.0000
  Hf  Hf23      1.0  0.30318  0.90134  0.11524  1.0000
  Hf  Hf24      1.0  0.30657  0.89829  0.61712  1.0000
  Hf  Hf25      1.0  0.55268  0.38817  0.13497  1.0000
  Hf  Hf26      1.0  0.55563  0.39230  0.62399  1.0000
  Hf  Hf27      1.0  0.55191  0.88671  0.12481  1.0000
  Hf  Hf28      1.0  0.55474  0.88808  0.62056  1.0000
  Hf  Hf29      1.0  0.80279  0.38819  0.12351  1.0000
  Hf  Hf30      1.0  0.80494  0.38624  0.63615  1.0000
  Hf  Hf31      1.0  0.80330  0.89636  0.12861  1.0000
  Hf  Hf32      1.0  0.80447  0.89995  0.62646  1.0000
  Hf  Hf33      1.0  0.05600  0.18111  0.42029  1.0000
  Hf  Hf34      1.0  0.05702  0.18873  0.91424  1.0000
  Hf  Hf35      1.0  0.05589  0.68141  0.41823  1.0000
  Hf  Hf36      1.0  0.05458  0.68054  0.92435  1.0000
  Hf  Hf37      1.0  0.30650  0.18933  0.40506  1.0000
  Hf  Hf38      1.0  0.30699  0.18934  0.90650  1.0000
  Hf  Hf39      1.0  0.30416  0.68417  0.41247  1.0000
  Hf  Hf40      1.0  0.30476  0.68178  0.92044  1.0000
  Hf  Hf41      1.0  0.55426  0.17840  0.41666  1.0000
  Hf  Hf42      1.0  0.55556  0.17679  0.91678  1.0000
  Hf  Hf43      1.0  0.55345  0.67278  0.41892  1.0000
  Hf  Hf44      1.0  0.55293  0.68062  0.92354  1.0000
  Hf  Hf45      1.0  0.80296  0.18301  0.42043  1.0000
  Hf  Hf46      1.0  0.80313  0.17658  0.91947  1.0000
  Hf  Hf47      1.0  0.80471  0.68306  0.42476  1.0000
  Hf  Hf48      1.0  0.80320  0.68053  0.92541  1.0000
  Hf  Hf49      1.0  0.16348  0.39303  0.32941  1.0000
  Hf  Hf50      1.0  0.15895  0.39269  0.83276  1.0000
  Hf  Hf51      1.0  0.15866  0.89190  0.33026  1.0000
  Hf  Hf52      1.0  0.16125  0.87927  0.83984  1.0000
  Hf  Hf53      1.0  0.40789  0.38346  0.34317  1.0000
  Hf  Hf54      1.0  0.41104  0.38524  0.83295  1.0000
  Hf  Hf55      1.0  0.40850  0.88666  0.32789  1.0000
  Hf  Hf56      1.0  0.40996  0.88572  0.82623  1.0000
  Hf  Hf57      1.0  0.66005  0.38556  0.33501  1.0000
  Hf  Hf58      1.0  0.65786  0.38431  0.83450  1.0000
  Hf  Hf59      1.0  0.65640  0.88702  0.33148  1.0000
  Hf  Hf60      1.0  0.65613  0.88495  0.84410  1.0000
  Hf  Hf61      1.0  0.90664  0.38729  0.33171  1.0000
  Hf  Hf62      1.0  0.91010  0.39381  0.83110  1.0000
  Hf  Hf63      1.0  0.90809  0.88992  0.33584  1.0000
  Hf  Hf64      1.0  0.90686  0.89100  0.83428  1.0000
  Hf  Hf65      1.0  0.19487  0.31974  0.08076  1.0000
  Hf  Hf66      1.0  0.19981  0.32905  0.57214  1.0000
  Hf  Hf67      1.0  0.19333  0.81387  0.08451  1.0000
  Hf  Hf68      1.0  0.19114  0.82080  0.58680  1.0000
  Hf  Hf69      1.0  0.44339  0.31991  0.08410  1.0000
  Hf  Hf70      1.0  0.44790  0.31481  0.58222  1.0000
  Hf  Hf71      1.0  0.44406  0.82216  0.08254  1.0000
  Hf  Hf72      1.0  0.43973  0.81950  0.58517  1.0000
  Hf  Hf73      1.0  0.69185  0.31792  0.08577  1.0000
  Hf  Hf74      1.0  0.69319  0.31570  0.59134  1.0000
  Hf  Hf75      1.0  0.69772  0.81914  0.08540  1.0000
  Hf  Hf76      1.0  0.69594  0.82280  0.57824  1.0000
  Hf  Hf77      1.0  0.94026  0.31932  0.08340  1.0000
  Hf  Hf78      1.0  0.94270  0.32081  0.59095  1.0000
  Hf  Hf79      1.0  0.94207  0.81756  0.08434  1.0000
  Hf  Hf80      1.0  0.94501  0.81914  0.57966  1.0000
  Hf  Hf81      1.0  0.09474  0.11139  0.16005  1.0000
  Hf  Hf82      1.0  0.09098  0.11075  0.67101  1.0000
  Hf  Hf83      1.0  0.09285  0.61099  0.16641  1.0000
  Hf  Hf84      1.0  0.08986  0.61437  0.66211  1.0000
  Hf  Hf85      1.0  0.34026  0.11890  0.15845  1.0000
  Hf  Hf86      1.0  0.34441  0.11610  0.65805  1.0000
  Hf  Hf87      1.0  0.34243  0.61595  0.16483  1.0000
  Hf  Hf88      1.0  0.34228  0.60887  0.67010  1.0000
  Hf  Hf89      1.0  0.58946  0.10852  0.17214  1.0000
  Hf  Hf90      1.0  0.59497  0.10591  0.66607  1.0000
  Hf  Hf91      1.0  0.59155  0.61280  0.15892  1.0000
  Hf  Hf92      1.0  0.59431  0.61122  0.66686  1.0000
  Hf  Hf93      1.0  0.83729  0.10772  0.17247  1.0000
  Hf  Hf94      1.0  0.84493  0.11914  0.65463  1.0000
  Hf  Hf95      1.0  0.84258  0.61400  0.16585  1.0000
  Hf  Hf96      1.0  0.84022  0.61091  0.67460  1.0000
  F   F1        1.0  0.07536  0.11563  0.30301  1.0000
  F   F2        1.0  0.07323  0.12112  0.80788  1.0000
  F   F3        1.0  0.08527  0.63845  0.30030  1.0000
  F   F4        1.0  0.08128  0.63406  0.79866  1.0000
  F   F5        1.0  0.32757  0.12367  0.30306  1.0000
  F   F6        1.0  0.33005  0.13046  0.79696  1.0000
  F   F7        1.0  0.31948  0.61054  0.31702  1.0000
  F   F8        1.0  0.32810  0.61909  0.81470  1.0000
  F   F9        1.0  0.57744  0.12532  0.30677  1.0000
  F   F10       1.0  0.57703  0.11090  0.80652  1.0000
  F   F11       1.0  0.58244  0.63457  0.29207  1.0000
  F   F12       1.0  0.57586  0.63279  0.79718  1.0000
  F   F13       1.0  0.83013  0.12208  0.30579  1.0000
  F   F14       1.0  0.82272  0.13199  0.80240  1.0000
  F   F15       1.0  0.82813  0.63077  0.31126  1.0000
  F   F16       1.0  0.82781  0.63283  0.80517  1.0000
  F   F17       1.0  0.19685  0.34710  0.43894  1.0000
  F   F18       1.0  0.18334  0.34182  0.95069  1.0000
  F   F19       1.0  0.18715  0.84863  0.44801  1.0000
  F   F20       1.0  0.20412  0.85594  0.92205  1.0000
  F   F21       1.0  0.43590  0.32926  0.45469  1.0000
  F   F22       1.0  0.43631  0.33543  0.95331  1.0000
  F   F23       1.0  0.42554  0.83096  0.45839  1.0000
  F   F24       1.0  0.42519  0.82913  0.95999  1.0000
  F   F25       1.0  0.68238  0.33982  0.45143  1.0000
  F   F26       1.0  0.68406  0.34597  0.94905  1.0000
  F   F27       1.0  0.68309  0.84389  0.43991  1.0000
  F   F28       1.0  0.67861  0.83733  0.95614  1.0000
  F   F29       1.0  0.92480  0.33318  0.46119  1.0000
  F   F30       1.0  0.93771  0.34667  0.93991  1.0000
  F   F31       1.0  0.93640  0.84760  0.44221  1.0000
  F   F32       1.0  0.92316  0.82051  0.96513  1.0000
  F   F33       1.0  0.17288  0.38075  0.19218  1.0000
  F   F34       1.0  0.17229  0.38645  0.69382  1.0000
  F   F35       1.0  0.17286  0.88448  0.18467  1.0000
  F   F36       1.0  0.16516  0.85136  0.71724  1.0000
  F   F37       1.0  0.42166  0.39305  0.19770  1.0000
  F   F38       1.0  0.42243  0.35378  0.70346  1.0000
  F   F39       1.0  0.42313  0.88755  0.18836  1.0000
  F   F40       1.0  0.41173  0.85507  0.70394  1.0000
  F   F41       1.0  0.67403  0.36169  0.19953  1.0000
  F   F42       1.0  0.67170  0.37863  0.69609  1.0000
  F   F43       1.0  0.67159  0.88495  0.18876  1.0000
  F   F44       1.0  0.66265  0.85621  0.70710  1.0000
  F   F45       1.0  0.91766  0.36710  0.19748  1.0000
  F   F46       1.0  0.92748  0.38390  0.68893  1.0000
  F   F47       1.0  0.92507  0.85885  0.19827  1.0000
  F   F48       1.0  0.91347  0.85531  0.71037  1.0000
  F   F49       1.0  0.06502  0.16032  0.05131  1.0000
  F   F50       1.0  0.06232  0.15239  0.55046  1.0000
  F   F51       1.0  0.06341  0.65192  0.06093  1.0000
  F   F52       1.0  0.06327  0.66080  0.55060  1.0000
  F   F53       1.0  0.32530  0.16979  0.02700  1.0000
  F   F54       1.0  0.32780  0.17283  0.53737  1.0000
  F   F55       1.0  0.31175  0.65972  0.05842  1.0000
  F   F56       1.0  0.31903  0.65791  0.54806  1.0000
  F   F57       1.0  0.55915  0.15067  0.06763  1.0000
  F   F58       1.0  0.56757  0.14927  0.55855  1.0000
  F   F59       1.0  0.55463  0.63896  0.06982  1.0000
  F   F60       1.0  0.56784  0.65222  0.55151  1.0000
  F   F61       1.0  0.81724  0.15447  0.05740  1.0000
  F   F62       1.0  0.81207  0.16095  0.54554  1.0000
  F   F63       1.0  0.80848  0.64938  0.07027  1.0000
  F   F64       1.0  0.81568  0.65976  0.54954  1.0000
  F   F65       1.0  0.20584  0.20127  0.21078  1.0000
  F   F66       1.0  0.20131  0.21312  0.70206  1.0000
  F   F67       1.0  0.19874  0.71624  0.21725  1.0000
  F   F68       1.0  0.20546  0.70608  0.71401  1.0000
  F   F69       1.0  0.44980  0.19603  0.21259  1.0000
  F   F70       1.0  0.46062  0.19631  0.70899  1.0000
  F   F71       1.0  0.45759  0.70215  0.20425  1.0000
  F   F72       1.0  0.45067  0.70697  0.71760  1.0000
  F   F73       1.0  0.70515  0.19872  0.20288  1.0000
  F   F74       1.0  0.70713  0.20859  0.70717  1.0000
  F   F75       1.0  0.70535  0.69535  0.20289  1.0000
  F   F76       1.0  0.70370  0.70276  0.71080  1.0000
  F   F77       1.0  0.94750  0.19573  0.21141  1.0000
  F   F78       1.0  0.95613  0.20475  0.70849  1.0000
  F   F79       1.0  0.96000  0.69159  0.21008  1.0000
  F   F80       1.0  0.95368  0.69994  0.70512  1.0000
  F   F81       1.0  0.15235  0.09483  0.03659  1.0000
  F   F82       1.0  0.14865  0.07466  0.53939  1.0000
  F   F83       1.0  0.15310  0.59135  0.04503  1.0000
  F   F84       1.0  0.15034  0.61150  0.53660  1.0000
  F   F85       1.0  0.39484  0.08192  0.02916  1.0000
  F   F86       1.0  0.39959  0.08524  0.53475  1.0000
  F   F87       1.0  0.39998  0.59278  0.03250  1.0000
  F   F88       1.0  0.40209  0.58950  0.53310  1.0000
  F   F89       1.0  0.64863  0.06928  0.05392  1.0000
  F   F90       1.0  0.65460  0.09625  0.52647  1.0000
  F   F91       1.0  0.64627  0.58349  0.03787  1.0000
  F   F92       1.0  0.65244  0.59140  0.54311  1.0000
  F   F93       1.0  0.90404  0.07391  0.03735  1.0000
  F   F94       1.0  0.90527  0.09911  0.52199  1.0000
  F   F95       1.0  0.90017  0.61017  0.03719  1.0000
  F   F96       1.0  0.90333  0.59733  0.53763  1.0000
  F   F97       1.0  0.15284  0.19065  0.14260  1.0000
  F   F98       1.0  0.15454  0.18515  0.61948  1.0000
  F   F99       1.0  0.15488  0.70133  0.11336  1.0000
  F   F100      1.0  0.14715  0.70614  0.63549  1.0000
  F   F101      1.0  0.39835  0.18807  0.11894  1.0000
  F   F102      1.0  0.40237  0.18917  0.63422  1.0000
  F   F103      1.0  0.40004  0.69660  0.12953  1.0000
  F   F104      1.0  0.40013  0.68930  0.62980  1.0000
  F   F105      1.0  0.65152  0.19704  0.12086  1.0000
  F   F106      1.0  0.65170  0.19811  0.62607  1.0000
  F   F107      1.0  0.65078  0.70061  0.12442  1.0000
  F   F108      1.0  0.65145  0.71180  0.61743  1.0000
  F   F109      1.0  0.88889  0.20746  0.11464  1.0000
  F   F110      1.0  0.90447  0.19244  0.61871  1.0000
  F   F111      1.0  0.90032  0.69537  0.14058  1.0000
  F   F112      1.0  0.90260  0.70529  0.62468  1.0000
  F   F113      1.0  0.09799  0.30453  0.39266  1.0000
  F   F114      1.0  0.09640  0.29856  0.87575  1.0000
  F   F115      1.0  0.09750  0.78592  0.37399  1.0000
  F   F116      1.0  0.09480  0.78693  0.89202  1.0000
  F   F117      1.0  0.34860  0.30669  0.36059  1.0000
  F   F118      1.0  0.34970  0.32439  0.86446  1.0000
  F   F119      1.0  0.35014  0.79934  0.36542  1.0000
  F   F120      1.0  0.35067  0.79808  0.87762  1.0000
  F   F121      1.0  0.60391  0.29846  0.38481  1.0000
  F   F122      1.0  0.59385  0.30039  0.86815  1.0000
  F   F123      1.0  0.59786  0.80129  0.37470  1.0000
  F   F124      1.0  0.59223  0.80721  0.89652  1.0000
  F   F125      1.0  0.84542  0.31555  0.38899  1.0000
  F   F126      1.0  0.84748  0.30665  0.86348  1.0000
  F   F127      1.0  0.83957  0.79943  0.39002  1.0000
  F   F128      1.0  0.84866  0.80121  0.88848  1.0000
  F   F129      1.0  0.06919  0.25799  0.12234  1.0000
  F   F130      1.0  0.06382  0.24220  0.65190  1.0000
  F   F131      1.0  0.06483  0.74158  0.15300  1.0000
  F   F132      1.0  0.06849  0.75460  0.63451  1.0000
  F   F133      1.0  0.31232  0.24984  0.14179  1.0000
  F   F134      1.0  0.31560  0.24749  0.64314  1.0000
  F   F135      1.0  0.31689  0.75409  0.14029  1.0000
  F   F136      1.0  0.31520  0.75519  0.63501  1.0000
  F   F137      1.0  0.56648  0.25081  0.14350  1.0000
  F   F138      1.0  0.56006  0.24824  0.63412  1.0000
  F   F139      1.0  0.56122  0.75359  0.13179  1.0000
  F   F140      1.0  0.55626  0.74531  0.65205  1.0000
  F   F141      1.0  0.80511  0.24925  0.15727  1.0000
  F   F142      1.0  0.82210  0.25215  0.62260  1.0000
  F   F143      1.0  0.81977  0.75389  0.13694  1.0000
  F   F144      1.0  0.82066  0.75487  0.63240  1.0000
  F   F145      1.0  0.12681  0.38558  0.09196  1.0000
  F   F146      1.0  0.12646  0.35386  0.61725  1.0000
  F   F147      1.0  0.12358  0.87392  0.09986  1.0000
  F   F148      1.0  0.12262  0.88589  0.59656  1.0000
  F   F149      1.0  0.37249  0.35966  0.12536  1.0000
  F   F150      1.0  0.37687  0.35406  0.62010  1.0000
  F   F151      1.0  0.37278  0.87943  0.11204  1.0000
  F   F152      1.0  0.37751  0.89353  0.58639  1.0000
  F   F153      1.0  0.62713  0.37656  0.10378  1.0000
  F   F154      1.0  0.62259  0.35098  0.63121  1.0000
  F   F155      1.0  0.62162  0.86684  0.11046  1.0000
  F   F156      1.0  0.62436  0.87305  0.59681  1.0000
  F   F157      1.0  0.87254  0.36367  0.10942  1.0000
  F   F158      1.0  0.87104  0.34864  0.63868  1.0000
  F   F159      1.0  0.87657  0.87975  0.10559  1.0000
  F   F160      1.0  0.87812  0.89059  0.59068  1.0000
  F   F161      1.0  0.18143  0.24656  0.36885  1.0000
  F   F162      1.0  0.18663  0.25295  0.85246  1.0000
  F   F163      1.0  0.18239  0.75039  0.36130  1.0000
  F   F164      1.0  0.18236  0.74038  0.88507  1.0000
  F   F165      1.0  0.43243  0.24783  0.35936  1.0000
  F   F166      1.0  0.43278  0.23783  0.87344  1.0000
  F   F167      1.0  0.43900  0.75443  0.34352  1.0000
  F   F168      1.0  0.44097  0.74185  0.85645  1.0000
  F   F169      1.0  0.69362  0.25276  0.35274  1.0000
  F   F170      1.0  0.68349  0.24401  0.86676  1.0000
  F   F171      1.0  0.68122  0.74400  0.34734  1.0000
  F   F172      1.0  0.67258  0.73972  0.87672  1.0000
  F   F173      1.0  0.94622  0.24653  0.34432  1.0000
  F   F174      1.0  0.93620  0.25185  0.86095  1.0000
  F   F175      1.0  0.93754  0.75394  0.35733  1.0000
  F   F176      1.0  0.94694  0.75488  0.84387  1.0000
  F   F177      1.0  0.12774  0.15270  0.36490  1.0000
  F   F178      1.0  0.12724  0.13603  0.88268  1.0000
  F   F179      1.0  0.12321  0.61540  0.40481  1.0000
  F   F180      1.0  0.12606  0.60643  0.90887  1.0000
  F   F181      1.0  0.37856  0.13671  0.38152  1.0000
  F   F182      1.0  0.37824  0.15135  0.86506  1.0000
  F   F183      1.0  0.37512  0.64281  0.37822  1.0000
  F   F184      1.0  0.37434  0.63566  0.88897  1.0000
  F   F185      1.0  0.62589  0.13284  0.39182  1.0000
  F   F186      1.0  0.62273  0.12748  0.90809  1.0000
  F   F187      1.0  0.62591  0.62014  0.39103  1.0000
  F   F188      1.0  0.61709  0.61876  0.90193  1.0000
  F   F189      1.0  0.87880  0.15394  0.37158  1.0000
  F   F190      1.0  0.87047  0.12815  0.89561  1.0000
  F   F191      1.0  0.87912  0.62773  0.38981  1.0000
  F   F192      1.0  0.87586  0.63277  0.89622  1.0000
  F   F193      1.0  0.00243  0.34368  0.09283  1.0000
  F   F194      1.0  0.00854  0.35165  0.58907  1.0000
  F   F195      1.0  0.01246  0.85484  0.07425  1.0000
  F   F196      1.0  0.00104  0.85922  0.59297  1.0000
  F   F197      1.0  0.25544  0.35497  0.07817  1.0000
  F   F198      1.0  0.25728  0.37167  0.56946  1.0000
  F   F199      1.0  0.25982  0.86859  0.05930  1.0000
  F   F200      1.0  0.25044  0.85390  0.59592  1.0000
  F   F201      1.0  0.50431  0.35587  0.07976  1.0000
  F   F202      1.0  0.51098  0.37156  0.55366  1.0000
  F   F203      1.0  0.50711  0.87914  0.05576  1.0000
  F   F204      1.0  0.49523  0.86590  0.58720  1.0000
  F   F205      1.0  0.75728  0.36209  0.08113  1.0000
  F   F206      1.0  0.75718  0.35919  0.58025  1.0000
  F   F207      1.0  0.76010  0.85152  0.08413  1.0000
  F   F208      1.0  0.75921  0.87123  0.57628  1.0000
  F   F209      1.0  0.07101  0.48556  0.17070  1.0000
  F   F210      1.0  0.06894  0.48018  0.66874  1.0000
  F   F211      1.0  0.07049  0.98518  0.17548  1.0000
  F   F212      1.0  0.06614  0.98742  0.67302  1.0000
  F   F213      1.0  0.32086  0.48716  0.17176  1.0000
  F   F214      1.0  0.32334  0.48139  0.68175  1.0000
  F   F215      1.0  0.31150  0.98897  0.17963  1.0000
  F   F216      1.0  0.32312  0.99618  0.65691  1.0000
  F   F217      1.0  0.57423  0.47483  0.19123  1.0000
  F   F218      1.0  0.57872  0.48462  0.65545  1.0000
  F   F219      1.0  0.56164  0.97871  0.20491  1.0000
  F   F220      1.0  0.57433  0.98319  0.67539  1.0000
  F   F221      1.0  0.83405  0.49082  0.15123  1.0000
  F   F222      1.0  0.82316  0.48963  0.67372  1.0000
  F   F223      1.0  0.81326  0.98060  0.18599  1.0000
  F   F224      1.0  0.81355  0.99667  0.67737  1.0000
  F   F225      1.0  0.23968  0.14402  0.42958  1.0000
  F   F226      1.0  0.24448  0.13989  0.92408  1.0000
  F   F227      1.0  0.23665  0.63422  0.43064  1.0000
  F   F228      1.0  0.24782  0.63869  0.90999  1.0000
  F   F229      1.0  0.49242  0.13186  0.42692  1.0000
  F   F230      1.0  0.49219  0.12492  0.92151  1.0000
  F   F231      1.0  0.48926  0.64230  0.43333  1.0000
  F   F232      1.0  0.49033  0.62107  0.94317  1.0000
  F   F233      1.0  0.74625  0.12711  0.42525  1.0000
  F   F234      1.0  0.73526  0.12837  0.94602  1.0000
  F   F235      1.0  0.73895  0.65204  0.41934  1.0000
  F   F236      1.0  0.74181  0.63778  0.92619  1.0000
  F   F237      1.0  0.99686  0.12790  0.43055  1.0000
  F   F238      1.0  0.99299  0.13127  0.93096  1.0000
  F   F239      1.0  0.99577  0.64276  0.40886  1.0000
  F   F240      1.0  0.99642  0.63526  0.92541  1.0000
  F   F241      1.0  0.17620  0.01864  0.32462  1.0000
  F   F242      1.0  0.17948  0.01396  0.82158  1.0000
  F   F243      1.0  0.18805  0.52208  0.30703  1.0000
  F   F244      1.0  0.17880  0.51799  0.81331  1.0000
  F   F245      1.0  0.43254  0.00610  0.33144  1.0000
  F   F246      1.0  0.42408  0.02059  0.82467  1.0000
  F   F247      1.0  0.42824  0.50591  0.34987  1.0000
  F   F248      1.0  0.43547  0.51214  0.82396  1.0000
  F   F249      1.0  0.68125  0.00839  0.33959  1.0000
  F   F250      1.0  0.68025  0.01035  0.83344  1.0000
  F   F251      1.0  0.68431  0.51600  0.32152  1.0000
  F   F252      1.0  0.68056  0.52521  0.82445  1.0000
  F   F253      1.0  0.92944  0.01764  0.32517  1.0000
  F   F254      1.0  0.92538  0.01813  0.83659  1.0000
  F   F255      1.0  0.92836  0.51271  0.33008  1.0000
  F   F256      1.0  0.92485  0.52026  0.83451  1.0000
  F   F257      1.0  0.99575  0.24742  0.99930  1.0000
  F   F258      1.0  0.99672  0.26034  0.49295  1.0000
  F   F259      1.0  0.00046  0.75900  0.98519  1.0000
  F   F260      1.0  0.99736  0.74660  0.50222  1.0000
  F   F261      1.0  0.24845  0.24487  0.00339  1.0000
  F   F262      1.0  0.25225  0.24903  0.49948  1.0000
  F   F263      1.0  0.24764  0.74187  0.01373  1.0000
  F   F264      1.0  0.25134  0.74311  0.49988  1.0000
  F   F265      1.0  0.50315  0.25686  0.99193  1.0000
  F   F266      1.0  0.50539  0.24816  0.50255  1.0000
  F   F267      1.0  0.50201  0.76216  0.98755  1.0000
  F   F268      1.0  0.50046  0.75153  0.50288  1.0000
  F   F269      1.0  0.74871  0.25362  0.99360  1.0000
  F   F270      1.0  0.75139  0.25722  0.49724  1.0000
  F   F271      1.0  0.74734  0.75428  0.98936  1.0000
  F   F272      1.0  0.74948  0.75366  0.51501  1.0000
  F   F273      1.0  0.12270  0.99747  0.24650  1.0000
  F   F274      1.0  0.12102  0.99275  0.75402  1.0000
  F   F275      1.0  0.11877  0.49426  0.26736  1.0000
  F   F276      1.0  0.11637  0.50079  0.75011  1.0000
  F   F277      1.0  0.37506  0.00703  0.25270  1.0000
  F   F278      1.0  0.36834  0.99411  0.75486  1.0000
  F   F279      1.0  0.37141  0.50030  0.25852  1.0000
  F   F280      1.0  0.37637  0.49711  0.75466  1.0000
  F   F281      1.0  0.62818  0.00443  0.24829  1.0000
  F   F282      1.0  0.63108  0.00182  0.75069  1.0000
  F   F283      1.0  0.63091  0.50565  0.24295  1.0000
  F   F284      1.0  0.62774  0.50682  0.75634  1.0000
  F   F285      1.0  0.88351  0.01337  0.22852  1.0000
  F   F286      1.0  0.87503  0.00337  0.74434  1.0000
  F   F287      1.0  0.87225  0.50696  0.25616  1.0000
  F   F288      1.0  0.87482  0.50367  0.75747  1.0000
  F   F289      1.0  0.04887  0.03192  0.01698  1.0000
  F   F290      1.0  0.05017  0.02375  0.51766  1.0000
  F   F291      1.0  0.04624  0.52820  0.01327  1.0000
  F   F292      1.0  0.04036  0.52715  0.51553  1.0000
  F   F293      1.0  0.29612  0.04330  0.02220  1.0000
  F   F294      1.0  0.29727  0.04299  0.51438  1.0000
  F   F295      1.0  0.28611  0.53147  0.03612  1.0000
  F   F296      1.0  0.29487  0.53020  0.52643  1.0000
  F   F297      1.0  0.53456  0.03669  0.03188  1.0000
  F   F298      1.0  0.54712  0.02304  0.51421  1.0000
  F   F299      1.0  0.54403  0.51654  0.03730  1.0000
  F   F300      1.0  0.53583  0.53385  0.53091  1.0000
  F   F301      1.0  0.78421  0.02986  0.03015  1.0000
  F   F302      1.0  0.79331  0.03086  0.52689  1.0000
  F   F303      1.0  0.80351  0.53197  0.00178  1.0000
  F   F304      1.0  0.78610  0.53035  0.54532  1.0000
  F   F305      1.0  0.23813  0.40375  0.23034  1.0000
  F   F306      1.0  0.23855  0.42384  0.71313  1.0000
  F   F307      1.0  0.23250  0.90920  0.22882  1.0000
  F   F308      1.0  0.23584  0.92417  0.72641  1.0000
  F   F309      1.0  0.48549  0.41167  0.23458  1.0000
  F   F310      1.0  0.48783  0.41160  0.72382  1.0000
  F   F311      1.0  0.48792  0.91594  0.22995  1.0000
  F   F312      1.0  0.48293  0.92401  0.72498  1.0000
  F   F313      1.0  0.73640  0.41909  0.21914  1.0000
  F   F314      1.0  0.73603  0.42470  0.72997  1.0000
  F   F315      1.0  0.73326  0.92124  0.22797  1.0000
  F   F316      1.0  0.73675  0.91483  0.73295  1.0000
  F   F317      1.0  0.98293  0.40864  0.22753  1.0000
  F   F318      1.0  0.98646  0.43254  0.73067  1.0000
  F   F319      1.0  0.98894  0.92456  0.21293  1.0000
  F   F320      1.0  0.97586  0.93700  0.72187  1.0000
  F   F321      1.0  0.20595  0.48670  0.46466  1.0000
  F   F322      1.0  0.21252  0.47074  0.97045  1.0000
  F   F323      1.0  0.21135  0.97020  0.46936  1.0000
  F   F324      1.0  0.20322  0.97782  0.98046  1.0000
  F   F325      1.0  0.45334  0.46438  0.48281  1.0000
  F   F326      1.0  0.45508  0.46607  0.98186  1.0000
  F   F327      1.0  0.46123  0.95754  0.47170  1.0000
  F   F328      1.0  0.45854  0.96141  0.96357  1.0000
  F   F329      1.0  0.70144  0.46719  0.47877  1.0000
  F   F330      1.0  0.70754  0.47091  0.98065  1.0000
  F   F331      1.0  0.71065  0.96498  0.47992  1.0000
  F   F332      1.0  0.71402  0.96118  0.96830  1.0000
  F   F333      1.0  0.95449  0.46609  0.47831  1.0000
  F   F334      1.0  0.95438  0.47894  0.98470  1.0000
  F   F335      1.0  0.96424  0.96231  0.46900  1.0000
  F   F336      1.0  0.96188  0.96020  0.97067  1.0000
  F   F337      1.0  0.01265  0.08313  0.26958  1.0000
  F   F338      1.0  0.01302  0.08118  0.76757  1.0000
  F   F339      1.0  0.01786  0.57392  0.27075  1.0000
  F   F340      1.0  0.01352  0.59812  0.76944  1.0000
  F   F341      1.0  0.26396  0.09121  0.27385  1.0000
  F   F342      1.0  0.26627  0.08344  0.75885  1.0000
  F   F343      1.0  0.26159  0.59817  0.26195  1.0000
  F   F344      1.0  0.26682  0.58817  0.76374  1.0000
  F   F345      1.0  0.51301  0.08764  0.28157  1.0000
  F   F346      1.0  0.51508  0.07686  0.77764  1.0000
  F   F347      1.0  0.51714  0.59266  0.27530  1.0000
  F   F348      1.0  0.51390  0.57302  0.78310  1.0000
  F   F349      1.0  0.76143  0.08793  0.27354  1.0000
  F   F350      1.0  0.75977  0.10681  0.76858  1.0000
  F   F351      1.0  0.76726  0.58166  0.26984  1.0000
  F   F352      1.0  0.76524  0.58670  0.77408  1.0000
  F   F353      1.0  0.09958  0.40255  0.47453  1.0000
  F   F354      1.0  0.09985  0.39802  0.95622  1.0000
  F   F355      1.0  0.09787  0.90009  0.45620  1.0000
  F   F356      1.0  0.10732  0.89138  0.96215  1.0000
  F   F357      1.0  0.35176  0.39913  0.46534  1.0000
  F   F358      1.0  0.35257  0.41480  0.96204  1.0000
  F   F359      1.0  0.34803  0.90589  0.45273  1.0000
  F   F360      1.0  0.34798  0.92189  0.95978  1.0000
  F   F361      1.0  0.60842  0.42026  0.46006  1.0000
  F   F362      1.0  0.59601  0.39567  0.96774  1.0000
  F   F363      1.0  0.59449  0.90125  0.46580  1.0000
  F   F364      1.0  0.60059  0.92023  0.95429  1.0000
  F   F365      1.0  0.84316  0.41643  0.48150  1.0000
  F   F366      1.0  0.84934  0.38748  0.96879  1.0000
  F   F367      1.0  0.85037  0.90393  0.45541  1.0000
  F   F368      1.0  0.84691  0.91568  0.96535  1.0000
  F   F369      1.0  0.05088  0.29560  0.28250  1.0000
  F   F370      1.0  0.04334  0.29533  0.79230  1.0000
  F   F371      1.0  0.03863  0.79268  0.29867  1.0000
  F   F372      1.0  0.04757  0.80813  0.78508  1.0000
  F   F373      1.0  0.29112  0.29780  0.29305  1.0000
  F   F374      1.0  0.29775  0.29681  0.78099  1.0000
  F   F375      1.0  0.29713  0.80463  0.28594  1.0000
  F   F376      1.0  0.30613  0.80670  0.76862  1.0000
  F   F377      1.0  0.54762  0.29817  0.29173  1.0000
  F   F378      1.0  0.54635  0.28129  0.78400  1.0000
  F   F379      1.0  0.53910  0.78108  0.29558  1.0000
  F   F380      1.0  0.54213  0.80047  0.78904  1.0000
  F   F381      1.0  0.79847  0.29694  0.29176  1.0000
  F   F382      1.0  0.79372  0.29154  0.79342  1.0000
  F   F383      1.0  0.79364  0.79476  0.30069  1.0000
  F   F384      1.0  0.80442  0.80479  0.78183  1.0000
