data_image0
_chemical_formula_structural       Hf96F384
_chemical_formula_sum              "Hf96 F384"
_cell_length_a       31.0306
_cell_length_b       15.5208
_cell_length_c       15.5083
_cell_angle_alpha    63.342
_cell_angle_beta     63.342
_cell_angle_gamma    80.1625

_space_group_name_H-M_alt    "P 1"
_space_group_IT_number       1

loop_
  _space_group_symop_operation_xyz
  'x, y, z'

loop_
  _atom_site_type_symbol
  _atom_site_label
  _atom_site_symmetry_multiplicity
  _atom_site_fract_x
  _atom_site_fract_y
  _atom_site_fract_z
  _atom_site_occupancy
  Hf  Hf1       1.0  0.19769  0.11224  0.37644  1.0000
  Hf  Hf2       1.0  0.19725  0.11600  0.86586  1.0000
  Hf  Hf3       1.0  0.19541  0.61396  0.37351  1.0000
  Hf  Hf4       1.0  0.19738  0.59919  0.88095  1.0000
  Hf  Hf5       1.0  0.44765  0.10277  0.36937  1.0000
  Hf  Hf6       1.0  0.44993  0.10805  0.86611  1.0000
  Hf  Hf7       1.0  0.44362  0.60242  0.37925  1.0000
  Hf  Hf8       1.0  0.44513  0.61145  0.87660  1.0000
  Hf  Hf9       1.0  0.69639  0.10512  0.37399  1.0000
  Hf  Hf10      1.0  0.69488  0.10653  0.87890  1.0000
  Hf  Hf11      1.0  0.69875  0.60463  0.36810  1.0000
  Hf  Hf12      1.0  0.70029  0.60113  0.87754  1.0000
  Hf  Hf13      1.0  0.94489  0.10605  0.38453  1.0000
  Hf  Hf14      1.0  0.94436  0.11221  0.87965  1.0000
  Hf  Hf15      1.0  0.94631  0.61012  0.37174  1.0000
  Hf  Hf16      1.0  0.94507  0.60920  0.87659  1.0000
  Hf  Hf17      1.0  0.05942  0.40081  0.11639  1.0000
  Hf  Hf18      1.0  0.05288  0.40045  0.61489  1.0000
  Hf  Hf19      1.0  0.05324  0.89062  0.12388  1.0000
  Hf  Hf20      1.0  0.04920  0.90007  0.63402  1.0000
  Hf  Hf21      1.0  0.29829  0.39028  0.14493  1.0000
  Hf  Hf22      1.0  0.30241  0.38462  0.63369  1.0000
  Hf  Hf23      1.0  0.30727  0.89595  0.11652  1.0000
  Hf  Hf24      1.0  0.30327  0.89746  0.62376  1.0000
  Hf  Hf25      1.0  0.55207  0.39685  0.12606  1.0000
  Hf  Hf26      1.0  0.55375  0.38844  0.61394  1.0000
  Hf  Hf27      1.0  0.55313  0.88987  0.12824  1.0000
  Hf  Hf28      1.0  0.55510  0.89280  0.62013  1.0000
  Hf  Hf29      1.0  0.80404  0.38722  0.13375  1.0000
  Hf  Hf30      1.0  0.80459  0.38748  0.62498  1.0000
  Hf  Hf31      1.0  0.80466  0.88633  0.13489  1.0000
  Hf  Hf32      1.0  0.80139  0.89849  0.62113  1.0000
  Hf  Hf33      1.0  0.05410  0.18346  0.41385  1.0000
  Hf  Hf34      1.0  0.05564  0.18209  0.91401  1.0000
  Hf  Hf35      1.0  0.05608  0.69002  0.40925  1.0000
  Hf  Hf36      1.0  0.05761  0.67982  0.91208  1.0000
  Hf  Hf37      1.0  0.30556  0.18187  0.42429  1.0000
  Hf  Hf38      1.0  0.30816  0.18311  0.91159  1.0000
  Hf  Hf39      1.0  0.30165  0.68573  0.41614  1.0000
  Hf  Hf40      1.0  0.30405  0.68252  0.91688  1.0000
  Hf  Hf41      1.0  0.55685  0.18138  0.41390  1.0000
  Hf  Hf42      1.0  0.55286  0.18105  0.91714  1.0000
  Hf  Hf43      1.0  0.55236  0.68011  0.42179  1.0000
  Hf  Hf44      1.0  0.56213  0.68024  0.91117  1.0000
  Hf  Hf45      1.0  0.81068  0.17354  0.41979  1.0000
  Hf  Hf46      1.0  0.80694  0.18485  0.91924  1.0000
  Hf  Hf47      1.0  0.80476  0.67806  0.42809  1.0000
  Hf  Hf48      1.0  0.80634  0.68964  0.91739  1.0000
  Hf  Hf49      1.0  0.15504  0.38840  0.33062  1.0000
  Hf  Hf50      1.0  0.15897  0.39629  0.82287  1.0000
  Hf  Hf51      1.0  0.15982  0.89889  0.32649  1.0000
  Hf  Hf52      1.0  0.16098  0.89108  0.82343  1.0000
  Hf  Hf53      1.0  0.40978  0.39097  0.32841  1.0000
  Hf  Hf54      1.0  0.41086  0.39500  0.82942  1.0000
  Hf  Hf55      1.0  0.40682  0.89512  0.32572  1.0000
  Hf  Hf56      1.0  0.41164  0.88349  0.83397  1.0000
  Hf  Hf57      1.0  0.65827  0.38408  0.33546  1.0000
  Hf  Hf58      1.0  0.66022  0.38812  0.83385  1.0000
  Hf  Hf59      1.0  0.65582  0.88168  0.33054  1.0000
  Hf  Hf60      1.0  0.65750  0.88138  0.84108  1.0000
  Hf  Hf61      1.0  0.90984  0.39248  0.32826  1.0000
  Hf  Hf62      1.0  0.90858  0.38779  0.83667  1.0000
  Hf  Hf63      1.0  0.90915  0.88452  0.33582  1.0000
  Hf  Hf64      1.0  0.90694  0.88745  0.83771  1.0000
  Hf  Hf65      1.0  0.19677  0.30973  0.09129  1.0000
  Hf  Hf66      1.0  0.19507  0.32829  0.57500  1.0000
  Hf  Hf67      1.0  0.19456  0.82986  0.07256  1.0000
  Hf  Hf68      1.0  0.19153  0.82162  0.57925  1.0000
  Hf  Hf69      1.0  0.44445  0.31376  0.08489  1.0000
  Hf  Hf70      1.0  0.43967  0.31545  0.58723  1.0000
  Hf  Hf71      1.0  0.44300  0.81004  0.08703  1.0000
  Hf  Hf72      1.0  0.44348  0.81477  0.57772  1.0000
  Hf  Hf73      1.0  0.69408  0.31509  0.08663  1.0000
  Hf  Hf74      1.0  0.69440  0.31368  0.58845  1.0000
  Hf  Hf75      1.0  0.69387  0.81464  0.08211  1.0000
  Hf  Hf76      1.0  0.69327  0.80564  0.59450  1.0000
  Hf  Hf77      1.0  0.94502  0.32388  0.07927  1.0000
  Hf  Hf78      1.0  0.94391  0.32015  0.58112  1.0000
  Hf  Hf79      1.0  0.94292  0.81300  0.08233  1.0000
  Hf  Hf80      1.0  0.94270  0.82163  0.59160  1.0000
  Hf  Hf81      1.0  0.09110  0.11638  0.16076  1.0000
  Hf  Hf82      1.0  0.09172  0.12852  0.66530  1.0000
  Hf  Hf83      1.0  0.09278  0.61458  0.16263  1.0000
  Hf  Hf84      1.0  0.08980  0.62180  0.65496  1.0000
  Hf  Hf85      1.0  0.33987  0.11546  0.16632  1.0000
  Hf  Hf86      1.0  0.34425  0.10532  0.66487  1.0000
  Hf  Hf87      1.0  0.33999  0.61846  0.16123  1.0000
  Hf  Hf88      1.0  0.34064  0.61106  0.66679  1.0000
  Hf  Hf89      1.0  0.59407  0.10940  0.16475  1.0000
  Hf  Hf90      1.0  0.59497  0.11036  0.66346  1.0000
  Hf  Hf91      1.0  0.59151  0.60842  0.17243  1.0000
  Hf  Hf92      1.0  0.58889  0.60657  0.67301  1.0000
  Hf  Hf93      1.0  0.84011  0.10486  0.17067  1.0000
  Hf  Hf94      1.0  0.84048  0.10965  0.66695  1.0000
  Hf  Hf95      1.0  0.84185  0.60380  0.17286  1.0000
  Hf  Hf96      1.0  0.84186  0.61747  0.67179  1.0000
  F   F1        1.0  0.07542  0.11701  0.31576  1.0000
  F   F2        1.0  0.08338  0.12984  0.80341  1.0000
  F   F3        1.0  0.07407  0.64644  0.29719  1.0000
  F   F4        1.0  0.08218  0.62459  0.80649  1.0000
  F   F5        1.0  0.33496  0.14133  0.30250  1.0000
  F   F6        1.0  0.33168  0.13471  0.79597  1.0000
  F   F7        1.0  0.32428  0.62156  0.31093  1.0000
  F   F8        1.0  0.33535  0.62822  0.80251  1.0000
  F   F9        1.0  0.58092  0.12982  0.29931  1.0000
  F   F10       1.0  0.58146  0.12596  0.80149  1.0000
  F   F11       1.0  0.57751  0.61412  0.31413  1.0000
  F   F12       1.0  0.58668  0.61408  0.81461  1.0000
  F   F13       1.0  0.83503  0.11844  0.30887  1.0000
  F   F14       1.0  0.82462  0.11964  0.80456  1.0000
  F   F15       1.0  0.82786  0.63664  0.31053  1.0000
  F   F16       1.0  0.82927  0.63009  0.80364  1.0000
  F   F17       1.0  0.18895  0.34935  0.44224  1.0000
  F   F18       1.0  0.17851  0.34121  0.95568  1.0000
  F   F19       1.0  0.17791  0.84980  0.44862  1.0000
  F   F20       1.0  0.18789  0.84964  0.93580  1.0000
  F   F21       1.0  0.43765  0.33412  0.44566  1.0000
  F   F22       1.0  0.44596  0.34075  0.93408  1.0000
  F   F23       1.0  0.42763  0.84375  0.44675  1.0000
  F   F24       1.0  0.43835  0.83255  0.94785  1.0000
  F   F25       1.0  0.69188  0.33907  0.44204  1.0000
  F   F26       1.0  0.68411  0.32881  0.94807  1.0000
  F   F27       1.0  0.68366  0.83186  0.44991  1.0000
  F   F28       1.0  0.68506  0.83641  0.94945  1.0000
  F   F29       1.0  0.94080  0.33560  0.44713  1.0000
  F   F30       1.0  0.94262  0.34856  0.93854  1.0000
  F   F31       1.0  0.92882  0.83303  0.45146  1.0000
  F   F32       1.0  0.93610  0.84515  0.95205  1.0000
  F   F33       1.0  0.17271  0.38180  0.18785  1.0000
  F   F34       1.0  0.17058  0.36647  0.69527  1.0000
  F   F35       1.0  0.17373  0.88164  0.19167  1.0000
  F   F36       1.0  0.17609  0.89134  0.68059  1.0000
  F   F37       1.0  0.42040  0.37556  0.18953  1.0000
  F   F38       1.0  0.42430  0.37731  0.68819  1.0000
  F   F39       1.0  0.42116  0.86481  0.19858  1.0000
  F   F40       1.0  0.41839  0.85601  0.70152  1.0000
  F   F41       1.0  0.66341  0.36116  0.20695  1.0000
  F   F42       1.0  0.67274  0.38543  0.68871  1.0000
  F   F43       1.0  0.67504  0.89191  0.18345  1.0000
  F   F44       1.0  0.66568  0.86260  0.69786  1.0000
  F   F45       1.0  0.92881  0.39654  0.17779  1.0000
  F   F46       1.0  0.91342  0.37300  0.69466  1.0000
  F   F47       1.0  0.91779  0.86863  0.20398  1.0000
  F   F48       1.0  0.91531  0.86173  0.70992  1.0000
  F   F49       1.0  0.06413  0.15363  0.05467  1.0000
  F   F50       1.0  0.06313  0.17307  0.55797  1.0000
  F   F51       1.0  0.06420  0.65379  0.05456  1.0000
  F   F52       1.0  0.05654  0.65069  0.55953  1.0000
  F   F53       1.0  0.30842  0.16228  0.06236  1.0000
  F   F54       1.0  0.31726  0.15056  0.55585  1.0000
  F   F55       1.0  0.31298  0.65478  0.05506  1.0000
  F   F56       1.0  0.30241  0.65054  0.56504  1.0000
  F   F57       1.0  0.56549  0.15201  0.05362  1.0000
  F   F58       1.0  0.56157  0.14640  0.55782  1.0000
  F   F59       1.0  0.56621  0.65208  0.05594  1.0000
  F   F60       1.0  0.55530  0.67255  0.54986  1.0000
  F   F61       1.0  0.81278  0.16299  0.05846  1.0000
  F   F62       1.0  0.81759  0.16329  0.55001  1.0000
  F   F63       1.0  0.81985  0.66135  0.04494  1.0000
  F   F64       1.0  0.81809  0.65835  0.55232  1.0000
  F   F65       1.0  0.21420  0.20555  0.21497  1.0000
  F   F66       1.0  0.20769  0.20555  0.70891  1.0000
  F   F67       1.0  0.20204  0.71256  0.21374  1.0000
  F   F68       1.0  0.19485  0.70065  0.70416  1.0000
  F   F69       1.0  0.45614  0.19898  0.21447  1.0000
  F   F70       1.0  0.45614  0.20362  0.70951  1.0000
  F   F71       1.0  0.45642  0.69827  0.21930  1.0000
  F   F72       1.0  0.45998  0.68854  0.70960  1.0000
  F   F73       1.0  0.70345  0.20393  0.21675  1.0000
  F   F74       1.0  0.70023  0.20478  0.71894  1.0000
  F   F75       1.0  0.70508  0.70174  0.20541  1.0000
  F   F76       1.0  0.70626  0.69174  0.72476  1.0000
  F   F77       1.0  0.93928  0.21388  0.21346  1.0000
  F   F78       1.0  0.95233  0.19146  0.71866  1.0000
  F   F79       1.0  0.95151  0.70329  0.20290  1.0000
  F   F80       1.0  0.95746  0.68884  0.70965  1.0000
  F   F81       1.0  0.15254  0.09744  0.05011  1.0000
  F   F82       1.0  0.14915  0.10236  0.54249  1.0000
  F   F83       1.0  0.15163  0.58868  0.03697  1.0000
  F   F84       1.0  0.14917  0.58734  0.54010  1.0000
  F   F85       1.0  0.39562  0.09810  0.05106  1.0000
  F   F86       1.0  0.40071  0.08921  0.54507  1.0000
  F   F87       1.0  0.40081  0.60920  0.03533  1.0000
  F   F88       1.0  0.39902  0.59637  0.53330  1.0000
  F   F89       1.0  0.64718  0.08188  0.05180  1.0000
  F   F90       1.0  0.64929  0.09175  0.53416  1.0000
  F   F91       1.0  0.65887  0.58970  0.03603  1.0000
  F   F92       1.0  0.64577  0.58437  0.55633  1.0000
  F   F93       1.0  0.89240  0.08304  0.02950  1.0000
  F   F94       1.0  0.90168  0.09388  0.54113  1.0000
  F   F95       1.0  0.89929  0.59712  0.03784  1.0000
  F   F96       1.0  0.89970  0.60043  0.54873  1.0000
  F   F97       1.0  0.15708  0.19594  0.13078  1.0000
  F   F98       1.0  0.15645  0.20716  0.62909  1.0000
  F   F99       1.0  0.14838  0.69495  0.12342  1.0000
  F   F100      1.0  0.14749  0.70123  0.61035  1.0000
  F   F101      1.0  0.40221  0.19539  0.11909  1.0000
  F   F102      1.0  0.40396  0.18601  0.64253  1.0000
  F   F103      1.0  0.40188  0.69769  0.13999  1.0000
  F   F104      1.0  0.40191  0.68832  0.62198  1.0000
  F   F105      1.0  0.65328  0.19202  0.12288  1.0000
  F   F106      1.0  0.65621  0.19024  0.62433  1.0000
  F   F107      1.0  0.65234  0.68753  0.12616  1.0000
  F   F108      1.0  0.65497  0.68745  0.63633  1.0000
  F   F109      1.0  0.89956  0.18879  0.09552  1.0000
  F   F110      1.0  0.89993  0.20405  0.63593  1.0000
  F   F111      1.0  0.89677  0.69275  0.12099  1.0000
  F   F112      1.0  0.90195  0.69955  0.64121  1.0000
  F   F113      1.0  0.09545  0.30964  0.35812  1.0000
  F   F114      1.0  0.09759  0.30206  0.87480  1.0000
  F   F115      1.0  0.10235  0.80037  0.39296  1.0000
  F   F116      1.0  0.10892  0.79242  0.86071  1.0000
  F   F117      1.0  0.34738  0.29553  0.37687  1.0000
  F   F118      1.0  0.35309  0.30199  0.85184  1.0000
  F   F119      1.0  0.34554  0.81437  0.37930  1.0000
  F   F120      1.0  0.34667  0.79449  0.89296  1.0000
  F   F121      1.0  0.60031  0.29716  0.38940  1.0000
  F   F122      1.0  0.59537  0.28922  0.86990  1.0000
  F   F123      1.0  0.60528  0.79347  0.35888  1.0000
  F   F124      1.0  0.59755  0.80415  0.87891  1.0000
  F   F125      1.0  0.85063  0.29832  0.36548  1.0000
  F   F126      1.0  0.84452  0.30474  0.88888  1.0000
  F   F127      1.0  0.84676  0.79910  0.38521  1.0000
  F   F128      1.0  0.84578  0.81421  0.87128  1.0000
  F   F129      1.0  0.07648  0.25287  0.12535  1.0000
  F   F130      1.0  0.07232  0.27003  0.63305  1.0000
  F   F131      1.0  0.07214  0.75900  0.12225  1.0000
  F   F132      1.0  0.06656  0.76534  0.61617  1.0000
  F   F133      1.0  0.31335  0.24587  0.16174  1.0000
  F   F134      1.0  0.32173  0.24510  0.63168  1.0000
  F   F135      1.0  0.31339  0.74919  0.14128  1.0000
  F   F136      1.0  0.31928  0.75770  0.62845  1.0000
  F   F137      1.0  0.56582  0.25370  0.13867  1.0000
  F   F138      1.0  0.57303  0.24073  0.62811  1.0000
  F   F139      1.0  0.56403  0.74426  0.15009  1.0000
  F   F140      1.0  0.56036  0.74810  0.65471  1.0000
  F   F141      1.0  0.80904  0.24815  0.15200  1.0000
  F   F142      1.0  0.81458  0.24973  0.64153  1.0000
  F   F143      1.0  0.80763  0.73815  0.17184  1.0000
  F   F144      1.0  0.81310  0.75006  0.65090  1.0000
  F   F145      1.0  0.12718  0.37384  0.11366  1.0000
  F   F146      1.0  0.12604  0.38757  0.60004  1.0000
  F   F147      1.0  0.12479  0.87219  0.10555  1.0000
  F   F148      1.0  0.11942  0.84355  0.64322  1.0000
  F   F149      1.0  0.37597  0.37857  0.09592  1.0000
  F   F150      1.0  0.37095  0.36517  0.62589  1.0000
  F   F151      1.0  0.37208  0.85894  0.11996  1.0000
  F   F152      1.0  0.37439  0.86382  0.61265  1.0000
  F   F153      1.0  0.62862  0.36782  0.09830  1.0000
  F   F154      1.0  0.62203  0.34536  0.63920  1.0000
  F   F155      1.0  0.62412  0.84512  0.12643  1.0000
  F   F156      1.0  0.62400  0.85880  0.60410  1.0000
  F   F157      1.0  0.87531  0.36386  0.11868  1.0000
  F   F158      1.0  0.87995  0.39246  0.57550  1.0000
  F   F159      1.0  0.87427  0.86980  0.10983  1.0000
  F   F160      1.0  0.87523  0.87626  0.59578  1.0000
  F   F161      1.0  0.18238  0.26042  0.35899  1.0000
  F   F162      1.0  0.19195  0.25855  0.84866  1.0000
  F   F163      1.0  0.19124  0.76125  0.34688  1.0000
  F   F164      1.0  0.19008  0.74317  0.85163  1.0000
  F   F165      1.0  0.43135  0.24008  0.36171  1.0000
  F   F166      1.0  0.43693  0.24328  0.85607  1.0000
  F   F167      1.0  0.43687  0.74348  0.35967  1.0000
  F   F168      1.0  0.43310  0.75118  0.84959  1.0000
  F   F169      1.0  0.69145  0.24846  0.35268  1.0000
  F   F170      1.0  0.67517  0.23944  0.86306  1.0000
  F   F171      1.0  0.68788  0.73817  0.35507  1.0000
  F   F172      1.0  0.68069  0.74969  0.86038  1.0000
  F   F173      1.0  0.93236  0.24618  0.36143  1.0000
  F   F174      1.0  0.93573  0.25515  0.84798  1.0000
  F   F175      1.0  0.93617  0.74618  0.34902  1.0000
  F   F176      1.0  0.93198  0.75566  0.85931  1.0000
  F   F177      1.0  0.12835  0.14219  0.37608  1.0000
  F   F178      1.0  0.12691  0.14648  0.88108  1.0000
  F   F179      1.0  0.12282  0.64851  0.38885  1.0000
  F   F180      1.0  0.12505  0.61528  0.90394  1.0000
  F   F181      1.0  0.37491  0.11732  0.40807  1.0000
  F   F182      1.0  0.37246  0.12322  0.90306  1.0000
  F   F183      1.0  0.36818  0.63106  0.39483  1.0000
  F   F184      1.0  0.37927  0.63104  0.88336  1.0000
  F   F185      1.0  0.62912  0.14128  0.37953  1.0000
  F   F186      1.0  0.62571  0.12363  0.90061  1.0000
  F   F187      1.0  0.62242  0.62151  0.40631  1.0000
  F   F188      1.0  0.62493  0.61626  0.91572  1.0000
  F   F189      1.0  0.87308  0.10262  0.41391  1.0000
  F   F190      1.0  0.87499  0.14131  0.88465  1.0000
  F   F191      1.0  0.87553  0.62454  0.39920  1.0000
  F   F192      1.0  0.87782  0.65050  0.88033  1.0000
  F   F193      1.0  0.01041  0.36116  0.08060  1.0000
  F   F194      1.0  0.00687  0.34683  0.59004  1.0000
  F   F195      1.0  0.00066  0.84052  0.11397  1.0000
  F   F196      1.0  0.00135  0.86764  0.59584  1.0000
  F   F197      1.0  0.25788  0.35794  0.08507  1.0000
  F   F198      1.0  0.25931  0.34875  0.58171  1.0000
  F   F199      1.0  0.25872  0.87056  0.05923  1.0000
  F   F200      1.0  0.25548  0.86712  0.58130  1.0000
  F   F201      1.0  0.50746  0.35811  0.07216  1.0000
  F   F202      1.0  0.51249  0.35950  0.55298  1.0000
  F   F203      1.0  0.50742  0.86703  0.06458  1.0000
  F   F204      1.0  0.50551  0.86195  0.56963  1.0000
  F   F205      1.0  0.75407  0.36461  0.08186  1.0000
  F   F206      1.0  0.75877  0.37609  0.56331  1.0000
  F   F207      1.0  0.75630  0.86591  0.07864  1.0000
  F   F208      1.0  0.75784  0.86108  0.56980  1.0000
  F   F209      1.0  0.07281  0.48304  0.17680  1.0000
  F   F210      1.0  0.06927  0.49590  0.65462  1.0000
  F   F211      1.0  0.07005  0.98721  0.16400  1.0000
  F   F212      1.0  0.06883  0.98596  0.68363  1.0000
  F   F213      1.0  0.31423  0.48702  0.19060  1.0000
  F   F214      1.0  0.31837  0.47580  0.68903  1.0000
  F   F215      1.0  0.32223  0.98697  0.17298  1.0000
  F   F216      1.0  0.32452  0.97785  0.67793  1.0000
  F   F217      1.0  0.57354  0.48401  0.16817  1.0000
  F   F218      1.0  0.56832  0.50060  0.64974  1.0000
  F   F219      1.0  0.57070  0.96992  0.17507  1.0000
  F   F220      1.0  0.57271  0.98350  0.66109  1.0000
  F   F221      1.0  0.82879  0.47499  0.17823  1.0000
  F   F222      1.0  0.82927  0.48963  0.66165  1.0000
  F   F223      1.0  0.81737  0.98106  0.18464  1.0000
  F   F224      1.0  0.82104  0.98381  0.66842  1.0000
  F   F225      1.0  0.24319  0.13626  0.41976  1.0000
  F   F226      1.0  0.24040  0.14558  0.92976  1.0000
  F   F227      1.0  0.23647  0.63385  0.44107  1.0000
  F   F228      1.0  0.24510  0.62434  0.93699  1.0000
  F   F229      1.0  0.49875  0.13276  0.40584  1.0000
  F   F230      1.0  0.49441  0.13714  0.91875  1.0000
  F   F231      1.0  0.48697  0.63295  0.43282  1.0000
  F   F232      1.0  0.49333  0.64773  0.91688  1.0000
  F   F233      1.0  0.74838  0.13129  0.41931  1.0000
  F   F234      1.0  0.74338  0.15608  0.91305  1.0000
  F   F235      1.0  0.73925  0.62142  0.43005  1.0000
  F   F236      1.0  0.74807  0.65544  0.90284  1.0000
  F   F237      1.0  0.98616  0.12906  0.43945  1.0000
  F   F238      1.0  0.99199  0.13675  0.93021  1.0000
  F   F239      1.0  0.98955  0.64184  0.42993  1.0000
  F   F240      1.0  0.99330  0.65180  0.91748  1.0000
  F   F241      1.0  0.18085  0.02359  0.31340  1.0000
  F   F242      1.0  0.17959  0.02028  0.82205  1.0000
  F   F243      1.0  0.17541  0.51821  0.34294  1.0000
  F   F244      1.0  0.19080  0.51081  0.81730  1.0000
  F   F245      1.0  0.43040  0.02092  0.31173  1.0000
  F   F246      1.0  0.42789  0.02103  0.80037  1.0000
  F   F247      1.0  0.42885  0.51719  0.32659  1.0000
  F   F248      1.0  0.43307  0.50720  0.83002  1.0000
  F   F249      1.0  0.67582  0.00992  0.32964  1.0000
  F   F250      1.0  0.67712  0.01010  0.83794  1.0000
  F   F251      1.0  0.68022  0.51576  0.32232  1.0000
  F   F252      1.0  0.68707  0.50347  0.82456  1.0000
  F   F253      1.0  0.94077  0.00401  0.32753  1.0000
  F   F254      1.0  0.92505  0.00968  0.85128  1.0000
  F   F255      1.0  0.93177  0.52105  0.31312  1.0000
  F   F256      1.0  0.92318  0.51117  0.85242  1.0000
  F   F257      1.0  0.99785  0.24791  0.01239  1.0000
  F   F258      1.0  0.00163  0.24353  0.50681  1.0000
  F   F259      1.0  0.00934  0.77193  0.98549  1.0000
  F   F260      1.0  0.00079  0.77878  0.49722  1.0000
  F   F261      1.0  0.25379  0.27170  0.98614  1.0000
  F   F262      1.0  0.25151  0.24844  0.50214  1.0000
  F   F263      1.0  0.25187  0.76055  0.98200  1.0000
  F   F264      1.0  0.24233  0.75340  0.49754  1.0000
  F   F265      1.0  0.49725  0.22918  0.01292  1.0000
  F   F266      1.0  0.49481  0.22681  0.50149  1.0000
  F   F267      1.0  0.49465  0.73114  0.02325  1.0000
  F   F268      1.0  0.49951  0.75500  0.49147  1.0000
  F   F269      1.0  0.75392  0.26890  0.99134  1.0000
  F   F270      1.0  0.75099  0.23760  0.50184  1.0000
  F   F271      1.0  0.74912  0.75007  0.99238  1.0000
  F   F272      1.0  0.74568  0.72646  0.52245  1.0000
  F   F273      1.0  0.11013  0.98479  0.27939  1.0000
  F   F274      1.0  0.12299  0.00877  0.74592  1.0000
  F   F275      1.0  0.12550  0.51009  0.24934  1.0000
  F   F276      1.0  0.11416  0.49547  0.75677  1.0000
  F   F277      1.0  0.36996  0.00547  0.25889  1.0000
  F   F278      1.0  0.36784  0.98592  0.76718  1.0000
  F   F279      1.0  0.37576  0.49679  0.25486  1.0000
  F   F280      1.0  0.37607  0.50419  0.74659  1.0000
  F   F281      1.0  0.61949  0.99476  0.25595  1.0000
  F   F282      1.0  0.62745  0.99850  0.74655  1.0000
  F   F283      1.0  0.62869  0.48891  0.25157  1.0000
  F   F284      1.0  0.61788  0.48777  0.75781  1.0000
  F   F285      1.0  0.87836  0.00130  0.24699  1.0000
  F   F286      1.0  0.87708  0.99667  0.74608  1.0000
  F   F287      1.0  0.86457  0.49286  0.27515  1.0000
  F   F288      1.0  0.87785  0.49967  0.75525  1.0000
  F   F289      1.0  0.04551  0.02580  0.01882  1.0000
  F   F290      1.0  0.03882  0.04972  0.53867  1.0000
  F   F291      1.0  0.03801  0.53735  0.02700  1.0000
  F   F292      1.0  0.05083  0.53342  0.49171  1.0000
  F   F293      1.0  0.29456  0.02997  0.01727  1.0000
  F   F294      1.0  0.28991  0.03506  0.53217  1.0000
  F   F295      1.0  0.29906  0.52506  0.01912  1.0000
  F   F296      1.0  0.29457  0.51197  0.52560  1.0000
  F   F297      1.0  0.54147  0.03551  0.02217  1.0000
  F   F298      1.0  0.53984  0.02092  0.52381  1.0000
  F   F299      1.0  0.53936  0.52067  0.03780  1.0000
  F   F300      1.0  0.53612  0.52838  0.52343  1.0000
  F   F301      1.0  0.79279  0.03592  0.03106  1.0000
  F   F302      1.0  0.78601  0.03929  0.52491  1.0000
  F   F303      1.0  0.79663  0.53598  0.02180  1.0000
  F   F304      1.0  0.79901  0.52155  0.51423  1.0000
  F   F305      1.0  0.23300  0.43684  0.21736  1.0000
  F   F306      1.0  0.23491  0.42176  0.71458  1.0000
  F   F307      1.0  0.23806  0.92034  0.21445  1.0000
  F   F308      1.0  0.23420  0.91009  0.72769  1.0000
  F   F309      1.0  0.48740  0.40275  0.23347  1.0000
  F   F310      1.0  0.48364  0.40569  0.71618  1.0000
  F   F311      1.0  0.48374  0.91297  0.23108  1.0000
  F   F312      1.0  0.48468  0.90640  0.72763  1.0000
  F   F313      1.0  0.72691  0.42048  0.20658  1.0000
  F   F314      1.0  0.73895  0.41003  0.72983  1.0000
  F   F315      1.0  0.73770  0.90966  0.22410  1.0000
  F   F316      1.0  0.73235  0.90795  0.72348  1.0000
  F   F317      1.0  0.99350  0.41134  0.22552  1.0000
  F   F318      1.0  0.98586  0.42693  0.70889  1.0000
  F   F319      1.0  0.98536  0.91118  0.23171  1.0000
  F   F320      1.0  0.97994  0.94040  0.71851  1.0000
  F   F321      1.0  0.21712  0.47500  0.46704  1.0000
  F   F322      1.0  0.21854  0.46720  0.96752  1.0000
  F   F323      1.0  0.20079  0.97195  0.47304  1.0000
  F   F324      1.0  0.19992  0.97718  0.96967  1.0000
  F   F325      1.0  0.45129  0.46827  0.48017  1.0000
  F   F326      1.0  0.45562  0.47084  0.97035  1.0000
  F   F327      1.0  0.45838  0.96577  0.46996  1.0000
  F   F328      1.0  0.44202  0.97160  0.98261  1.0000
  F   F329      1.0  0.69848  0.46239  0.47911  1.0000
  F   F330      1.0  0.71475  0.46295  0.97823  1.0000
  F   F331      1.0  0.70111  0.96270  0.48218  1.0000
  F   F332      1.0  0.70579  0.96900  0.97988  1.0000
  F   F333      1.0  0.96031  0.47959  0.46841  1.0000
  F   F334      1.0  0.96107  0.47570  0.97110  1.0000
  F   F335      1.0  0.95398  0.96927  0.48086  1.0000
  F   F336      1.0  0.95921  0.96541  0.97909  1.0000
  F   F337      1.0  0.01548  0.11386  0.25811  1.0000
  F   F338      1.0  0.01653  0.10143  0.76956  1.0000
  F   F339      1.0  0.01549  0.59697  0.27101  1.0000
  F   F340      1.0  0.01651  0.59877  0.77479  1.0000
  F   F341      1.0  0.26621  0.07464  0.28955  1.0000
  F   F342      1.0  0.26602  0.08042  0.78028  1.0000
  F   F343      1.0  0.26481  0.59135  0.27417  1.0000
  F   F344      1.0  0.26799  0.59640  0.77604  1.0000
  F   F345      1.0  0.51868  0.07509  0.27213  1.0000
  F   F346      1.0  0.51464  0.07451  0.77931  1.0000
  F   F347      1.0  0.51431  0.58972  0.27217  1.0000
  F   F348      1.0  0.51978  0.57524  0.77949  1.0000
  F   F349      1.0  0.76301  0.08749  0.27472  1.0000
  F   F350      1.0  0.75934  0.09351  0.76925  1.0000
  F   F351      1.0  0.76570  0.57563  0.26359  1.0000
  F   F352      1.0  0.76938  0.56340  0.78037  1.0000
  F   F353      1.0  0.09801  0.39603  0.45602  1.0000
  F   F354      1.0  0.10234  0.40865  0.95509  1.0000
  F   F355      1.0  0.09794  0.93828  0.48153  1.0000
  F   F356      1.0  0.10159  0.90502  0.95336  1.0000
  F   F357      1.0  0.35818  0.39077  0.46907  1.0000
  F   F358      1.0  0.35170  0.38620  0.96121  1.0000
  F   F359      1.0  0.35057  0.92228  0.46329  1.0000
  F   F360      1.0  0.36005  0.90406  0.96785  1.0000
  F   F361      1.0  0.60595  0.41038  0.46312  1.0000
  F   F362      1.0  0.59681  0.40471  0.96157  1.0000
  F   F363      1.0  0.59949  0.90247  0.46101  1.0000
  F   F364      1.0  0.60101  0.90242  0.97109  1.0000
  F   F365      1.0  0.85163  0.38995  0.45631  1.0000
  F   F366      1.0  0.85488  0.40191  0.97655  1.0000
  F   F367      1.0  0.84907  0.91351  0.45395  1.0000
  F   F368      1.0  0.84741  0.89928  0.97164  1.0000
  F   F369      1.0  0.03939  0.28495  0.29267  1.0000
  F   F370      1.0  0.03911  0.29830  0.79245  1.0000
  F   F371      1.0  0.04827  0.80715  0.28600  1.0000
  F   F372      1.0  0.03897  0.79283  0.79101  1.0000
  F   F373      1.0  0.29924  0.30916  0.29241  1.0000
  F   F374      1.0  0.29119  0.29254  0.79651  1.0000
  F   F375      1.0  0.29412  0.79396  0.29203  1.0000
  F   F376      1.0  0.29374  0.79892  0.78281  1.0000
  F   F377      1.0  0.55524  0.30417  0.29309  1.0000
  F   F378      1.0  0.54090  0.29193  0.77909  1.0000
  F   F379      1.0  0.54679  0.79327  0.28704  1.0000
  F   F380      1.0  0.55488  0.79673  0.79580  1.0000
  F   F381      1.0  0.79948  0.29484  0.29219  1.0000
  F   F382      1.0  0.80277  0.29079  0.77942  1.0000
  F   F383      1.0  0.78884  0.80205  0.31541  1.0000
  F   F384      1.0  0.79963  0.81694  0.77802  1.0000
