data_image0
_chemical_formula_structural       Hf96F384
_chemical_formula_sum              "Hf96 F384"
_cell_length_a       31.0089
_cell_length_b       15.5084
_cell_length_c       15.5009
_cell_angle_alpha    63.342
_cell_angle_beta     63.342
_cell_angle_gamma    80.1625

_space_group_name_H-M_alt    "P 1"
_space_group_IT_number       1

loop_
  _space_group_symop_operation_xyz
  'x, y, z'

loop_
  _atom_site_type_symbol
  _atom_site_label
  _atom_site_symmetry_multiplicity
  _atom_site_fract_x
  _atom_site_fract_y
  _atom_site_fract_z
  _atom_site_occupancy
  Hf  Hf1       1.0  0.19378  0.11429  0.37161  1.0000
  Hf  Hf2       1.0  0.19632  0.11965  0.86726  1.0000
  Hf  Hf3       1.0  0.19789  0.61672  0.36971  1.0000
  Hf  Hf4       1.0  0.19687  0.61018  0.87066  1.0000
  Hf  Hf5       1.0  0.44289  0.10296  0.37369  1.0000
  Hf  Hf6       1.0  0.44415  0.10291  0.88421  1.0000
  Hf  Hf7       1.0  0.44386  0.60206  0.38233  1.0000
  Hf  Hf8       1.0  0.44405  0.59776  0.88212  1.0000
  Hf  Hf9       1.0  0.69628  0.09984  0.37971  1.0000
  Hf  Hf10      1.0  0.70032  0.10246  0.87421  1.0000
  Hf  Hf11      1.0  0.69530  0.60089  0.38145  1.0000
  Hf  Hf12      1.0  0.69447  0.59941  0.88651  1.0000
  Hf  Hf13      1.0  0.94759  0.10573  0.37047  1.0000
  Hf  Hf14      1.0  0.94432  0.10057  0.88502  1.0000
  Hf  Hf15      1.0  0.94823  0.60545  0.37411  1.0000
  Hf  Hf16      1.0  0.94380  0.60536  0.87608  1.0000
  Hf  Hf17      1.0  0.05221  0.40048  0.11962  1.0000
  Hf  Hf18      1.0  0.05743  0.38981  0.62111  1.0000
  Hf  Hf19      1.0  0.05631  0.90887  0.11041  1.0000
  Hf  Hf20      1.0  0.05145  0.89486  0.62662  1.0000
  Hf  Hf21      1.0  0.30200  0.39027  0.12813  1.0000
  Hf  Hf22      1.0  0.30516  0.39237  0.62477  1.0000
  Hf  Hf23      1.0  0.30146  0.88916  0.13317  1.0000
  Hf  Hf24      1.0  0.30370  0.88435  0.63196  1.0000
  Hf  Hf25      1.0  0.55183  0.38720  0.12475  1.0000
  Hf  Hf26      1.0  0.55484  0.39150  0.62224  1.0000
  Hf  Hf27      1.0  0.55412  0.89300  0.12642  1.0000
  Hf  Hf28      1.0  0.55455  0.88978  0.62755  1.0000
  Hf  Hf29      1.0  0.80292  0.38885  0.12717  1.0000
  Hf  Hf30      1.0  0.80420  0.38944  0.62462  1.0000
  Hf  Hf31      1.0  0.80414  0.89442  0.12148  1.0000
  Hf  Hf32      1.0  0.80616  0.89266  0.62381  1.0000
  Hf  Hf33      1.0  0.05545  0.18705  0.41463  1.0000
  Hf  Hf34      1.0  0.05451  0.19266  0.91551  1.0000
  Hf  Hf35      1.0  0.06011  0.68516  0.40705  1.0000
  Hf  Hf36      1.0  0.05487  0.68217  0.92091  1.0000
  Hf  Hf37      1.0  0.30487  0.18099  0.41807  1.0000
  Hf  Hf38      1.0  0.30710  0.18916  0.91540  1.0000
  Hf  Hf39      1.0  0.30451  0.68817  0.42131  1.0000
  Hf  Hf40      1.0  0.30539  0.68262  0.91616  1.0000
  Hf  Hf41      1.0  0.55297  0.18093  0.41518  1.0000
  Hf  Hf42      1.0  0.55594  0.17947  0.91667  1.0000
  Hf  Hf43      1.0  0.55636  0.68474  0.41992  1.0000
  Hf  Hf44      1.0  0.55363  0.67977  0.91890  1.0000
  Hf  Hf45      1.0  0.80590  0.18628  0.41378  1.0000
  Hf  Hf46      1.0  0.80920  0.18571  0.90751  1.0000
  Hf  Hf47      1.0  0.80653  0.67956  0.41285  1.0000
  Hf  Hf48      1.0  0.80487  0.68251  0.91631  1.0000
  Hf  Hf49      1.0  0.15946  0.39087  0.32553  1.0000
  Hf  Hf50      1.0  0.16020  0.39634  0.83020  1.0000
  Hf  Hf51      1.0  0.15973  0.89201  0.33511  1.0000
  Hf  Hf52      1.0  0.16186  0.90125  0.82456  1.0000
  Hf  Hf53      1.0  0.40783  0.38657  0.33352  1.0000
  Hf  Hf54      1.0  0.40983  0.38651  0.83195  1.0000
  Hf  Hf55      1.0  0.41102  0.88668  0.33380  1.0000
  Hf  Hf56      1.0  0.40888  0.88646  0.83785  1.0000
  Hf  Hf57      1.0  0.65766  0.37851  0.33985  1.0000
  Hf  Hf58      1.0  0.65988  0.38295  0.82873  1.0000
  Hf  Hf59      1.0  0.65832  0.88914  0.33156  1.0000
  Hf  Hf60      1.0  0.66177  0.87921  0.83143  1.0000
  Hf  Hf61      1.0  0.90880  0.38440  0.34513  1.0000
  Hf  Hf62      1.0  0.90915  0.38259  0.83373  1.0000
  Hf  Hf63      1.0  0.90769  0.88624  0.33687  1.0000
  Hf  Hf64      1.0  0.90300  0.87994  0.84777  1.0000
  Hf  Hf65      1.0  0.19562  0.32744  0.07764  1.0000
  Hf  Hf66      1.0  0.19403  0.31837  0.58164  1.0000
  Hf  Hf67      1.0  0.19609  0.82324  0.08002  1.0000
  Hf  Hf68      1.0  0.18974  0.81675  0.59029  1.0000
  Hf  Hf69      1.0  0.44118  0.31329  0.08880  1.0000
  Hf  Hf70      1.0  0.44727  0.31710  0.58293  1.0000
  Hf  Hf71      1.0  0.44706  0.81895  0.08103  1.0000
  Hf  Hf72      1.0  0.44705  0.82358  0.58437  1.0000
  Hf  Hf73      1.0  0.69217  0.30773  0.08973  1.0000
  Hf  Hf74      1.0  0.69620  0.30718  0.58413  1.0000
  Hf  Hf75      1.0  0.69419  0.81977  0.08314  1.0000
  Hf  Hf76      1.0  0.69360  0.81568  0.58199  1.0000
  Hf  Hf77      1.0  0.94450  0.32556  0.07405  1.0000
  Hf  Hf78      1.0  0.94468  0.32131  0.58682  1.0000
  Hf  Hf79      1.0  0.94072  0.81462  0.09180  1.0000
  Hf  Hf80      1.0  0.94445  0.81664  0.57845  1.0000
  Hf  Hf81      1.0  0.09215  0.12517  0.15650  1.0000
  Hf  Hf82      1.0  0.08863  0.11369  0.66587  1.0000
  Hf  Hf83      1.0  0.09320  0.61655  0.16231  1.0000
  Hf  Hf84      1.0  0.08942  0.61596  0.66539  1.0000
  Hf  Hf85      1.0  0.33731  0.11165  0.17418  1.0000
  Hf  Hf86      1.0  0.34313  0.11313  0.66543  1.0000
  Hf  Hf87      1.0  0.34112  0.61077  0.16633  1.0000
  Hf  Hf88      1.0  0.34009  0.60731  0.67669  1.0000
  Hf  Hf89      1.0  0.58904  0.11508  0.16535  1.0000
  Hf  Hf90      1.0  0.59243  0.11567  0.66062  1.0000
  Hf  Hf91      1.0  0.58905  0.60688  0.17301  1.0000
  Hf  Hf92      1.0  0.59023  0.60667  0.67246  1.0000
  Hf  Hf93      1.0  0.84131  0.10551  0.16767  1.0000
  Hf  Hf94      1.0  0.84562  0.11039  0.66436  1.0000
  Hf  Hf95      1.0  0.83851  0.61361  0.16806  1.0000
  Hf  Hf96      1.0  0.83888  0.61297  0.66288  1.0000
  F   F1        1.0  0.08444  0.13702  0.28922  1.0000
  F   F2        1.0  0.07203  0.12744  0.81099  1.0000
  F   F3        1.0  0.07800  0.63131  0.29651  1.0000
  F   F4        1.0  0.07918  0.61511  0.81743  1.0000
  F   F5        1.0  0.32044  0.11676  0.31691  1.0000
  F   F6        1.0  0.32984  0.12596  0.81381  1.0000
  F   F7        1.0  0.33231  0.64430  0.29997  1.0000
  F   F8        1.0  0.32599  0.63173  0.80528  1.0000
  F   F9        1.0  0.57618  0.12915  0.30180  1.0000
  F   F10       1.0  0.58331  0.12773  0.79662  1.0000
  F   F11       1.0  0.57988  0.62877  0.30843  1.0000
  F   F12       1.0  0.57516  0.62318  0.80659  1.0000
  F   F13       1.0  0.82934  0.12945  0.29988  1.0000
  F   F14       1.0  0.83266  0.13566  0.79379  1.0000
  F   F15       1.0  0.82266  0.61148  0.32086  1.0000
  F   F16       1.0  0.83046  0.62732  0.80609  1.0000
  F   F17       1.0  0.18591  0.34218  0.44188  1.0000
  F   F18       1.0  0.19926  0.36291  0.92333  1.0000
  F   F19       1.0  0.17768  0.82845  0.46459  1.0000
  F   F20       1.0  0.18639  0.84594  0.93726  1.0000
  F   F21       1.0  0.43155  0.34345  0.45069  1.0000
  F   F22       1.0  0.43098  0.32575  0.95016  1.0000
  F   F23       1.0  0.43424  0.84098  0.45045  1.0000
  F   F24       1.0  0.44451  0.84601  0.93553  1.0000
  F   F25       1.0  0.68481  0.33088  0.45679  1.0000
  F   F26       1.0  0.68453  0.33865  0.94627  1.0000
  F   F27       1.0  0.67317  0.82609  0.45482  1.0000
  F   F28       1.0  0.68957  0.83576  0.94794  1.0000
  F   F29       1.0  0.94326  0.33794  0.45220  1.0000
  F   F30       1.0  0.94083  0.34369  0.93852  1.0000
  F   F31       1.0  0.93828  0.83734  0.43882  1.0000
  F   F32       1.0  0.93015  0.83884  0.95375  1.0000
  F   F33       1.0  0.17269  0.38983  0.18507  1.0000
  F   F34       1.0  0.17970  0.37775  0.68927  1.0000
  F   F35       1.0  0.16859  0.87552  0.19388  1.0000
  F   F36       1.0  0.16757  0.87545  0.69856  1.0000
  F   F37       1.0  0.41964  0.37401  0.19462  1.0000
  F   F38       1.0  0.42982  0.39129  0.67518  1.0000
  F   F39       1.0  0.42713  0.88296  0.18866  1.0000
  F   F40       1.0  0.42388  0.88445  0.69044  1.0000
  F   F41       1.0  0.66392  0.36055  0.20528  1.0000
  F   F42       1.0  0.67164  0.36301  0.69568  1.0000
  F   F43       1.0  0.67209  0.88411  0.19187  1.0000
  F   F44       1.0  0.67644  0.87440  0.69281  1.0000
  F   F45       1.0  0.91931  0.36088  0.19746  1.0000
  F   F46       1.0  0.92252  0.38721  0.68540  1.0000
  F   F47       1.0  0.91688  0.86953  0.20117  1.0000
  F   F48       1.0  0.91680  0.85414  0.70740  1.0000
  F   F49       1.0  0.06530  0.17251  0.04242  1.0000
  F   F50       1.0  0.06899  0.16983  0.54378  1.0000
  F   F51       1.0  0.06064  0.66091  0.05294  1.0000
  F   F52       1.0  0.05862  0.65858  0.55822  1.0000
  F   F53       1.0  0.31803  0.17008  0.04370  1.0000
  F   F54       1.0  0.32058  0.15694  0.55116  1.0000
  F   F55       1.0  0.31132  0.65671  0.05152  1.0000
  F   F56       1.0  0.31413  0.65487  0.55881  1.0000
  F   F57       1.0  0.56166  0.15613  0.05385  1.0000
  F   F58       1.0  0.56876  0.15170  0.55110  1.0000
  F   F59       1.0  0.56179  0.64746  0.05982  1.0000
  F   F60       1.0  0.56293  0.65096  0.55432  1.0000
  F   F61       1.0  0.82151  0.16149  0.04436  1.0000
  F   F62       1.0  0.81864  0.15310  0.54330  1.0000
  F   F63       1.0  0.81164  0.65601  0.05585  1.0000
  F   F64       1.0  0.81174  0.65187  0.56018  1.0000
  F   F65       1.0  0.20237  0.21459  0.19215  1.0000
  F   F66       1.0  0.21000  0.21246  0.71210  1.0000
  F   F67       1.0  0.20763  0.70424  0.20069  1.0000
  F   F68       1.0  0.20718  0.70538  0.69898  1.0000
  F   F69       1.0  0.45416  0.20388  0.21286  1.0000
  F   F70       1.0  0.44686  0.20227  0.70147  1.0000
  F   F71       1.0  0.45736  0.69800  0.20388  1.0000
  F   F72       1.0  0.45703  0.70901  0.71720  1.0000
  F   F73       1.0  0.70466  0.19780  0.22301  1.0000
  F   F74       1.0  0.71208  0.20520  0.70890  1.0000
  F   F75       1.0  0.69757  0.71417  0.21083  1.0000
  F   F76       1.0  0.70170  0.71043  0.70549  1.0000
  F   F77       1.0  0.95576  0.19616  0.20365  1.0000
  F   F78       1.0  0.95471  0.21219  0.71315  1.0000
  F   F79       1.0  0.95271  0.70005  0.21045  1.0000
  F   F80       1.0  0.95856  0.70081  0.70807  1.0000
  F   F81       1.0  0.14643  0.08914  0.04720  1.0000
  F   F82       1.0  0.14934  0.11191  0.53599  1.0000
  F   F83       1.0  0.14943  0.60856  0.03294  1.0000
  F   F84       1.0  0.14604  0.60572  0.53297  1.0000
  F   F85       1.0  0.39903  0.10590  0.04661  1.0000
  F   F86       1.0  0.39885  0.09869  0.53009  1.0000
  F   F87       1.0  0.39751  0.58206  0.03827  1.0000
  F   F88       1.0  0.39764  0.58541  0.54285  1.0000
  F   F89       1.0  0.64740  0.08317  0.04121  1.0000
  F   F90       1.0  0.65121  0.07327  0.54070  1.0000
  F   F91       1.0  0.64606  0.56996  0.04370  1.0000
  F   F92       1.0  0.64584  0.58901  0.54688  1.0000
  F   F93       1.0  0.89966  0.06860  0.05463  1.0000
  F   F94       1.0  0.90163  0.08528  0.54021  1.0000
  F   F95       1.0  0.90204  0.59253  0.03937  1.0000
  F   F96       1.0  0.89606  0.59261  0.53939  1.0000
  F   F97       1.0  0.15236  0.20942  0.09789  1.0000
  F   F98       1.0  0.15188  0.20274  0.64065  1.0000
  F   F99       1.0  0.15268  0.70391  0.12456  1.0000
  F   F100      1.0  0.14811  0.68671  0.63919  1.0000
  F   F101      1.0  0.39264  0.20275  0.14289  1.0000
  F   F102      1.0  0.39858  0.19710  0.62847  1.0000
  F   F103      1.0  0.40284  0.69269  0.12401  1.0000
  F   F104      1.0  0.40471  0.69991  0.62511  1.0000
  F   F105      1.0  0.65256  0.18869  0.12988  1.0000
  F   F106      1.0  0.65741  0.18512  0.62506  1.0000
  F   F107      1.0  0.64890  0.68867  0.12935  1.0000
  F   F108      1.0  0.64819  0.68705  0.63036  1.0000
  F   F109      1.0  0.89776  0.20151  0.11445  1.0000
  F   F110      1.0  0.90321  0.19787  0.63500  1.0000
  F   F111      1.0  0.89793  0.69987  0.12920  1.0000
  F   F112      1.0  0.89784  0.68192  0.62752  1.0000
  F   F113      1.0  0.10323  0.30794  0.35574  1.0000
  F   F114      1.0  0.09543  0.32173  0.87418  1.0000
  F   F115      1.0  0.10667  0.80289  0.37888  1.0000
  F   F116      1.0  0.10270  0.81471  0.88026  1.0000
  F   F117      1.0  0.34516  0.30333  0.37095  1.0000
  F   F118      1.0  0.34886  0.31099  0.85154  1.0000
  F   F119      1.0  0.35011  0.80573  0.36342  1.0000
  F   F120      1.0  0.34768  0.81010  0.87887  1.0000
  F   F121      1.0  0.59298  0.30051  0.38480  1.0000
  F   F122      1.0  0.59747  0.29829  0.86592  1.0000
  F   F123      1.0  0.60141  0.80835  0.37916  1.0000
  F   F124      1.0  0.60094  0.80225  0.87617  1.0000
  F   F125      1.0  0.84808  0.31362  0.37252  1.0000
  F   F126      1.0  0.84764  0.30836  0.84697  1.0000
  F   F127      1.0  0.84867  0.78980  0.38885  1.0000
  F   F128      1.0  0.84505  0.80482  0.87634  1.0000
  F   F129      1.0  0.06543  0.26635  0.12115  1.0000
  F   F130      1.0  0.06142  0.24197  0.65077  1.0000
  F   F131      1.0  0.08005  0.77069  0.10823  1.0000
  F   F132      1.0  0.06076  0.75265  0.65474  1.0000
  F   F133      1.0  0.31144  0.25165  0.14436  1.0000
  F   F134      1.0  0.31279  0.24864  0.63695  1.0000
  F   F135      1.0  0.32255  0.74680  0.13849  1.0000
  F   F136      1.0  0.32026  0.75428  0.62939  1.0000
  F   F137      1.0  0.57434  0.24916  0.12846  1.0000
  F   F138      1.0  0.56737  0.25874  0.62175  1.0000
  F   F139      1.0  0.56625  0.74781  0.13730  1.0000
  F   F140      1.0  0.56017  0.74871  0.65101  1.0000
  F   F141      1.0  0.81186  0.24542  0.14770  1.0000
  F   F142      1.0  0.81627  0.24813  0.62807  1.0000
  F   F143      1.0  0.82373  0.75428  0.12749  1.0000
  F   F144      1.0  0.81561  0.75598  0.63405  1.0000
  F   F145      1.0  0.12631  0.36971  0.10068  1.0000
  F   F146      1.0  0.12425  0.37334  0.60935  1.0000
  F   F147      1.0  0.12592  0.89506  0.09650  1.0000
  F   F148      1.0  0.12233  0.86755  0.61742  1.0000
  F   F149      1.0  0.37287  0.37468  0.10088  1.0000
  F   F150      1.0  0.37514  0.37423  0.60774  1.0000
  F   F151      1.0  0.37347  0.85354  0.12504  1.0000
  F   F152      1.0  0.37751  0.87687  0.61086  1.0000
  F   F153      1.0  0.62303  0.36988  0.11163  1.0000
  F   F154      1.0  0.62807  0.36407  0.60975  1.0000
  F   F155      1.0  0.62386  0.87100  0.11117  1.0000
  F   F156      1.0  0.62240  0.85246  0.63343  1.0000
  F   F157      1.0  0.87321  0.37088  0.10397  1.0000
  F   F158      1.0  0.86947  0.35625  0.63187  1.0000
  F   F159      1.0  0.87669  0.87967  0.09494  1.0000
  F   F160      1.0  0.87770  0.85480  0.60073  1.0000
  F   F161      1.0  0.18849  0.26284  0.33920  1.0000
  F   F162      1.0  0.17731  0.25592  0.87144  1.0000
  F   F163      1.0  0.19013  0.75852  0.35016  1.0000
  F   F164      1.0  0.19527  0.75271  0.84228  1.0000
  F   F165      1.0  0.42707  0.24853  0.36255  1.0000
  F   F166      1.0  0.43422  0.24063  0.84877  1.0000
  F   F167      1.0  0.42855  0.74794  0.36710  1.0000
  F   F168      1.0  0.42752  0.74412  0.87243  1.0000
  F   F169      1.0  0.68550  0.24356  0.36935  1.0000
  F   F170      1.0  0.68032  0.24104  0.87190  1.0000
  F   F171      1.0  0.68332  0.74849  0.34717  1.0000
  F   F172      1.0  0.68556  0.73484  0.87025  1.0000
  F   F173      1.0  0.93434  0.24986  0.36247  1.0000
  F   F174      1.0  0.93083  0.24387  0.87106  1.0000
  F   F175      1.0  0.93706  0.74830  0.34899  1.0000
  F   F176      1.0  0.93415  0.74871  0.85664  1.0000
  F   F177      1.0  0.12567  0.14319  0.37848  1.0000
  F   F178      1.0  0.12908  0.13864  0.87991  1.0000
  F   F179      1.0  0.12891  0.63897  0.36954  1.0000
  F   F180      1.0  0.12638  0.62352  0.90365  1.0000
  F   F181      1.0  0.37633  0.13308  0.37463  1.0000
  F   F182      1.0  0.37804  0.11393  0.89613  1.0000
  F   F183      1.0  0.37456  0.61729  0.39918  1.0000
  F   F184      1.0  0.37496  0.61923  0.88645  1.0000
  F   F185      1.0  0.62598  0.12879  0.38677  1.0000
  F   F186      1.0  0.62475  0.10951  0.90730  1.0000
  F   F187      1.0  0.62507  0.62249  0.40863  1.0000
  F   F188      1.0  0.62652  0.63177  0.88601  1.0000
  F   F189      1.0  0.87621  0.13187  0.38841  1.0000
  F   F190      1.0  0.87913  0.14256  0.87894  1.0000
  F   F191      1.0  0.87707  0.62066  0.38851  1.0000
  F   F192      1.0  0.87559  0.63454  0.89358  1.0000
  F   F193      1.0  0.01079  0.36622  0.06269  1.0000
  F   F194      1.0  0.01182  0.36122  0.57614  1.0000
  F   F195      1.0  0.00851  0.86400  0.07325  1.0000
  F   F196      1.0  0.01066  0.86552  0.56770  1.0000
  F   F197      1.0  0.25986  0.37101  0.06818  1.0000
  F   F198      1.0  0.25753  0.37475  0.54344  1.0000
  F   F199      1.0  0.26094  0.86049  0.07328  1.0000
  F   F200      1.0  0.25690  0.87834  0.55322  1.0000
  F   F201      1.0  0.50623  0.36534  0.06823  1.0000
  F   F202      1.0  0.51034  0.35465  0.57364  1.0000
  F   F203      1.0  0.51093  0.86439  0.07500  1.0000
  F   F204      1.0  0.51023  0.87617  0.57067  1.0000
  F   F205      1.0  0.75903  0.35368  0.08051  1.0000
  F   F206      1.0  0.76248  0.37426  0.55702  1.0000
  F   F207      1.0  0.75816  0.86482  0.06904  1.0000
  F   F208      1.0  0.75834  0.86183  0.56357  1.0000
  F   F209      1.0  0.07646  0.48957  0.15815  1.0000
  F   F210      1.0  0.06992  0.48633  0.68195  1.0000
  F   F211      1.0  0.06719  0.99359  0.17773  1.0000
  F   F212      1.0  0.06878  0.99413  0.66639  1.0000
  F   F213      1.0  0.31342  0.48897  0.17767  1.0000
  F   F214      1.0  0.31906  0.47845  0.68770  1.0000
  F   F215      1.0  0.31849  0.98553  0.17300  1.0000
  F   F216      1.0  0.32016  0.97761  0.67933  1.0000
  F   F217      1.0  0.56402  0.48303  0.17531  1.0000
  F   F218      1.0  0.56550  0.47466  0.69023  1.0000
  F   F219      1.0  0.56008  0.98910  0.18532  1.0000
  F   F220      1.0  0.56847  0.98033  0.67841  1.0000
  F   F221      1.0  0.81851  0.48293  0.18920  1.0000
  F   F222      1.0  0.81854  0.48223  0.67838  1.0000
  F   F223      1.0  0.81108  0.97063  0.19613  1.0000
  F   F224      1.0  0.82245  0.97666  0.67259  1.0000
  F   F225      1.0  0.23941  0.14726  0.41706  1.0000
  F   F226      1.0  0.23699  0.14243  0.92215  1.0000
  F   F227      1.0  0.24506  0.64601  0.42786  1.0000
  F   F228      1.0  0.24142  0.64011  0.93598  1.0000
  F   F229      1.0  0.48843  0.15223  0.41197  1.0000
  F   F230      1.0  0.49388  0.12491  0.93430  1.0000
  F   F231      1.0  0.49272  0.65712  0.42491  1.0000
  F   F232      1.0  0.49206  0.63343  0.93111  1.0000
  F   F233      1.0  0.74361  0.12872  0.43506  1.0000
  F   F234      1.0  0.74426  0.14332  0.91697  1.0000
  F   F235      1.0  0.74299  0.63349  0.43080  1.0000
  F   F236      1.0  0.74208  0.62795  0.93413  1.0000
  F   F237      1.0  0.99604  0.14021  0.42594  1.0000
  F   F238      1.0  0.98934  0.13823  0.92954  1.0000
  F   F239      1.0  0.99405  0.64264  0.41914  1.0000
  F   F240      1.0  0.98896  0.64708  0.92553  1.0000
  F   F241      1.0  0.17864  0.01871  0.32779  1.0000
  F   F242      1.0  0.18439  0.02454  0.82120  1.0000
  F   F243      1.0  0.17819  0.51787  0.32927  1.0000
  F   F244      1.0  0.19390  0.52890  0.79557  1.0000
  F   F245      1.0  0.43102  0.01833  0.30514  1.0000
  F   F246      1.0  0.42981  0.02075  0.82018  1.0000
  F   F247      1.0  0.43590  0.51204  0.32103  1.0000
  F   F248      1.0  0.43447  0.51395  0.82125  1.0000
  F   F249      1.0  0.68224  0.01309  0.31843  1.0000
  F   F250      1.0  0.68621  0.00431  0.82859  1.0000
  F   F251      1.0  0.68446  0.51607  0.32122  1.0000
  F   F252      1.0  0.68235  0.50800  0.83756  1.0000
  F   F253      1.0  0.93464  0.01265  0.32407  1.0000
  F   F254      1.0  0.93166  0.01427  0.83232  1.0000
  F   F255      1.0  0.93217  0.50454  0.33484  1.0000
  F   F256      1.0  0.92858  0.51064  0.82697  1.0000
  F   F257      1.0  0.99650  0.24677  0.00447  1.0000
  F   F258      1.0  0.00316  0.25728  0.49866  1.0000
  F   F259      1.0  0.99749  0.76588  0.99186  1.0000
  F   F260      1.0  0.00000  0.75337  0.48715  1.0000
  F   F261      1.0  0.24887  0.24077  0.00757  1.0000
  F   F262      1.0  0.24888  0.23015  0.51231  1.0000
  F   F263      1.0  0.25231  0.76568  0.97992  1.0000
  F   F264      1.0  0.25026  0.76392  0.49060  1.0000
  F   F265      1.0  0.49750  0.24697  0.99588  1.0000
  F   F266      1.0  0.50654  0.24718  0.49448  1.0000
  F   F267      1.0  0.50147  0.74757  0.00623  1.0000
  F   F268      1.0  0.50921  0.77353  0.49139  1.0000
  F   F269      1.0  0.75406  0.24973  0.99587  1.0000
  F   F270      1.0  0.75147  0.25174  0.49527  1.0000
  F   F271      1.0  0.74797  0.74621  0.01498  1.0000
  F   F272      1.0  0.74985  0.75108  0.49028  1.0000
  F   F273      1.0  0.12193  0.00317  0.26169  1.0000
  F   F274      1.0  0.12567  0.00527  0.74788  1.0000
  F   F275      1.0  0.12934  0.51219  0.23198  1.0000
  F   F276      1.0  0.12789  0.50441  0.74102  1.0000
  F   F277      1.0  0.37375  0.00605  0.24140  1.0000
  F   F278      1.0  0.37402  0.99112  0.75228  1.0000
  F   F279      1.0  0.37100  0.49315  0.26121  1.0000
  F   F280      1.0  0.37348  0.49329  0.76129  1.0000
  F   F281      1.0  0.61937  0.00550  0.25532  1.0000
  F   F282      1.0  0.62825  0.99487  0.74616  1.0000
  F   F283      1.0  0.62876  0.49380  0.25375  1.0000
  F   F284      1.0  0.62706  0.50047  0.74169  1.0000
  F   F285      1.0  0.87006  0.99232  0.26665  1.0000
  F   F286      1.0  0.87950  0.99674  0.74430  1.0000
  F   F287      1.0  0.88469  0.50135  0.24697  1.0000
  F   F288      1.0  0.86885  0.49472  0.75316  1.0000
  F   F289      1.0  0.04432  0.04177  0.02582  1.0000
  F   F290      1.0  0.04412  0.04123  0.52203  1.0000
  F   F291      1.0  0.03318  0.52443  0.02812  1.0000
  F   F292      1.0  0.04967  0.53355  0.52317  1.0000
  F   F293      1.0  0.29225  0.03435  0.03634  1.0000
  F   F294      1.0  0.30347  0.04050  0.51453  1.0000
  F   F295      1.0  0.30214  0.53423  0.00647  1.0000
  F   F296      1.0  0.29284  0.53147  0.53336  1.0000
  F   F297      1.0  0.54158  0.03103  0.02821  1.0000
  F   F298      1.0  0.54052  0.04467  0.51747  1.0000
  F   F299      1.0  0.54431  0.51668  0.02039  1.0000
  F   F300      1.0  0.54050  0.52122  0.52563  1.0000
  F   F301      1.0  0.79080  0.03830  0.02455  1.0000
  F   F302      1.0  0.79136  0.02194  0.52985  1.0000
  F   F303      1.0  0.79493  0.53272  0.01952  1.0000
  F   F304      1.0  0.79266  0.52924  0.52098  1.0000
  F   F305      1.0  0.23579  0.42070  0.22895  1.0000
  F   F306      1.0  0.23573  0.42035  0.72333  1.0000
  F   F307      1.0  0.23381  0.91834  0.22296  1.0000
  F   F308      1.0  0.23621  0.91883  0.72301  1.0000
  F   F309      1.0  0.48256  0.40893  0.22591  1.0000
  F   F310      1.0  0.48764  0.40842  0.73314  1.0000
  F   F311      1.0  0.48544  0.89812  0.24909  1.0000
  F   F312      1.0  0.48769  0.90954  0.73939  1.0000
  F   F313      1.0  0.73200  0.41113  0.22853  1.0000
  F   F314      1.0  0.73270  0.40004  0.71976  1.0000
  F   F315      1.0  0.73472  0.89486  0.24145  1.0000
  F   F316      1.0  0.73549  0.90182  0.73258  1.0000
  F   F317      1.0  0.97988  0.41469  0.23082  1.0000
  F   F318      1.0  0.98976  0.40262  0.72678  1.0000
  F   F319      1.0  0.98178  0.91571  0.21884  1.0000
  F   F320      1.0  0.98324  0.90605  0.73746  1.0000
  F   F321      1.0  0.19874  0.47818  0.47586  1.0000
  F   F322      1.0  0.20328  0.48139  0.97737  1.0000
  F   F323      1.0  0.19926  0.97379  0.47963  1.0000
  F   F324      1.0  0.21496  0.97679  0.97239  1.0000
  F   F325      1.0  0.46393  0.46253  0.47185  1.0000
  F   F326      1.0  0.45751  0.46573  0.97441  1.0000
  F   F327      1.0  0.45740  0.96963  0.47352  1.0000
  F   F328      1.0  0.45474  0.96639  0.99099  1.0000
  F   F329      1.0  0.70682  0.46550  0.47680  1.0000
  F   F330      1.0  0.70619  0.45524  0.98923  1.0000
  F   F331      1.0  0.70743  0.96363  0.46821  1.0000
  F   F332      1.0  0.71243  0.97008  0.97997  1.0000
  F   F333      1.0  0.95333  0.47008  0.48955  1.0000
  F   F334      1.0  0.95147  0.47246  0.99106  1.0000
  F   F335      1.0  0.95942  0.96657  0.46426  1.0000
  F   F336      1.0  0.96393  0.97033  0.97485  1.0000
  F   F337      1.0  0.01546  0.08787  0.26786  1.0000
  F   F338      1.0  0.01072  0.08285  0.77772  1.0000
  F   F339      1.0  0.01267  0.57954  0.27676  1.0000
  F   F340      1.0  0.01170  0.58386  0.78237  1.0000
  F   F341      1.0  0.25986  0.08709  0.27242  1.0000
  F   F342      1.0  0.26928  0.08718  0.76798  1.0000
  F   F343      1.0  0.26794  0.59702  0.27140  1.0000
  F   F344      1.0  0.26769  0.58198  0.78268  1.0000
  F   F345      1.0  0.51492  0.09428  0.27542  1.0000
  F   F346      1.0  0.51078  0.10465  0.76513  1.0000
  F   F347      1.0  0.51082  0.58598  0.28132  1.0000
  F   F348      1.0  0.51398  0.57340  0.78572  1.0000
  F   F349      1.0  0.76818  0.08063  0.27646  1.0000
  F   F350      1.0  0.77140  0.08445  0.76490  1.0000
  F   F351      1.0  0.76221  0.59783  0.27106  1.0000
  F   F352      1.0  0.76229  0.59301  0.77717  1.0000
  F   F353      1.0  0.10255  0.42138  0.44403  1.0000
  F   F354      1.0  0.10349  0.42893  0.95101  1.0000
  F   F355      1.0  0.09999  0.90305  0.47051  1.0000
  F   F356      1.0  0.09993  0.93487  0.95018  1.0000
  F   F357      1.0  0.34963  0.40459  0.46932  1.0000
  F   F358      1.0  0.35183  0.41101  0.95193  1.0000
  F   F359      1.0  0.35276  0.90125  0.46311  1.0000
  F   F360      1.0  0.35115  0.91194  0.96094  1.0000
  F   F361      1.0  0.60797  0.40384  0.46198  1.0000
  F   F362      1.0  0.60364  0.40045  0.95605  1.0000
  F   F363      1.0  0.59999  0.92277  0.47429  1.0000
  F   F364      1.0  0.60246  0.90303  0.96124  1.0000
  F   F365      1.0  0.85893  0.40120  0.47586  1.0000
  F   F366      1.0  0.85083  0.38552  0.96184  1.0000
  F   F367      1.0  0.85300  0.91316  0.46168  1.0000
  F   F368      1.0  0.84810  0.92130  0.95728  1.0000
  F   F369      1.0  0.04426  0.30044  0.28356  1.0000
  F   F370      1.0  0.05178  0.29919  0.78132  1.0000
  F   F371      1.0  0.05460  0.80531  0.28836  1.0000
  F   F372      1.0  0.04704  0.79397  0.80285  1.0000
  F   F373      1.0  0.28903  0.30002  0.29311  1.0000
  F   F374      1.0  0.29142  0.29897  0.78960  1.0000
  F   F375      1.0  0.28979  0.80133  0.29095  1.0000
  F   F376      1.0  0.29920  0.79570  0.77596  1.0000
  F   F377      1.0  0.53894  0.29504  0.28329  1.0000
  F   F378      1.0  0.54146  0.28965  0.78457  1.0000
  F   F379      1.0  0.55648  0.80081  0.27916  1.0000
  F   F380      1.0  0.54560  0.78190  0.79104  1.0000
  F   F381      1.0  0.80000  0.29755  0.29081  1.0000
  F   F382      1.0  0.79174  0.29960  0.78295  1.0000
  F   F383      1.0  0.80716  0.78770  0.27371  1.0000
  F   F384      1.0  0.79233  0.79407  0.79352  1.0000
