data_image0
_chemical_formula_structural       Hf96F384
_chemical_formula_sum              "Hf96 F384"
_cell_length_a       31.0166
_cell_length_b       15.5085
_cell_length_c       15.501
_cell_angle_alpha    63.342
_cell_angle_beta     63.342
_cell_angle_gamma    80.1625

_space_group_name_H-M_alt    "P 1"
_space_group_IT_number       1

loop_
  _space_group_symop_operation_xyz
  'x, y, z'

loop_
  _atom_site_type_symbol
  _atom_site_label
  _atom_site_symmetry_multiplicity
  _atom_site_fract_x
  _atom_site_fract_y
  _atom_site_fract_z
  _atom_site_occupancy
  Hf  Hf1       1.0  0.20053  0.10460  0.37173  1.0000
  Hf  Hf2       1.0  0.19766  0.09407  0.88310  1.0000
  Hf  Hf3       1.0  0.19581  0.60975  0.38222  1.0000
  Hf  Hf4       1.0  0.20094  0.60639  0.86339  1.0000
  Hf  Hf5       1.0  0.44822  0.10926  0.37716  1.0000
  Hf  Hf6       1.0  0.44685  0.10626  0.87947  1.0000
  Hf  Hf7       1.0  0.44531  0.60376  0.38020  1.0000
  Hf  Hf8       1.0  0.44416  0.60509  0.88553  1.0000
  Hf  Hf9       1.0  0.69768  0.10704  0.37294  1.0000
  Hf  Hf10      1.0  0.69417  0.10869  0.87595  1.0000
  Hf  Hf11      1.0  0.69362  0.60727  0.37621  1.0000
  Hf  Hf12      1.0  0.69551  0.60567  0.87074  1.0000
  Hf  Hf13      1.0  0.94281  0.11186  0.37406  1.0000
  Hf  Hf14      1.0  0.95162  0.10966  0.86439  1.0000
  Hf  Hf15      1.0  0.94409  0.60966  0.37175  1.0000
  Hf  Hf16      1.0  0.94475  0.60326  0.88307  1.0000
  Hf  Hf17      1.0  0.05154  0.38583  0.12627  1.0000
  Hf  Hf18      1.0  0.05101  0.39070  0.63126  1.0000
  Hf  Hf19      1.0  0.05831  0.89837  0.12043  1.0000
  Hf  Hf20      1.0  0.05250  0.88956  0.62779  1.0000
  Hf  Hf21      1.0  0.29939  0.38882  0.13076  1.0000
  Hf  Hf22      1.0  0.30269  0.39031  0.62774  1.0000
  Hf  Hf23      1.0  0.30307  0.89197  0.12226  1.0000
  Hf  Hf24      1.0  0.30271  0.88972  0.62425  1.0000
  Hf  Hf25      1.0  0.55588  0.39471  0.12062  1.0000
  Hf  Hf26      1.0  0.55245  0.38653  0.62884  1.0000
  Hf  Hf27      1.0  0.55241  0.89042  0.13068  1.0000
  Hf  Hf28      1.0  0.55272  0.89685  0.63146  1.0000
  Hf  Hf29      1.0  0.80079  0.39378  0.12784  1.0000
  Hf  Hf30      1.0  0.80235  0.39070  0.63208  1.0000
  Hf  Hf31      1.0  0.80534  0.90040  0.11760  1.0000
  Hf  Hf32      1.0  0.80406  0.89666  0.62794  1.0000
  Hf  Hf33      1.0  0.05697  0.17925  0.42341  1.0000
  Hf  Hf34      1.0  0.05775  0.18092  0.92181  1.0000
  Hf  Hf35      1.0  0.05680  0.68232  0.41257  1.0000
  Hf  Hf36      1.0  0.05806  0.67143  0.92020  1.0000
  Hf  Hf37      1.0  0.30535  0.18456  0.41096  1.0000
  Hf  Hf38      1.0  0.30699  0.18731  0.91433  1.0000
  Hf  Hf39      1.0  0.30788  0.68998  0.40791  1.0000
  Hf  Hf40      1.0  0.30525  0.67601  0.91452  1.0000
  Hf  Hf41      1.0  0.55718  0.18303  0.41580  1.0000
  Hf  Hf42      1.0  0.55533  0.18124  0.91761  1.0000
  Hf  Hf43      1.0  0.55604  0.68426  0.41653  1.0000
  Hf  Hf44      1.0  0.55472  0.68248  0.92067  1.0000
  Hf  Hf45      1.0  0.80295  0.18240  0.41871  1.0000
  Hf  Hf46      1.0  0.80723  0.18098  0.91167  1.0000
  Hf  Hf47      1.0  0.80330  0.68878  0.41115  1.0000
  Hf  Hf48      1.0  0.80411  0.67560  0.92455  1.0000
  Hf  Hf49      1.0  0.15689  0.39368  0.33544  1.0000
  Hf  Hf50      1.0  0.16018  0.38497  0.82881  1.0000
  Hf  Hf51      1.0  0.15836  0.89233  0.33228  1.0000
  Hf  Hf52      1.0  0.16311  0.88681  0.82330  1.0000
  Hf  Hf53      1.0  0.40671  0.39176  0.33627  1.0000
  Hf  Hf54      1.0  0.40883  0.39487  0.83385  1.0000
  Hf  Hf55      1.0  0.41131  0.89186  0.32767  1.0000
  Hf  Hf56      1.0  0.40896  0.88958  0.83118  1.0000
  Hf  Hf57      1.0  0.65714  0.38452  0.34149  1.0000
  Hf  Hf58      1.0  0.65554  0.38706  0.83271  1.0000
  Hf  Hf59      1.0  0.65746  0.89201  0.33312  1.0000
  Hf  Hf60      1.0  0.65810  0.88601  0.83556  1.0000
  Hf  Hf61      1.0  0.90720  0.38846  0.33328  1.0000
  Hf  Hf62      1.0  0.91001  0.38857  0.82092  1.0000
  Hf  Hf63      1.0  0.91041  0.89160  0.32850  1.0000
  Hf  Hf64      1.0  0.90615  0.88429  0.83603  1.0000
  Hf  Hf65      1.0  0.19810  0.32410  0.07309  1.0000
  Hf  Hf66      1.0  0.19174  0.31537  0.58122  1.0000
  Hf  Hf67      1.0  0.19329  0.81026  0.09038  1.0000
  Hf  Hf68      1.0  0.19487  0.81985  0.57574  1.0000
  Hf  Hf69      1.0  0.44420  0.31695  0.08855  1.0000
  Hf  Hf70      1.0  0.44508  0.31831  0.58635  1.0000
  Hf  Hf71      1.0  0.44351  0.81835  0.08549  1.0000
  Hf  Hf72      1.0  0.44492  0.81802  0.58418  1.0000
  Hf  Hf73      1.0  0.69458  0.32507  0.08329  1.0000
  Hf  Hf74      1.0  0.68988  0.31020  0.59847  1.0000
  Hf  Hf75      1.0  0.69135  0.81566  0.08709  1.0000
  Hf  Hf76      1.0  0.69624  0.81777  0.57864  1.0000
  Hf  Hf77      1.0  0.94132  0.32111  0.07948  1.0000
  Hf  Hf78      1.0  0.94440  0.32073  0.57744  1.0000
  Hf  Hf79      1.0  0.94816  0.82028  0.07838  1.0000
  Hf  Hf80      1.0  0.94580  0.81486  0.57823  1.0000
  Hf  Hf81      1.0  0.09070  0.11267  0.17343  1.0000
  Hf  Hf82      1.0  0.09402  0.10523  0.66385  1.0000
  Hf  Hf83      1.0  0.08959  0.61983  0.16363  1.0000
  Hf  Hf84      1.0  0.09156  0.61032  0.66393  1.0000
  Hf  Hf85      1.0  0.34222  0.10993  0.16227  1.0000
  Hf  Hf86      1.0  0.34253  0.11090  0.66212  1.0000
  Hf  Hf87      1.0  0.34232  0.61811  0.16053  1.0000
  Hf  Hf88      1.0  0.34639  0.61662  0.65449  1.0000
  Hf  Hf89      1.0  0.59150  0.11380  0.16623  1.0000
  Hf  Hf90      1.0  0.59253  0.11014  0.66495  1.0000
  Hf  Hf91      1.0  0.58936  0.61248  0.17130  1.0000
  Hf  Hf92      1.0  0.58939  0.61218  0.67254  1.0000
  Hf  Hf93      1.0  0.84365  0.11016  0.16705  1.0000
  Hf  Hf94      1.0  0.84304  0.10965  0.66564  1.0000
  Hf  Hf95      1.0  0.84077  0.61282  0.16689  1.0000
  Hf  Hf96      1.0  0.83916  0.61430  0.66687  1.0000
  F   F1        1.0  0.07780  0.10766  0.31972  1.0000
  F   F2        1.0  0.08559  0.14357  0.79571  1.0000
  F   F3        1.0  0.07525  0.61683  0.31210  1.0000
  F   F4        1.0  0.07942  0.61855  0.81047  1.0000
  F   F5        1.0  0.32769  0.13200  0.30348  1.0000
  F   F6        1.0  0.33337  0.12893  0.79233  1.0000
  F   F7        1.0  0.33694  0.64587  0.29198  1.0000
  F   F8        1.0  0.32897  0.60972  0.80698  1.0000
  F   F9        1.0  0.57954  0.11766  0.31168  1.0000
  F   F10       1.0  0.57946  0.13631  0.78854  1.0000
  F   F11       1.0  0.58328  0.63395  0.30068  1.0000
  F   F12       1.0  0.58284  0.64274  0.79715  1.0000
  F   F13       1.0  0.82778  0.13290  0.30567  1.0000
  F   F14       1.0  0.82561  0.11806  0.80848  1.0000
  F   F15       1.0  0.82547  0.62597  0.30934  1.0000
  F   F16       1.0  0.82862  0.61585  0.81230  1.0000
  F   F17       1.0  0.18635  0.33582  0.43928  1.0000
  F   F18       1.0  0.18482  0.33698  0.93936  1.0000
  F   F19       1.0  0.18830  0.84804  0.43954  1.0000
  F   F20       1.0  0.18825  0.82568  0.94351  1.0000
  F   F21       1.0  0.43694  0.34006  0.44756  1.0000
  F   F22       1.0  0.44021  0.34578  0.94682  1.0000
  F   F23       1.0  0.43187  0.84163  0.45418  1.0000
  F   F24       1.0  0.42620  0.84284  0.95376  1.0000
  F   F25       1.0  0.68277  0.33152  0.45692  1.0000
  F   F26       1.0  0.68853  0.33362  0.94841  1.0000
  F   F27       1.0  0.68305  0.85127  0.44577  1.0000
  F   F28       1.0  0.69089  0.84642  0.94009  1.0000
  F   F29       1.0  0.93684  0.34667  0.43758  1.0000
  F   F30       1.0  0.93573  0.33711  0.93578  1.0000
  F   F31       1.0  0.93913  0.83644  0.44501  1.0000
  F   F32       1.0  0.93622  0.84451  0.95084  1.0000
  F   F33       1.0  0.17352  0.38235  0.18362  1.0000
  F   F34       1.0  0.17409  0.37786  0.69238  1.0000
  F   F35       1.0  0.16237  0.85077  0.21435  1.0000
  F   F36       1.0  0.17747  0.88710  0.68312  1.0000
  F   F37       1.0  0.41921  0.36880  0.20072  1.0000
  F   F38       1.0  0.42057  0.37171  0.69834  1.0000
  F   F39       1.0  0.42546  0.88608  0.17981  1.0000
  F   F40       1.0  0.42187  0.88393  0.68770  1.0000
  F   F41       1.0  0.67356  0.36515  0.20158  1.0000
  F   F42       1.0  0.67088  0.37821  0.69195  1.0000
  F   F43       1.0  0.67416  0.87203  0.19066  1.0000
  F   F44       1.0  0.66923  0.86639  0.69782  1.0000
  F   F45       1.0  0.91806  0.37187  0.20448  1.0000
  F   F46       1.0  0.92357  0.36944  0.68849  1.0000
  F   F47       1.0  0.92425  0.89299  0.17892  1.0000
  F   F48       1.0  0.91608  0.86816  0.69752  1.0000
  F   F49       1.0  0.06005  0.14773  0.06883  1.0000
  F   F50       1.0  0.06655  0.14792  0.55730  1.0000
  F   F51       1.0  0.05918  0.64074  0.06149  1.0000
  F   F52       1.0  0.07342  0.65760  0.53887  1.0000
  F   F53       1.0  0.31268  0.16371  0.05805  1.0000
  F   F54       1.0  0.31206  0.15586  0.55180  1.0000
  F   F55       1.0  0.31631  0.66445  0.04532  1.0000
  F   F56       1.0  0.31495  0.66924  0.54430  1.0000
  F   F57       1.0  0.56480  0.15878  0.05349  1.0000
  F   F58       1.0  0.56721  0.15422  0.54543  1.0000
  F   F59       1.0  0.55589  0.66183  0.05972  1.0000
  F   F60       1.0  0.56025  0.66874  0.55621  1.0000
  F   F61       1.0  0.81418  0.15680  0.06189  1.0000
  F   F62       1.0  0.81412  0.15475  0.56333  1.0000
  F   F63       1.0  0.81491  0.65828  0.05897  1.0000
  F   F64       1.0  0.81382  0.66380  0.54788  1.0000
  F   F65       1.0  0.21032  0.20044  0.20353  1.0000
  F   F66       1.0  0.19347  0.19974  0.71154  1.0000
  F   F67       1.0  0.20942  0.70324  0.21429  1.0000
  F   F68       1.0  0.19022  0.69744  0.70768  1.0000
  F   F69       1.0  0.45827  0.20544  0.20455  1.0000
  F   F70       1.0  0.45519  0.20255  0.71967  1.0000
  F   F71       1.0  0.45119  0.70117  0.22009  1.0000
  F   F72       1.0  0.45210  0.71394  0.70602  1.0000
  F   F73       1.0  0.70384  0.19614  0.22086  1.0000
  F   F74       1.0  0.70823  0.20350  0.71087  1.0000
  F   F75       1.0  0.69838  0.70012  0.21930  1.0000
  F   F76       1.0  0.70788  0.70601  0.71055  1.0000
  F   F77       1.0  0.94693  0.20134  0.21179  1.0000
  F   F78       1.0  0.95417  0.19791  0.70495  1.0000
  F   F79       1.0  0.94953  0.70697  0.21037  1.0000
  F   F80       1.0  0.95605  0.71260  0.72138  1.0000
  F   F81       1.0  0.14739  0.10554  0.04800  1.0000
  F   F82       1.0  0.14747  0.06331  0.54744  1.0000
  F   F83       1.0  0.14885  0.61285  0.03052  1.0000
  F   F84       1.0  0.14782  0.57826  0.53682  1.0000
  F   F85       1.0  0.39800  0.08675  0.03717  1.0000
  F   F86       1.0  0.40056  0.08963  0.53957  1.0000
  F   F87       1.0  0.39958  0.59358  0.04008  1.0000
  F   F88       1.0  0.39740  0.59168  0.53913  1.0000
  F   F89       1.0  0.64894  0.09944  0.03824  1.0000
  F   F90       1.0  0.64819  0.09101  0.54051  1.0000
  F   F91       1.0  0.64678  0.59298  0.05347  1.0000
  F   F92       1.0  0.64801  0.60933  0.54593  1.0000
  F   F93       1.0  0.90259  0.10506  0.02862  1.0000
  F   F94       1.0  0.89733  0.08058  0.55205  1.0000
  F   F95       1.0  0.89872  0.58578  0.04334  1.0000
  F   F96       1.0  0.89409  0.59991  0.53435  1.0000
  F   F97       1.0  0.14632  0.21720  0.13376  1.0000
  F   F98       1.0  0.15549  0.18786  0.60885  1.0000
  F   F99       1.0  0.14924  0.69880  0.13794  1.0000
  F   F100      1.0  0.14900  0.70388  0.59569  1.0000
  F   F101      1.0  0.40653  0.19123  0.11956  1.0000
  F   F102      1.0  0.40530  0.19004  0.62526  1.0000
  F   F103      1.0  0.40202  0.68945  0.12281  1.0000
  F   F104      1.0  0.40267  0.69192  0.62965  1.0000
  F   F105      1.0  0.65317  0.20309  0.12545  1.0000
  F   F106      1.0  0.65119  0.18428  0.63251  1.0000
  F   F107      1.0  0.65027  0.70753  0.11942  1.0000
  F   F108      1.0  0.65418  0.70667  0.62884  1.0000
  F   F109      1.0  0.89666  0.20864  0.12005  1.0000
  F   F110      1.0  0.89995  0.20052  0.61888  1.0000
  F   F111      1.0  0.90352  0.70126  0.11754  1.0000
  F   F112      1.0  0.90360  0.68767  0.63171  1.0000
  F   F113      1.0  0.09977  0.29655  0.38990  1.0000
  F   F114      1.0  0.10353  0.29187  0.87327  1.0000
  F   F115      1.0  0.09552  0.81363  0.38283  1.0000
  F   F116      1.0  0.10442  0.79695  0.87852  1.0000
  F   F117      1.0  0.34554  0.30059  0.38290  1.0000
  F   F118      1.0  0.34657  0.30704  0.87229  1.0000
  F   F119      1.0  0.35086  0.80699  0.36076  1.0000
  F   F120      1.0  0.35134  0.80500  0.86276  1.0000
  F   F121      1.0  0.59827  0.30007  0.38941  1.0000
  F   F122      1.0  0.59039  0.31827  0.86427  1.0000
  F   F123      1.0  0.59973  0.80056  0.36598  1.0000
  F   F124      1.0  0.59884  0.80003  0.87593  1.0000
  F   F125      1.0  0.84959  0.30018  0.38149  1.0000
  F   F126      1.0  0.85440  0.29714  0.87635  1.0000
  F   F127      1.0  0.84978  0.80763  0.37925  1.0000
  F   F128      1.0  0.84267  0.80236  0.87846  1.0000
  F   F129      1.0  0.05567  0.24430  0.16245  1.0000
  F   F130      1.0  0.06574  0.24944  0.63420  1.0000
  F   F131      1.0  0.06829  0.75924  0.13251  1.0000
  F   F132      1.0  0.06830  0.75423  0.63214  1.0000
  F   F133      1.0  0.32164  0.25787  0.12162  1.0000
  F   F134      1.0  0.31723  0.25710  0.63193  1.0000
  F   F135      1.0  0.31282  0.75296  0.13824  1.0000
  F   F136      1.0  0.32021  0.74743  0.63961  1.0000
  F   F137      1.0  0.56809  0.25495  0.13368  1.0000
  F   F138      1.0  0.56588  0.24866  0.62393  1.0000
  F   F139      1.0  0.56135  0.74061  0.14778  1.0000
  F   F140      1.0  0.56816  0.75110  0.64463  1.0000
  F   F141      1.0  0.80768  0.25283  0.15438  1.0000
  F   F142      1.0  0.80840  0.25052  0.65801  1.0000
  F   F143      1.0  0.82196  0.75753  0.13886  1.0000
  F   F144      1.0  0.81129  0.75053  0.64961  1.0000
  F   F145      1.0  0.12121  0.37540  0.10819  1.0000
  F   F146      1.0  0.12164  0.36438  0.61974  1.0000
  F   F147      1.0  0.13213  0.87844  0.09103  1.0000
  F   F148      1.0  0.12550  0.86299  0.62081  1.0000
  F   F149      1.0  0.36864  0.36446  0.12571  1.0000
  F   F150      1.0  0.37335  0.34925  0.62645  1.0000
  F   F151      1.0  0.37481  0.86751  0.11455  1.0000
  F   F152      1.0  0.37585  0.89102  0.59529  1.0000
  F   F153      1.0  0.62523  0.38666  0.10840  1.0000
  F   F154      1.0  0.62072  0.34907  0.63138  1.0000
  F   F155      1.0  0.62185  0.88110  0.10533  1.0000
  F   F156      1.0  0.62477  0.88078  0.59065  1.0000
  F   F157      1.0  0.87226  0.37703  0.10708  1.0000
  F   F158      1.0  0.87400  0.36523  0.61591  1.0000
  F   F159      1.0  0.87410  0.88535  0.09702  1.0000
  F   F160      1.0  0.87674  0.87118  0.60401  1.0000
  F   F161      1.0  0.19153  0.24164  0.34987  1.0000
  F   F162      1.0  0.19044  0.23936  0.84317  1.0000
  F   F163      1.0  0.17816  0.74365  0.37673  1.0000
  F   F164      1.0  0.19679  0.75348  0.83567  1.0000
  F   F165      1.0  0.43125  0.25105  0.35394  1.0000
  F   F166      1.0  0.44037  0.24917  0.86282  1.0000
  F   F167      1.0  0.43456  0.75173  0.36087  1.0000
  F   F168      1.0  0.43695  0.74550  0.85243  1.0000
  F   F169      1.0  0.69179  0.25837  0.34786  1.0000
  F   F170      1.0  0.66979  0.24642  0.85544  1.0000
  F   F171      1.0  0.68593  0.74998  0.36239  1.0000
  F   F172      1.0  0.68136  0.74485  0.87248  1.0000
  F   F173      1.0  0.94104  0.25225  0.35023  1.0000
  F   F174      1.0  0.94019  0.24783  0.84504  1.0000
  F   F175      1.0  0.93887  0.75636  0.34375  1.0000
  F   F176      1.0  0.92895  0.74789  0.88280  1.0000
  F   F177      1.0  0.12731  0.13257  0.38701  1.0000
  F   F178      1.0  0.12439  0.10821  0.91771  1.0000
  F   F179      1.0  0.12851  0.63511  0.37439  1.0000
  F   F180      1.0  0.12567  0.62599  0.88872  1.0000
  F   F181      1.0  0.37680  0.12079  0.39670  1.0000
  F   F182      1.0  0.37693  0.12064  0.89936  1.0000
  F   F183      1.0  0.37372  0.61946  0.40573  1.0000
  F   F184      1.0  0.37262  0.61257  0.90101  1.0000
  F   F185      1.0  0.62563  0.13978  0.38993  1.0000
  F   F186      1.0  0.61731  0.10909  0.90388  1.0000
  F   F187      1.0  0.62508  0.63450  0.39790  1.0000
  F   F188      1.0  0.62644  0.63159  0.89642  1.0000
  F   F189      1.0  0.87206  0.13570  0.39222  1.0000
  F   F190      1.0  0.87741  0.13463  0.88164  1.0000
  F   F191      1.0  0.87570  0.63271  0.38456  1.0000
  F   F192      1.0  0.87505  0.62912  0.89654  1.0000
  F   F193      1.0  0.00222  0.35914  0.08431  1.0000
  F   F194      1.0  0.00576  0.36536  0.57308  1.0000
  F   F195      1.0  0.00957  0.85915  0.08248  1.0000
  F   F196      1.0  0.00460  0.86393  0.58110  1.0000
  F   F197      1.0  0.26152  0.36986  0.06006  1.0000
  F   F198      1.0  0.25633  0.36081  0.56880  1.0000
  F   F199      1.0  0.25303  0.85621  0.08739  1.0000
  F   F200      1.0  0.25390  0.84277  0.59329  1.0000
  F   F201      1.0  0.50931  0.35669  0.07053  1.0000
  F   F202      1.0  0.50276  0.36056  0.59028  1.0000
  F   F203      1.0  0.50925  0.85523  0.07745  1.0000
  F   F204      1.0  0.50800  0.86562  0.58803  1.0000
  F   F205      1.0  0.75913  0.36929  0.06259  1.0000
  F   F206      1.0  0.75380  0.36519  0.57315  1.0000
  F   F207      1.0  0.76055  0.86573  0.06490  1.0000
  F   F208      1.0  0.76051  0.86985  0.56847  1.0000
  F   F209      1.0  0.06802  0.48486  0.18800  1.0000
  F   F210      1.0  0.06860  0.49013  0.66297  1.0000
  F   F211      1.0  0.07589  0.98141  0.17653  1.0000
  F   F212      1.0  0.07277  0.97476  0.67878  1.0000
  F   F213      1.0  0.31495  0.48744  0.17689  1.0000
  F   F214      1.0  0.32027  0.47500  0.68209  1.0000
  F   F215      1.0  0.32182  0.98587  0.17116  1.0000
  F   F216      1.0  0.31977  0.98916  0.67636  1.0000
  F   F217      1.0  0.56490  0.49238  0.17250  1.0000
  F   F218      1.0  0.56381  0.48744  0.67688  1.0000
  F   F219      1.0  0.56853  0.98643  0.18391  1.0000
  F   F220      1.0  0.56475  0.98030  0.68715  1.0000
  F   F221      1.0  0.81323  0.49261  0.17395  1.0000
  F   F222      1.0  0.82051  0.48181  0.67592  1.0000
  F   F223      1.0  0.81895  0.98798  0.16822  1.0000
  F   F224      1.0  0.81959  0.97646  0.68456  1.0000
  F   F225      1.0  0.24024  0.13261  0.44296  1.0000
  F   F226      1.0  0.24618  0.14757  0.92448  1.0000
  F   F227      1.0  0.24462  0.63333  0.43070  1.0000
  F   F228      1.0  0.24594  0.62679  0.91699  1.0000
  F   F229      1.0  0.49448  0.14724  0.42283  1.0000
  F   F230      1.0  0.49776  0.12253  0.92677  1.0000
  F   F231      1.0  0.49114  0.64598  0.42262  1.0000
  F   F232      1.0  0.49287  0.63938  0.92450  1.0000
  F   F233      1.0  0.74366  0.13019  0.42403  1.0000
  F   F234      1.0  0.74265  0.15145  0.91067  1.0000
  F   F235      1.0  0.74367  0.61950  0.43642  1.0000
  F   F236      1.0  0.74332  0.63893  0.91026  1.0000
  F   F237      1.0  0.99521  0.13743  0.41212  1.0000
  F   F238      1.0  0.99547  0.14220  0.91941  1.0000
  F   F239      1.0  0.99292  0.64008  0.42718  1.0000
  F   F240      1.0  0.98855  0.63332  0.94762  1.0000
  F   F241      1.0  0.18339  0.01486  0.32079  1.0000
  F   F242      1.0  0.18405  0.99734  0.84255  1.0000
  F   F243      1.0  0.18161  0.51960  0.32020  1.0000
  F   F244      1.0  0.17820  0.51089  0.82471  1.0000
  F   F245      1.0  0.42921  0.01362  0.33149  1.0000
  F   F246      1.0  0.42667  0.01931  0.82085  1.0000
  F   F247      1.0  0.43418  0.51412  0.32544  1.0000
  F   F248      1.0  0.43308  0.51810  0.82742  1.0000
  F   F249      1.0  0.68227  0.01240  0.32929  1.0000
  F   F250      1.0  0.67903  0.01498  0.82939  1.0000
  F   F251      1.0  0.68026  0.51720  0.33185  1.0000
  F   F252      1.0  0.67980  0.51020  0.82859  1.0000
  F   F253      1.0  0.92379  0.00828  0.33493  1.0000
  F   F254      1.0  0.93936  0.01160  0.81626  1.0000
  F   F255      1.0  0.92745  0.51847  0.32891  1.0000
  F   F256      1.0  0.93180  0.51376  0.81942  1.0000
  F   F257      1.0  0.00385  0.25895  0.99356  1.0000
  F   F258      1.0  0.00056  0.24301  0.50645  1.0000
  F   F259      1.0  0.00780  0.76916  0.98620  1.0000
  F   F260      1.0  0.99953  0.72634  0.52652  1.0000
  F   F261      1.0  0.25276  0.26295  0.98808  1.0000
  F   F262      1.0  0.25118  0.24719  0.49504  1.0000
  F   F263      1.0  0.24938  0.74155  0.00078  1.0000
  F   F264      1.0  0.24976  0.75935  0.48652  1.0000
  F   F265      1.0  0.49957  0.23513  0.00576  1.0000
  F   F266      1.0  0.50434  0.25726  0.50168  1.0000
  F   F267      1.0  0.49374  0.75317  0.00145  1.0000
  F   F268      1.0  0.50088  0.77110  0.49251  1.0000
  F   F269      1.0  0.75268  0.23764  0.01287  1.0000
  F   F270      1.0  0.74953  0.24348  0.50998  1.0000
  F   F271      1.0  0.74706  0.73290  0.00754  1.0000
  F   F272      1.0  0.74477  0.74205  0.50313  1.0000
  F   F273      1.0  0.13370  0.00794  0.23029  1.0000
  F   F274      1.0  0.12431  0.99838  0.76708  1.0000
  F   F275      1.0  0.12827  0.50853  0.24571  1.0000
  F   F276      1.0  0.12487  0.49950  0.74102  1.0000
  F   F277      1.0  0.38223  0.00712  0.24268  1.0000
  F   F278      1.0  0.37574  0.99210  0.75237  1.0000
  F   F279      1.0  0.37475  0.49427  0.24286  1.0000
  F   F280      1.0  0.38241  0.50345  0.73432  1.0000
  F   F281      1.0  0.63160  0.01087  0.24640  1.0000
  F   F282      1.0  0.61898  0.99784  0.75451  1.0000
  F   F283      1.0  0.62332  0.49082  0.25730  1.0000
  F   F284      1.0  0.61724  0.50027  0.76576  1.0000
  F   F285      1.0  0.87555  0.00085  0.24613  1.0000
  F   F286      1.0  0.87986  0.01211  0.74641  1.0000
  F   F287      1.0  0.87233  0.49592  0.25288  1.0000
  F   F288      1.0  0.87771  0.49635  0.74415  1.0000
  F   F289      1.0  0.03839  0.03058  0.03035  1.0000
  F   F290      1.0  0.03759  0.03019  0.53777  1.0000
  F   F291      1.0  0.04943  0.51860  0.01187  1.0000
  F   F292      1.0  0.04147  0.53496  0.52102  1.0000
  F   F293      1.0  0.29344  0.03319  0.02560  1.0000
  F   F294      1.0  0.29455  0.02194  0.51343  1.0000
  F   F295      1.0  0.28771  0.53226  0.03178  1.0000
  F   F296      1.0  0.29813  0.52216  0.50427  1.0000
  F   F297      1.0  0.53696  0.02474  0.03383  1.0000
  F   F298      1.0  0.54320  0.03044  0.52719  1.0000
  F   F299      1.0  0.54121  0.53131  0.02909  1.0000
  F   F300      1.0  0.53940  0.54076  0.51806  1.0000
  F   F301      1.0  0.78937  0.04094  0.01551  1.0000
  F   F302      1.0  0.78837  0.02779  0.53892  1.0000
  F   F303      1.0  0.79112  0.53299  0.02343  1.0000
  F   F304      1.0  0.79031  0.52885  0.53435  1.0000
  F   F305      1.0  0.23004  0.41316  0.22370  1.0000
  F   F306      1.0  0.23390  0.41332  0.72934  1.0000
  F   F307      1.0  0.23035  0.92127  0.22234  1.0000
  F   F308      1.0  0.23655  0.92945  0.71644  1.0000
  F   F309      1.0  0.48541  0.40137  0.22746  1.0000
  F   F310      1.0  0.48445  0.43504  0.71991  1.0000
  F   F311      1.0  0.48309  0.91343  0.22849  1.0000
  F   F312      1.0  0.48356  0.90864  0.74478  1.0000
  F   F313      1.0  0.73006  0.42654  0.22026  1.0000
  F   F314      1.0  0.73173  0.40074  0.74307  1.0000
  F   F315      1.0  0.73537  0.92706  0.20613  1.0000
  F   F316      1.0  0.73527  0.90924  0.72586  1.0000
  F   F317      1.0  0.98217  0.41579  0.22927  1.0000
  F   F318      1.0  0.98463  0.41042  0.72698  1.0000
  F   F319      1.0  0.98843  0.91489  0.23066  1.0000
  F   F320      1.0  0.98238  0.89730  0.74055  1.0000
  F   F321      1.0  0.20832  0.46146  0.47676  1.0000
  F   F322      1.0  0.21221  0.47196  0.96735  1.0000
  F   F323      1.0  0.21100  0.96813  0.47445  1.0000
  F   F324      1.0  0.21609  0.97021  0.98164  1.0000
  F   F325      1.0  0.45111  0.46643  0.49500  1.0000
  F   F326      1.0  0.45220  0.46353  0.99255  1.0000
  F   F327      1.0  0.46178  0.97635  0.46987  1.0000
  F   F328      1.0  0.45829  0.96244  0.97090  1.0000
  F   F329      1.0  0.69522  0.46251  0.48894  1.0000
  F   F330      1.0  0.71082  0.47893  0.97463  1.0000
  F   F331      1.0  0.70477  0.97509  0.48397  1.0000
  F   F332      1.0  0.70672  0.96881  0.97952  1.0000
  F   F333      1.0  0.95556  0.47219  0.47783  1.0000
  F   F334      1.0  0.95968  0.45947  0.97446  1.0000
  F   F335      1.0  0.95775  0.96963  0.47412  1.0000
  F   F336      1.0  0.96009  0.97428  0.96351  1.0000
  F   F337      1.0  0.01034  0.08592  0.26787  1.0000
  F   F338      1.0  0.02107  0.08773  0.77468  1.0000
  F   F339      1.0  0.01202  0.60569  0.25372  1.0000
  F   F340      1.0  0.01794  0.58549  0.77705  1.0000
  F   F341      1.0  0.26679  0.08692  0.27342  1.0000
  F   F342      1.0  0.26785  0.09914  0.77062  1.0000
  F   F343      1.0  0.27064  0.58790  0.27980  1.0000
  F   F344      1.0  0.26591  0.59180  0.74448  1.0000
  F   F345      1.0  0.51612  0.09181  0.26974  1.0000
  F   F346      1.0  0.51323  0.08850  0.77296  1.0000
  F   F347      1.0  0.51591  0.56905  0.30335  1.0000
  F   F348      1.0  0.51225  0.59850  0.76600  1.0000
  F   F349      1.0  0.76967  0.07397  0.27648  1.0000
  F   F350      1.0  0.75982  0.07629  0.77620  1.0000
  F   F351      1.0  0.76365  0.59238  0.26497  1.0000
  F   F352      1.0  0.76517  0.57123  0.78114  1.0000
  F   F353      1.0  0.10492  0.40380  0.47003  1.0000
  F   F354      1.0  0.09983  0.38344  0.96969  1.0000
  F   F355      1.0  0.10565  0.92026  0.45885  1.0000
  F   F356      1.0  0.10074  0.90807  0.96649  1.0000
  F   F357      1.0  0.35454  0.40994  0.46257  1.0000
  F   F358      1.0  0.35452  0.41509  0.95120  1.0000
  F   F359      1.0  0.35015  0.89656  0.45813  1.0000
  F   F360      1.0  0.34310  0.90597  0.96199  1.0000
  F   F361      1.0  0.60246  0.42214  0.46638  1.0000
  F   F362      1.0  0.60258  0.40741  0.96412  1.0000
  F   F363      1.0  0.59889  0.90261  0.45419  1.0000
  F   F364      1.0  0.59906  0.90553  0.96312  1.0000
  F   F365      1.0  0.85157  0.39830  0.47726  1.0000
  F   F366      1.0  0.84919  0.41243  0.96634  1.0000
  F   F367      1.0  0.85021  0.91727  0.46943  1.0000
  F   F368      1.0  0.84783  0.91180  0.94802  1.0000
  F   F369      1.0  0.05496  0.30078  0.29420  1.0000
  F   F370      1.0  0.04364  0.30055  0.79244  1.0000
  F   F371      1.0  0.05213  0.79486  0.28799  1.0000
  F   F372      1.0  0.04459  0.79394  0.79644  1.0000
  F   F373      1.0  0.28960  0.29790  0.29210  1.0000
  F   F374      1.0  0.29273  0.29504  0.79736  1.0000
  F   F375      1.0  0.29799  0.81119  0.27267  1.0000
  F   F376      1.0  0.29398  0.79531  0.78290  1.0000
  F   F377      1.0  0.55161  0.29537  0.28874  1.0000
  F   F378      1.0  0.54221  0.28781  0.78712  1.0000
  F   F379      1.0  0.54627  0.79205  0.28383  1.0000
  F   F380      1.0  0.54552  0.80971  0.79735  1.0000
  F   F381      1.0  0.79780  0.31134  0.27849  1.0000
  F   F382      1.0  0.79712  0.30526  0.79808  1.0000
  F   F383      1.0  0.79599  0.79940  0.28491  1.0000
  F   F384      1.0  0.79703  0.79335  0.78988  1.0000
