data_image0
_chemical_formula_structural       Hf96F384
_chemical_formula_sum              "Hf96 F384"
_cell_length_a       31.0402
_cell_length_b       15.5198
_cell_length_c       15.5108
_cell_angle_alpha    63.342
_cell_angle_beta     63.342
_cell_angle_gamma    80.1625

_space_group_name_H-M_alt    "P 1"
_space_group_IT_number       1

loop_
  _space_group_symop_operation_xyz
  'x, y, z'

loop_
  _atom_site_type_symbol
  _atom_site_label
  _atom_site_symmetry_multiplicity
  _atom_site_fract_x
  _atom_site_fract_y
  _atom_site_fract_z
  _atom_site_occupancy
  Hf  Hf1       1.0  0.19486  0.11262  0.37443  1.0000
  Hf  Hf2       1.0  0.19682  0.10716  0.87145  1.0000
  Hf  Hf3       1.0  0.19263  0.60117  0.38165  1.0000
  Hf  Hf4       1.0  0.19976  0.60385  0.88214  1.0000
  Hf  Hf5       1.0  0.45075  0.10812  0.37128  1.0000
  Hf  Hf6       1.0  0.44457  0.11795  0.87553  1.0000
  Hf  Hf7       1.0  0.44700  0.60348  0.37620  1.0000
  Hf  Hf8       1.0  0.44507  0.60573  0.88009  1.0000
  Hf  Hf9       1.0  0.69524  0.10357  0.37765  1.0000
  Hf  Hf10      1.0  0.69661  0.10437  0.86842  1.0000
  Hf  Hf11      1.0  0.69579  0.60325  0.37876  1.0000
  Hf  Hf12      1.0  0.69574  0.60902  0.87211  1.0000
  Hf  Hf13      1.0  0.94601  0.10541  0.37368  1.0000
  Hf  Hf14      1.0  0.94754  0.11402  0.86835  1.0000
  Hf  Hf15      1.0  0.94427  0.60671  0.37631  1.0000
  Hf  Hf16      1.0  0.94682  0.61097  0.87061  1.0000
  Hf  Hf17      1.0  0.05073  0.39244  0.12218  1.0000
  Hf  Hf18      1.0  0.05515  0.38291  0.62358  1.0000
  Hf  Hf19      1.0  0.05329  0.88493  0.13071  1.0000
  Hf  Hf20      1.0  0.05435  0.89157  0.62421  1.0000
  Hf  Hf21      1.0  0.30681  0.40196  0.10736  1.0000
  Hf  Hf22      1.0  0.30615  0.40081  0.61898  1.0000
  Hf  Hf23      1.0  0.30469  0.88777  0.12816  1.0000
  Hf  Hf24      1.0  0.30256  0.89476  0.62983  1.0000
  Hf  Hf25      1.0  0.55795  0.38772  0.13255  1.0000
  Hf  Hf26      1.0  0.55369  0.40005  0.62778  1.0000
  Hf  Hf27      1.0  0.55644  0.89002  0.12540  1.0000
  Hf  Hf28      1.0  0.55808  0.89111  0.62938  1.0000
  Hf  Hf29      1.0  0.80562  0.39453  0.11967  1.0000
  Hf  Hf30      1.0  0.80554  0.39552  0.62141  1.0000
  Hf  Hf31      1.0  0.80597  0.89147  0.12705  1.0000
  Hf  Hf32      1.0  0.80197  0.89058  0.62401  1.0000
  Hf  Hf33      1.0  0.05750  0.19039  0.40831  1.0000
  Hf  Hf34      1.0  0.05262  0.18138  0.91534  1.0000
  Hf  Hf35      1.0  0.05367  0.67182  0.42129  1.0000
  Hf  Hf36      1.0  0.05794  0.67811  0.90966  1.0000
  Hf  Hf37      1.0  0.30882  0.18080  0.42007  1.0000
  Hf  Hf38      1.0  0.30560  0.18848  0.91465  1.0000
  Hf  Hf39      1.0  0.30798  0.68810  0.41283  1.0000
  Hf  Hf40      1.0  0.30468  0.69387  0.91545  1.0000
  Hf  Hf41      1.0  0.55572  0.18630  0.42299  1.0000
  Hf  Hf42      1.0  0.55565  0.17830  0.92025  1.0000
  Hf  Hf43      1.0  0.55703  0.69133  0.41504  1.0000
  Hf  Hf44      1.0  0.55512  0.68246  0.91601  1.0000
  Hf  Hf45      1.0  0.80541  0.19109  0.41327  1.0000
  Hf  Hf46      1.0  0.80352  0.18284  0.91771  1.0000
  Hf  Hf47      1.0  0.80470  0.67884  0.41922  1.0000
  Hf  Hf48      1.0  0.80754  0.68702  0.91060  1.0000
  Hf  Hf49      1.0  0.15575  0.38790  0.33692  1.0000
  Hf  Hf50      1.0  0.15971  0.38960  0.83298  1.0000
  Hf  Hf51      1.0  0.15505  0.88108  0.34257  1.0000
  Hf  Hf52      1.0  0.15616  0.87836  0.84537  1.0000
  Hf  Hf53      1.0  0.40902  0.39080  0.32825  1.0000
  Hf  Hf54      1.0  0.40951  0.38863  0.82625  1.0000
  Hf  Hf55      1.0  0.40956  0.89028  0.32832  1.0000
  Hf  Hf56      1.0  0.40896  0.89081  0.83648  1.0000
  Hf  Hf57      1.0  0.66171  0.38572  0.32888  1.0000
  Hf  Hf58      1.0  0.66137  0.38382  0.83407  1.0000
  Hf  Hf59      1.0  0.66085  0.88306  0.33822  1.0000
  Hf  Hf60      1.0  0.65537  0.88798  0.83576  1.0000
  Hf  Hf61      1.0  0.90793  0.38988  0.33012  1.0000
  Hf  Hf62      1.0  0.91117  0.38989  0.82602  1.0000
  Hf  Hf63      1.0  0.90744  0.89005  0.32897  1.0000
  Hf  Hf64      1.0  0.90660  0.88799  0.83664  1.0000
  Hf  Hf65      1.0  0.19423  0.32004  0.08267  1.0000
  Hf  Hf66      1.0  0.19592  0.31357  0.58191  1.0000
  Hf  Hf67      1.0  0.19330  0.81558  0.09216  1.0000
  Hf  Hf68      1.0  0.19435  0.81826  0.58386  1.0000
  Hf  Hf69      1.0  0.44535  0.31539  0.08411  1.0000
  Hf  Hf70      1.0  0.44271  0.31021  0.58494  1.0000
  Hf  Hf71      1.0  0.44369  0.81320  0.08315  1.0000
  Hf  Hf72      1.0  0.44537  0.81410  0.58347  1.0000
  Hf  Hf73      1.0  0.69737  0.32545  0.07687  1.0000
  Hf  Hf74      1.0  0.69526  0.32190  0.57959  1.0000
  Hf  Hf75      1.0  0.69161  0.80323  0.09610  1.0000
  Hf  Hf76      1.0  0.69489  0.81704  0.58624  1.0000
  Hf  Hf77      1.0  0.94510  0.31136  0.08467  1.0000
  Hf  Hf78      1.0  0.94161  0.31547  0.58457  1.0000
  Hf  Hf79      1.0  0.94575  0.82757  0.07556  1.0000
  Hf  Hf80      1.0  0.94330  0.81802  0.58795  1.0000
  Hf  Hf81      1.0  0.09165  0.10751  0.16284  1.0000
  Hf  Hf82      1.0  0.09218  0.10792  0.66307  1.0000
  Hf  Hf83      1.0  0.08980  0.61195  0.16382  1.0000
  Hf  Hf84      1.0  0.09143  0.60741  0.66220  1.0000
  Hf  Hf85      1.0  0.33767  0.11762  0.16820  1.0000
  Hf  Hf86      1.0  0.34071  0.11093  0.66857  1.0000
  Hf  Hf87      1.0  0.34192  0.60978  0.16597  1.0000
  Hf  Hf88      1.0  0.34359  0.61740  0.66736  1.0000
  Hf  Hf89      1.0  0.59051  0.10851  0.17005  1.0000
  Hf  Hf90      1.0  0.59100  0.11404  0.66996  1.0000
  Hf  Hf91      1.0  0.59542  0.60788  0.16183  1.0000
  Hf  Hf92      1.0  0.59232  0.61153  0.67837  1.0000
  Hf  Hf93      1.0  0.83896  0.10867  0.16994  1.0000
  Hf  Hf94      1.0  0.83992  0.10710  0.66644  1.0000
  Hf  Hf95      1.0  0.84047  0.61420  0.17080  1.0000
  Hf  Hf96      1.0  0.83612  0.60458  0.67062  1.0000
  F   F1        1.0  0.07381  0.12799  0.30262  1.0000
  F   F2        1.0  0.07849  0.13821  0.79482  1.0000
  F   F3        1.0  0.07497  0.62511  0.30547  1.0000
  F   F4        1.0  0.08218  0.61414  0.80910  1.0000
  F   F5        1.0  0.32852  0.13447  0.30848  1.0000
  F   F6        1.0  0.33154  0.13490  0.79294  1.0000
  F   F7        1.0  0.33400  0.64326  0.29486  1.0000
  F   F8        1.0  0.32985  0.64094  0.79823  1.0000
  F   F9        1.0  0.57814  0.13713  0.30330  1.0000
  F   F10       1.0  0.57923  0.14389  0.79874  1.0000
  F   F11       1.0  0.58716  0.63341  0.29290  1.0000
  F   F12       1.0  0.57419  0.61169  0.82285  1.0000
  F   F13       1.0  0.82974  0.14770  0.29493  1.0000
  F   F14       1.0  0.82462  0.12987  0.80627  1.0000
  F   F15       1.0  0.83747  0.62562  0.29892  1.0000
  F   F16       1.0  0.81996  0.61810  0.81042  1.0000
  F   F17       1.0  0.18142  0.35545  0.44326  1.0000
  F   F18       1.0  0.18606  0.34410  0.94163  1.0000
  F   F19       1.0  0.18315  0.83944  0.45087  1.0000
  F   F20       1.0  0.18475  0.84368  0.95364  1.0000
  F   F21       1.0  0.43487  0.33957  0.44654  1.0000
  F   F22       1.0  0.43228  0.34627  0.94168  1.0000
  F   F23       1.0  0.43565  0.83099  0.45172  1.0000
  F   F24       1.0  0.44772  0.85127  0.93524  1.0000
  F   F25       1.0  0.69310  0.35260  0.43382  1.0000
  F   F26       1.0  0.69536  0.34770  0.93709  1.0000
  F   F27       1.0  0.68886  0.83334  0.44678  1.0000
  F   F28       1.0  0.68218  0.83257  0.95534  1.0000
  F   F29       1.0  0.93736  0.34826  0.43231  1.0000
  F   F30       1.0  0.93340  0.34368  0.94383  1.0000
  F   F31       1.0  0.93421  0.83821  0.44602  1.0000
  F   F32       1.0  0.94396  0.84251  0.94432  1.0000
  F   F33       1.0  0.17715  0.37836  0.19240  1.0000
  F   F34       1.0  0.17448  0.37443  0.68842  1.0000
  F   F35       1.0  0.16483  0.86637  0.21030  1.0000
  F   F36       1.0  0.17442  0.87337  0.69254  1.0000
  F   F37       1.0  0.42054  0.37993  0.19160  1.0000
  F   F38       1.0  0.42712  0.37474  0.68852  1.0000
  F   F39       1.0  0.41955  0.87151  0.19549  1.0000
  F   F40       1.0  0.42346  0.86631  0.69430  1.0000
  F   F41       1.0  0.67211  0.36686  0.19846  1.0000
  F   F42       1.0  0.67178  0.38752  0.67956  1.0000
  F   F43       1.0  0.67080  0.86822  0.20126  1.0000
  F   F44       1.0  0.67147  0.88790  0.69201  1.0000
  F   F45       1.0  0.91722  0.36559  0.19707  1.0000
  F   F46       1.0  0.92757  0.36510  0.69179  1.0000
  F   F47       1.0  0.91979  0.87890  0.19689  1.0000
  F   F48       1.0  0.91355  0.87917  0.69862  1.0000
  F   F49       1.0  0.06800  0.16241  0.04837  1.0000
  F   F50       1.0  0.06800  0.17144  0.54316  1.0000
  F   F51       1.0  0.06627  0.64109  0.05630  1.0000
  F   F52       1.0  0.05449  0.65495  0.56475  1.0000
  F   F53       1.0  0.31084  0.15547  0.05674  1.0000
  F   F54       1.0  0.30938  0.14878  0.56288  1.0000
  F   F55       1.0  0.30887  0.65987  0.05903  1.0000
  F   F56       1.0  0.31505  0.66073  0.54615  1.0000
  F   F57       1.0  0.56206  0.14194  0.06971  1.0000
  F   F58       1.0  0.56578  0.16500  0.55376  1.0000
  F   F59       1.0  0.57344  0.65899  0.04118  1.0000
  F   F60       1.0  0.56729  0.66740  0.55987  1.0000
  F   F61       1.0  0.81255  0.15015  0.05333  1.0000
  F   F62       1.0  0.80766  0.15258  0.56041  1.0000
  F   F63       1.0  0.81149  0.66906  0.06302  1.0000
  F   F64       1.0  0.80909  0.64575  0.55631  1.0000
  F   F65       1.0  0.20371  0.20597  0.22076  1.0000
  F   F66       1.0  0.19687  0.19934  0.71531  1.0000
  F   F67       1.0  0.19981  0.70059  0.22808  1.0000
  F   F68       1.0  0.20121  0.70257  0.70382  1.0000
  F   F69       1.0  0.44624  0.21244  0.22041  1.0000
  F   F70       1.0  0.44926  0.20377  0.72096  1.0000
  F   F71       1.0  0.45077  0.69535  0.21470  1.0000
  F   F72       1.0  0.45175  0.69239  0.71136  1.0000
  F   F73       1.0  0.71212  0.19416  0.22287  1.0000
  F   F74       1.0  0.69842  0.19547  0.71882  1.0000
  F   F75       1.0  0.70101  0.69329  0.21609  1.0000
  F   F76       1.0  0.70369  0.70268  0.71047  1.0000
  F   F77       1.0  0.95750  0.18556  0.19940  1.0000
  F   F78       1.0  0.95372  0.20586  0.71349  1.0000
  F   F79       1.0  0.94106  0.70204  0.21487  1.0000
  F   F80       1.0  0.95678  0.70360  0.71385  1.0000
  F   F81       1.0  0.15040  0.08720  0.04681  1.0000
  F   F82       1.0  0.14144  0.08362  0.54489  1.0000
  F   F83       1.0  0.16188  0.60176  0.02747  1.0000
  F   F84       1.0  0.14951  0.59182  0.52988  1.0000
  F   F85       1.0  0.39559  0.10200  0.03929  1.0000
  F   F86       1.0  0.39838  0.08741  0.54017  1.0000
  F   F87       1.0  0.40010  0.59144  0.04033  1.0000
  F   F88       1.0  0.39947  0.59610  0.53599  1.0000
  F   F89       1.0  0.65115  0.10661  0.03843  1.0000
  F   F90       1.0  0.64281  0.08220  0.54785  1.0000
  F   F91       1.0  0.64754  0.58159  0.03351  1.0000
  F   F92       1.0  0.65543  0.59441  0.54071  1.0000
  F   F93       1.0  0.89760  0.08282  0.03299  1.0000
  F   F94       1.0  0.89630  0.09341  0.53008  1.0000
  F   F95       1.0  0.89681  0.58836  0.03064  1.0000
  F   F96       1.0  0.89581  0.62191  0.54166  1.0000
  F   F97       1.0  0.15179  0.19857  0.12422  1.0000
  F   F98       1.0  0.15467  0.19416  0.61406  1.0000
  F   F99       1.0  0.14865  0.70688  0.12339  1.0000
  F   F100      1.0  0.14385  0.70145  0.63147  1.0000
  F   F101      1.0  0.40032  0.20542  0.12952  1.0000
  F   F102      1.0  0.39642  0.20142  0.62762  1.0000
  F   F103      1.0  0.39945  0.70099  0.11151  1.0000
  F   F104      1.0  0.39869  0.69941  0.63193  1.0000
  F   F105      1.0  0.64812  0.22087  0.13804  1.0000
  F   F106      1.0  0.65202  0.20764  0.61493  1.0000
  F   F107      1.0  0.65608  0.68470  0.11083  1.0000
  F   F108      1.0  0.64564  0.70199  0.64041  1.0000
  F   F109      1.0  0.90353  0.18220  0.12571  1.0000
  F   F110      1.0  0.90613  0.19014  0.62242  1.0000
  F   F111      1.0  0.89804  0.69910  0.11159  1.0000
  F   F112      1.0  0.90093  0.70848  0.63642  1.0000
  F   F113      1.0  0.09463  0.32041  0.36866  1.0000
  F   F114      1.0  0.09753  0.30702  0.87268  1.0000
  F   F115      1.0  0.08907  0.80042  0.36300  1.0000
  F   F116      1.0  0.10315  0.78997  0.87358  1.0000
  F   F117      1.0  0.35122  0.30329  0.38293  1.0000
  F   F118      1.0  0.35324  0.30691  0.85326  1.0000
  F   F119      1.0  0.35378  0.79764  0.37265  1.0000
  F   F120      1.0  0.34413  0.80990  0.88451  1.0000
  F   F121      1.0  0.59538  0.31613  0.37363  1.0000
  F   F122      1.0  0.59644  0.30265  0.88380  1.0000
  F   F123      1.0  0.59828  0.81306  0.37611  1.0000
  F   F124      1.0  0.59392  0.81833  0.87388  1.0000
  F   F125      1.0  0.84811  0.29697  0.38444  1.0000
  F   F126      1.0  0.85050  0.30698  0.86202  1.0000
  F   F127      1.0  0.84725  0.79347  0.37462  1.0000
  F   F128      1.0  0.84699  0.80340  0.87277  1.0000
  F   F129      1.0  0.06341  0.24856  0.13613  1.0000
  F   F130      1.0  0.06047  0.24574  0.65255  1.0000
  F   F131      1.0  0.06323  0.74294  0.15421  1.0000
  F   F132      1.0  0.06536  0.75312  0.63585  1.0000
  F   F133      1.0  0.31370  0.25870  0.14564  1.0000
  F   F134      1.0  0.31764  0.25844  0.62119  1.0000
  F   F135      1.0  0.30958  0.74798  0.14910  1.0000
  F   F136      1.0  0.31610  0.75394  0.62623  1.0000
  F   F137      1.0  0.56422  0.25045  0.14489  1.0000
  F   F138      1.0  0.56557  0.25744  0.64759  1.0000
  F   F139      1.0  0.56563  0.75266  0.14279  1.0000
  F   F140      1.0  0.56107  0.74688  0.66435  1.0000
  F   F141      1.0  0.81902  0.24093  0.13943  1.0000
  F   F142      1.0  0.81957  0.24489  0.63666  1.0000
  F   F143      1.0  0.80371  0.75244  0.16580  1.0000
  F   F144      1.0  0.81091  0.74656  0.64617  1.0000
  F   F145      1.0  0.11854  0.36026  0.11595  1.0000
  F   F146      1.0  0.12819  0.35692  0.61341  1.0000
  F   F147      1.0  0.12314  0.87086  0.11170  1.0000
  F   F148      1.0  0.12269  0.88156  0.60785  1.0000
  F   F149      1.0  0.37232  0.38225  0.09854  1.0000
  F   F150      1.0  0.37541  0.36780  0.61554  1.0000
  F   F151      1.0  0.37282  0.86857  0.11389  1.0000
  F   F152      1.0  0.37511  0.88022  0.61012  1.0000
  F   F153      1.0  0.63106  0.40142  0.09168  1.0000
  F   F154      1.0  0.62420  0.35806  0.61099  1.0000
  F   F155      1.0  0.62204  0.84494  0.13451  1.0000
  F   F156      1.0  0.62694  0.87326  0.60805  1.0000
  F   F157      1.0  0.87175  0.36265  0.10460  1.0000
  F   F158      1.0  0.87488  0.35771  0.62166  1.0000
  F   F159      1.0  0.87910  0.86895  0.11033  1.0000
  F   F160      1.0  0.87309  0.89547  0.59334  1.0000
  F   F161      1.0  0.17825  0.24497  0.37912  1.0000
  F   F162      1.0  0.18726  0.24543  0.86229  1.0000
  F   F163      1.0  0.18516  0.74497  0.36277  1.0000
  F   F164      1.0  0.19198  0.75322  0.84164  1.0000
  F   F165      1.0  0.43180  0.25280  0.36327  1.0000
  F   F166      1.0  0.44606  0.26015  0.83893  1.0000
  F   F167      1.0  0.44306  0.74943  0.33951  1.0000
  F   F168      1.0  0.43570  0.76011  0.84699  1.0000
  F   F169      1.0  0.67397  0.23906  0.38075  1.0000
  F   F170      1.0  0.69212  0.25740  0.85271  1.0000
  F   F171      1.0  0.68430  0.74515  0.37019  1.0000
  F   F172      1.0  0.68409  0.75345  0.84765  1.0000
  F   F173      1.0  0.93349  0.25205  0.34507  1.0000
  F   F174      1.0  0.92822  0.24348  0.86919  1.0000
  F   F175      1.0  0.93586  0.74708  0.35481  1.0000
  F   F176      1.0  0.93004  0.74868  0.86191  1.0000
  F   F177      1.0  0.12324  0.13513  0.38922  1.0000
  F   F178      1.0  0.12035  0.12908  0.89777  1.0000
  F   F179      1.0  0.12007  0.62378  0.39269  1.0000
  F   F180      1.0  0.12776  0.62050  0.90438  1.0000
  F   F181      1.0  0.37747  0.13756  0.39891  1.0000
  F   F182      1.0  0.37411  0.14256  0.89442  1.0000
  F   F183      1.0  0.37390  0.61693  0.39976  1.0000
  F   F184      1.0  0.37752  0.64682  0.88710  1.0000
  F   F185      1.0  0.62181  0.12129  0.39806  1.0000
  F   F186      1.0  0.62414  0.12749  0.89616  1.0000
  F   F187      1.0  0.62585  0.64242  0.38759  1.0000
  F   F188      1.0  0.62959  0.65798  0.87248  1.0000
  F   F189      1.0  0.87428  0.13692  0.39019  1.0000
  F   F190      1.0  0.87116  0.12404  0.88884  1.0000
  F   F191      1.0  0.87495  0.60833  0.42013  1.0000
  F   F192      1.0  0.87379  0.63246  0.88240  1.0000
  F   F193      1.0  0.00209  0.36127  0.08081  1.0000
  F   F194      1.0  0.00839  0.36701  0.55161  1.0000
  F   F195      1.0  0.00797  0.85943  0.07455  1.0000
  F   F196      1.0  0.00823  0.86152  0.57978  1.0000
  F   F197      1.0  0.25969  0.35836  0.07069  1.0000
  F   F198      1.0  0.26020  0.35527  0.57252  1.0000
  F   F199      1.0  0.25265  0.85300  0.09991  1.0000
  F   F200      1.0  0.25597  0.86817  0.57968  1.0000
  F   F201      1.0  0.50963  0.36138  0.08148  1.0000
  F   F202      1.0  0.51222  0.36281  0.56553  1.0000
  F   F203      1.0  0.50257  0.85741  0.08479  1.0000
  F   F204      1.0  0.51105  0.85924  0.56760  1.0000
  F   F205      1.0  0.75698  0.35503  0.08008  1.0000
  F   F206      1.0  0.75660  0.36716  0.57859  1.0000
  F   F207      1.0  0.75264  0.86990  0.07326  1.0000
  F   F208      1.0  0.75473  0.86553  0.57897  1.0000
  F   F209      1.0  0.06464  0.47848  0.17990  1.0000
  F   F210      1.0  0.07061  0.49556  0.65443  1.0000
  F   F211      1.0  0.07136  0.98196  0.18046  1.0000
  F   F212      1.0  0.06061  0.97673  0.68970  1.0000
  F   F213      1.0  0.32474  0.48927  0.17046  1.0000
  F   F214      1.0  0.32108  0.48387  0.67003  1.0000
  F   F215      1.0  0.31993  0.98551  0.17951  1.0000
  F   F216      1.0  0.31463  0.99019  0.67666  1.0000
  F   F217      1.0  0.56585  0.48642  0.19498  1.0000
  F   F218      1.0  0.57656  0.49735  0.66156  1.0000
  F   F219      1.0  0.57468  0.97851  0.16003  1.0000
  F   F220      1.0  0.57037  0.98871  0.67494  1.0000
  F   F221      1.0  0.82480  0.48973  0.16715  1.0000
  F   F222      1.0  0.82162  0.48484  0.67412  1.0000
  F   F223      1.0  0.81936  0.97895  0.17655  1.0000
  F   F224      1.0  0.81638  0.98405  0.66612  1.0000
  F   F225      1.0  0.24174  0.13150  0.42128  1.0000
  F   F226      1.0  0.24226  0.13631  0.91745  1.0000
  F   F227      1.0  0.24272  0.64591  0.41350  1.0000
  F   F228      1.0  0.24552  0.63629  0.92431  1.0000
  F   F229      1.0  0.49172  0.15126  0.42061  1.0000
  F   F230      1.0  0.49169  0.14981  0.92569  1.0000
  F   F231      1.0  0.49776  0.63741  0.41198  1.0000
  F   F232      1.0  0.48628  0.64538  0.92934  1.0000
  F   F233      1.0  0.74012  0.14308  0.42869  1.0000
  F   F234      1.0  0.74524  0.13430  0.91516  1.0000
  F   F235      1.0  0.74683  0.64777  0.41186  1.0000
  F   F236      1.0  0.73733  0.63384  0.93441  1.0000
  F   F237      1.0  0.99199  0.13614  0.42205  1.0000
  F   F238      1.0  0.99037  0.13866  0.93810  1.0000
  F   F239      1.0  0.99292  0.62865  0.41849  1.0000
  F   F240      1.0  0.99099  0.64652  0.91606  1.0000
  F   F241      1.0  0.17599  0.01287  0.33672  1.0000
  F   F242      1.0  0.17231  0.01963  0.82439  1.0000
  F   F243      1.0  0.18107  0.51556  0.31981  1.0000
  F   F244      1.0  0.18720  0.50909  0.82817  1.0000
  F   F245      1.0  0.43022  0.01673  0.32398  1.0000
  F   F246      1.0  0.43034  0.01802  0.83261  1.0000
  F   F247      1.0  0.43965  0.51136  0.32185  1.0000
  F   F248      1.0  0.42427  0.51346  0.83604  1.0000
  F   F249      1.0  0.68676  0.01255  0.31373  1.0000
  F   F250      1.0  0.68470  0.01272  0.81388  1.0000
  F   F251      1.0  0.68048  0.51759  0.32759  1.0000
  F   F252      1.0  0.67925  0.51698  0.83261  1.0000
  F   F253      1.0  0.92123  0.01313  0.33079  1.0000
  F   F254      1.0  0.92589  0.00878  0.84339  1.0000
  F   F255      1.0  0.93316  0.52104  0.31891  1.0000
  F   F256      1.0  0.93276  0.51782  0.81590  1.0000
  F   F257      1.0  0.00033  0.24083  0.00609  1.0000
  F   F258      1.0  0.99311  0.23760  0.50649  1.0000
  F   F259      1.0  0.00195  0.73990  0.99246  1.0000
  F   F260      1.0  0.99332  0.74202  0.50319  1.0000
  F   F261      1.0  0.24961  0.24669  0.00964  1.0000
  F   F262      1.0  0.25536  0.25753  0.48914  1.0000
  F   F263      1.0  0.24663  0.76576  0.99347  1.0000
  F   F264      1.0  0.25171  0.75908  0.50104  1.0000
  F   F265      1.0  0.50308  0.24260  0.01933  1.0000
  F   F266      1.0  0.49824  0.24211  0.50949  1.0000
  F   F267      1.0  0.49794  0.73172  0.01741  1.0000
  F   F268      1.0  0.49314  0.73130  0.51048  1.0000
  F   F269      1.0  0.75271  0.25806  0.98938  1.0000
  F   F270      1.0  0.75442  0.27179  0.48652  1.0000
  F   F271      1.0  0.75013  0.73541  0.01138  1.0000
  F   F272      1.0  0.75257  0.75195  0.50043  1.0000
  F   F273      1.0  0.12770  0.00493  0.24756  1.0000
  F   F274      1.0  0.11937  0.99232  0.76389  1.0000
  F   F275      1.0  0.11900  0.49901  0.25188  1.0000
  F   F276      1.0  0.13033  0.50139  0.74310  1.0000
  F   F277      1.0  0.37607  0.00451  0.24799  1.0000
  F   F278      1.0  0.37460  0.99361  0.75300  1.0000
  F   F279      1.0  0.37997  0.50936  0.23663  1.0000
  F   F280      1.0  0.37762  0.50141  0.75275  1.0000
  F   F281      1.0  0.62494  0.00560  0.25547  1.0000
  F   F282      1.0  0.62036  0.00314  0.75819  1.0000
  F   F283      1.0  0.63265  0.49395  0.24663  1.0000
  F   F284      1.0  0.62197  0.48757  0.76119  1.0000
  F   F285      1.0  0.86224  0.99050  0.27015  1.0000
  F   F286      1.0  0.88021  0.00097  0.73903  1.0000
  F   F287      1.0  0.87457  0.49882  0.24815  1.0000
  F   F288      1.0  0.87301  0.49865  0.74280  1.0000
  F   F289      1.0  0.04181  0.02366  0.03320  1.0000
  F   F290      1.0  0.04984  0.03792  0.51377  1.0000
  F   F291      1.0  0.04042  0.52685  0.00869  1.0000
  F   F292      1.0  0.04100  0.52523  0.52383  1.0000
  F   F293      1.0  0.30075  0.03040  0.00315  1.0000
  F   F294      1.0  0.29677  0.03525  0.51034  1.0000
  F   F295      1.0  0.29152  0.53959  0.01556  1.0000
  F   F296      1.0  0.28751  0.52075  0.52923  1.0000
  F   F297      1.0  0.54341  0.02695  0.01378  1.0000
  F   F298      1.0  0.54440  0.03272  0.52885  1.0000
  F   F299      1.0  0.54473  0.53165  0.03687  1.0000
  F   F300      1.0  0.54861  0.54295  0.52611  1.0000
  F   F301      1.0  0.79440  0.03116  0.02799  1.0000
  F   F302      1.0  0.79460  0.02521  0.52055  1.0000
  F   F303      1.0  0.79427  0.53299  0.02987  1.0000
  F   F304      1.0  0.78672  0.52862  0.51874  1.0000
  F   F305      1.0  0.23775  0.41732  0.22198  1.0000
  F   F306      1.0  0.23733  0.39664  0.73123  1.0000
  F   F307      1.0  0.23288  0.92128  0.22325  1.0000
  F   F308      1.0  0.23083  0.91656  0.73080  1.0000
  F   F309      1.0  0.48768  0.40153  0.23092  1.0000
  F   F310      1.0  0.48597  0.45163  0.71240  1.0000
  F   F311      1.0  0.48762  0.93396  0.21071  1.0000
  F   F312      1.0  0.49137  0.91011  0.72212  1.0000
  F   F313      1.0  0.73814  0.42417  0.22300  1.0000
  F   F314      1.0  0.73517  0.42759  0.71508  1.0000
  F   F315      1.0  0.73618  0.91142  0.22828  1.0000
  F   F316      1.0  0.73170  0.90767  0.72327  1.0000
  F   F317      1.0  0.98357  0.41665  0.22467  1.0000
  F   F318      1.0  0.98684  0.42640  0.72664  1.0000
  F   F319      1.0  0.98365  0.91238  0.23382  1.0000
  F   F320      1.0  0.97609  0.91698  0.73011  1.0000
  F   F321      1.0  0.21816  0.46961  0.46085  1.0000
  F   F322      1.0  0.20870  0.46569  0.97283  1.0000
  F   F323      1.0  0.20173  0.97758  0.47764  1.0000
  F   F324      1.0  0.21483  0.97255  0.97364  1.0000
  F   F325      1.0  0.45713  0.46859  0.47515  1.0000
  F   F326      1.0  0.46129  0.46854  0.97097  1.0000
  F   F327      1.0  0.46116  0.97341  0.47121  1.0000
  F   F328      1.0  0.45335  0.97658  0.98314  1.0000
  F   F329      1.0  0.70276  0.46885  0.48355  1.0000
  F   F330      1.0  0.71676  0.47651  0.96986  1.0000
  F   F331      1.0  0.70324  0.97474  0.48481  1.0000
  F   F332      1.0  0.70208  0.96998  0.97661  1.0000
  F   F333      1.0  0.94632  0.47232  0.49731  1.0000
  F   F334      1.0  0.95709  0.46156  0.96669  1.0000
  F   F335      1.0  0.96046  0.95914  0.46780  1.0000
  F   F336      1.0  0.96795  0.97443  0.96723  1.0000
  F   F337      1.0  0.01099  0.08784  0.25394  1.0000
  F   F338      1.0  0.01242  0.08735  0.76790  1.0000
  F   F339      1.0  0.01356  0.60049  0.24729  1.0000
  F   F340      1.0  0.01962  0.57552  0.76988  1.0000
  F   F341      1.0  0.26498  0.09104  0.26830  1.0000
  F   F342      1.0  0.26152  0.10670  0.75809  1.0000
  F   F343      1.0  0.26399  0.57954  0.27653  1.0000
  F   F344      1.0  0.26905  0.58806  0.76728  1.0000
  F   F345      1.0  0.51947  0.08690  0.27163  1.0000
  F   F346      1.0  0.51257  0.10120  0.77260  1.0000
  F   F347      1.0  0.51450  0.58305  0.27130  1.0000
  F   F348      1.0  0.51552  0.58144  0.76974  1.0000
  F   F349      1.0  0.76567  0.07869  0.28357  1.0000
  F   F350      1.0  0.76270  0.09611  0.75757  1.0000
  F   F351      1.0  0.76517  0.58901  0.28085  1.0000
  F   F352      1.0  0.76383  0.59254  0.76055  1.0000
  F   F353      1.0  0.09873  0.41276  0.46543  1.0000
  F   F354      1.0  0.10160  0.41235  0.95937  1.0000
  F   F355      1.0  0.09766  0.89513  0.46144  1.0000
  F   F356      1.0  0.09478  0.88831  0.97412  1.0000
  F   F357      1.0  0.35084  0.42171  0.45450  1.0000
  F   F358      1.0  0.34494  0.40179  0.96113  1.0000
  F   F359      1.0  0.35366  0.90878  0.45446  1.0000
  F   F360      1.0  0.35501  0.90052  0.96704  1.0000
  F   F361      1.0  0.60824  0.41212  0.45304  1.0000
  F   F362      1.0  0.60481  0.40009  0.96245  1.0000
  F   F363      1.0  0.60073  0.88886  0.47631  1.0000
  F   F364      1.0  0.60521  0.91162  0.97669  1.0000
  F   F365      1.0  0.85259  0.40156  0.47076  1.0000
  F   F366      1.0  0.84540  0.40308  0.95882  1.0000
  F   F367      1.0  0.84836  0.89578  0.45707  1.0000
  F   F368      1.0  0.84739  0.90283  0.96448  1.0000
  F   F369      1.0  0.03987  0.29899  0.28202  1.0000
  F   F370      1.0  0.04810  0.29960  0.78887  1.0000
  F   F371      1.0  0.03573  0.78521  0.29434  1.0000
  F   F372      1.0  0.05015  0.79776  0.78388  1.0000
  F   F373      1.0  0.29731  0.30699  0.29692  1.0000
  F   F374      1.0  0.30018  0.29418  0.78128  1.0000
  F   F375      1.0  0.29373  0.80399  0.29193  1.0000
  F   F376      1.0  0.29048  0.80949  0.78586  1.0000
  F   F377      1.0  0.55286  0.30446  0.29137  1.0000
  F   F378      1.0  0.54159  0.30825  0.79745  1.0000
  F   F379      1.0  0.53973  0.79737  0.30415  1.0000
  F   F380      1.0  0.55015  0.81017  0.79289  1.0000
  F   F381      1.0  0.79750  0.30402  0.28457  1.0000
  F   F382      1.0  0.78775  0.30201  0.78950  1.0000
  F   F383      1.0  0.79864  0.80200  0.28600  1.0000
  F   F384      1.0  0.79804  0.79135  0.78457  1.0000
