data_image0
_chemical_formula_structural       Hf96F384
_chemical_formula_sum              "Hf96 F384"
_cell_length_a       31.0586
_cell_length_b       15.5251
_cell_length_c       15.52
_cell_angle_alpha    63.342
_cell_angle_beta     63.342
_cell_angle_gamma    80.1625

_space_group_name_H-M_alt    "P 1"
_space_group_IT_number       1

loop_
  _space_group_symop_operation_xyz
  'x, y, z'

loop_
  _atom_site_type_symbol
  _atom_site_label
  _atom_site_symmetry_multiplicity
  _atom_site_fract_x
  _atom_site_fract_y
  _atom_site_fract_z
  _atom_site_occupancy
  Hf  Hf1       1.0  0.19544  0.10496  0.36717  1.0000
  Hf  Hf2       1.0  0.19615  0.12079  0.86150  1.0000
  Hf  Hf3       1.0  0.19968  0.60685  0.36598  1.0000
  Hf  Hf4       1.0  0.19398  0.60975  0.86985  1.0000
  Hf  Hf5       1.0  0.44393  0.11016  0.37914  1.0000
  Hf  Hf6       1.0  0.44573  0.10676  0.87528  1.0000
  Hf  Hf7       1.0  0.44572  0.60477  0.37832  1.0000
  Hf  Hf8       1.0  0.44811  0.61090  0.86812  1.0000
  Hf  Hf9       1.0  0.69424  0.10594  0.38379  1.0000
  Hf  Hf10      1.0  0.69992  0.09606  0.88451  1.0000
  Hf  Hf11      1.0  0.69810  0.60500  0.37433  1.0000
  Hf  Hf12      1.0  0.69696  0.60552  0.87251  1.0000
  Hf  Hf13      1.0  0.94240  0.10621  0.37725  1.0000
  Hf  Hf14      1.0  0.94822  0.09731  0.88387  1.0000
  Hf  Hf15      1.0  0.94798  0.60953  0.36959  1.0000
  Hf  Hf16      1.0  0.94573  0.60967  0.87766  1.0000
  Hf  Hf17      1.0  0.04923  0.39688  0.12280  1.0000
  Hf  Hf18      1.0  0.05565  0.39979  0.62023  1.0000
  Hf  Hf19      1.0  0.05803  0.89735  0.12098  1.0000
  Hf  Hf20      1.0  0.04553  0.89596  0.63366  1.0000
  Hf  Hf21      1.0  0.30849  0.40129  0.11039  1.0000
  Hf  Hf22      1.0  0.30165  0.39926  0.61723  1.0000
  Hf  Hf23      1.0  0.30516  0.90321  0.12436  1.0000
  Hf  Hf24      1.0  0.30085  0.89090  0.62512  1.0000
  Hf  Hf25      1.0  0.55451  0.39265  0.13017  1.0000
  Hf  Hf26      1.0  0.55595  0.39696  0.62495  1.0000
  Hf  Hf27      1.0  0.55296  0.88224  0.12609  1.0000
  Hf  Hf28      1.0  0.55298  0.88361  0.63287  1.0000
  Hf  Hf29      1.0  0.80378  0.38882  0.11911  1.0000
  Hf  Hf30      1.0  0.80529  0.39176  0.62073  1.0000
  Hf  Hf31      1.0  0.80472  0.89205  0.11583  1.0000
  Hf  Hf32      1.0  0.80458  0.89212  0.63360  1.0000
  Hf  Hf33      1.0  0.05220  0.18272  0.41482  1.0000
  Hf  Hf34      1.0  0.05083  0.18699  0.91948  1.0000
  Hf  Hf35      1.0  0.05968  0.67615  0.41285  1.0000
  Hf  Hf36      1.0  0.05220  0.68441  0.92346  1.0000
  Hf  Hf37      1.0  0.30434  0.17892  0.41895  1.0000
  Hf  Hf38      1.0  0.30434  0.19593  0.91474  1.0000
  Hf  Hf39      1.0  0.30893  0.68234  0.41009  1.0000
  Hf  Hf40      1.0  0.30741  0.68845  0.91463  1.0000
  Hf  Hf41      1.0  0.55224  0.18052  0.42418  1.0000
  Hf  Hf42      1.0  0.56136  0.17763  0.91928  1.0000
  Hf  Hf43      1.0  0.55941  0.68952  0.40700  1.0000
  Hf  Hf44      1.0  0.55877  0.67955  0.91462  1.0000
  Hf  Hf45      1.0  0.80025  0.18138  0.42599  1.0000
  Hf  Hf46      1.0  0.80908  0.18507  0.91790  1.0000
  Hf  Hf47      1.0  0.80816  0.69049  0.40626  1.0000
  Hf  Hf48      1.0  0.80116  0.68349  0.91440  1.0000
  Hf  Hf49      1.0  0.16340  0.39497  0.32198  1.0000
  Hf  Hf50      1.0  0.15164  0.39816  0.82957  1.0000
  Hf  Hf51      1.0  0.16021  0.88439  0.33715  1.0000
  Hf  Hf52      1.0  0.15837  0.87772  0.84007  1.0000
  Hf  Hf53      1.0  0.40932  0.39115  0.32634  1.0000
  Hf  Hf54      1.0  0.40925  0.38840  0.82699  1.0000
  Hf  Hf55      1.0  0.41297  0.89122  0.32858  1.0000
  Hf  Hf56      1.0  0.40735  0.89036  0.83750  1.0000
  Hf  Hf57      1.0  0.65802  0.37912  0.33874  1.0000
  Hf  Hf58      1.0  0.66220  0.38546  0.83097  1.0000
  Hf  Hf59      1.0  0.65766  0.88433  0.33627  1.0000
  Hf  Hf60      1.0  0.65860  0.88137  0.83872  1.0000
  Hf  Hf61      1.0  0.90550  0.38163  0.34025  1.0000
  Hf  Hf62      1.0  0.91423  0.38463  0.82919  1.0000
  Hf  Hf63      1.0  0.91028  0.88307  0.34122  1.0000
  Hf  Hf64      1.0  0.90796  0.89013  0.82504  1.0000
  Hf  Hf65      1.0  0.18922  0.31744  0.08315  1.0000
  Hf  Hf66      1.0  0.19169  0.32416  0.57787  1.0000
  Hf  Hf67      1.0  0.19862  0.82275  0.07748  1.0000
  Hf  Hf68      1.0  0.18732  0.81338  0.59139  1.0000
  Hf  Hf69      1.0  0.44604  0.32426  0.07920  1.0000
  Hf  Hf70      1.0  0.44490  0.31795  0.57991  1.0000
  Hf  Hf71      1.0  0.44675  0.81648  0.08436  1.0000
  Hf  Hf72      1.0  0.44150  0.82090  0.58448  1.0000
  Hf  Hf73      1.0  0.69500  0.31654  0.08335  1.0000
  Hf  Hf74      1.0  0.69562  0.31538  0.58574  1.0000
  Hf  Hf75      1.0  0.69451  0.81284  0.09825  1.0000
  Hf  Hf76      1.0  0.69525  0.81732  0.58656  1.0000
  Hf  Hf77      1.0  0.93831  0.31145  0.08862  1.0000
  Hf  Hf78      1.0  0.94262  0.32089  0.57927  1.0000
  Hf  Hf79      1.0  0.94498  0.81748  0.08226  1.0000
  Hf  Hf80      1.0  0.94648  0.80455  0.58197  1.0000
  Hf  Hf81      1.0  0.08761  0.11537  0.16678  1.0000
  Hf  Hf82      1.0  0.09673  0.11281  0.65996  1.0000
  Hf  Hf83      1.0  0.09271  0.61247  0.16860  1.0000
  Hf  Hf84      1.0  0.08263  0.62001  0.67055  1.0000
  Hf  Hf85      1.0  0.34143  0.11328  0.16596  1.0000
  Hf  Hf86      1.0  0.33768  0.11503  0.67120  1.0000
  Hf  Hf87      1.0  0.34113  0.62389  0.15540  1.0000
  Hf  Hf88      1.0  0.33714  0.61289  0.67080  1.0000
  Hf  Hf89      1.0  0.59261  0.10506  0.17174  1.0000
  Hf  Hf90      1.0  0.59199  0.11581  0.66688  1.0000
  Hf  Hf91      1.0  0.59766  0.60338  0.17515  1.0000
  Hf  Hf92      1.0  0.59153  0.60452  0.66850  1.0000
  Hf  Hf93      1.0  0.83920  0.10320  0.17543  1.0000
  Hf  Hf94      1.0  0.84008  0.11729  0.67028  1.0000
  Hf  Hf95      1.0  0.84161  0.60722  0.16235  1.0000
  Hf  Hf96      1.0  0.84053  0.60379  0.66747  1.0000
  F   F1        1.0  0.07447  0.13470  0.29577  1.0000
  F   F2        1.0  0.08097  0.11614  0.81272  1.0000
  F   F3        1.0  0.07631  0.61658  0.30468  1.0000
  F   F4        1.0  0.07126  0.62636  0.80898  1.0000
  F   F5        1.0  0.32639  0.11840  0.30346  1.0000
  F   F6        1.0  0.32658  0.13067  0.80270  1.0000
  F   F7        1.0  0.33396  0.63301  0.29451  1.0000
  F   F8        1.0  0.32999  0.64065  0.80488  1.0000
  F   F9        1.0  0.57398  0.11190  0.31453  1.0000
  F   F10       1.0  0.57010  0.11109  0.82206  1.0000
  F   F11       1.0  0.58334  0.62581  0.30782  1.0000
  F   F12       1.0  0.58670  0.62892  0.79585  1.0000
  F   F13       1.0  0.82461  0.10771  0.31978  1.0000
  F   F14       1.0  0.83127  0.13220  0.80090  1.0000
  F   F15       1.0  0.82987  0.62171  0.30749  1.0000
  F   F16       1.0  0.82440  0.61943  0.80891  1.0000
  F   F17       1.0  0.18634  0.34516  0.44524  1.0000
  F   F18       1.0  0.17681  0.35104  0.95124  1.0000
  F   F19       1.0  0.17915  0.82966  0.46227  1.0000
  F   F20       1.0  0.18370  0.84904  0.94365  1.0000
  F   F21       1.0  0.42953  0.33300  0.45154  1.0000
  F   F22       1.0  0.43431  0.34598  0.94665  1.0000
  F   F23       1.0  0.43164  0.84079  0.45316  1.0000
  F   F24       1.0  0.42332  0.83274  0.95983  1.0000
  F   F25       1.0  0.68596  0.33983  0.45133  1.0000
  F   F26       1.0  0.69962  0.34674  0.93512  1.0000
  F   F27       1.0  0.67857  0.85026  0.45240  1.0000
  F   F28       1.0  0.68759  0.84177  0.95133  1.0000
  F   F29       1.0  0.93651  0.34816  0.44236  1.0000
  F   F30       1.0  0.93289  0.34424  0.94702  1.0000
  F   F31       1.0  0.93947  0.83515  0.44498  1.0000
  F   F32       1.0  0.92390  0.82212  0.95880  1.0000
  F   F33       1.0  0.17339  0.35986  0.19564  1.0000
  F   F34       1.0  0.16428  0.37852  0.69440  1.0000
  F   F35       1.0  0.17092  0.85682  0.20833  1.0000
  F   F36       1.0  0.16416  0.85274  0.71176  1.0000
  F   F37       1.0  0.42478  0.40947  0.17993  1.0000
  F   F38       1.0  0.42046  0.38517  0.68444  1.0000
  F   F39       1.0  0.42485  0.88521  0.18611  1.0000
  F   F40       1.0  0.41975  0.86769  0.70271  1.0000
  F   F41       1.0  0.67296  0.36741  0.19953  1.0000
  F   F42       1.0  0.67559  0.37895  0.68553  1.0000
  F   F43       1.0  0.67183  0.87671  0.19660  1.0000
  F   F44       1.0  0.67231  0.87433  0.69609  1.0000
  F   F45       1.0  0.91312  0.35509  0.21053  1.0000
  F   F46       1.0  0.92841  0.38711  0.68423  1.0000
  F   F47       1.0  0.92331  0.85877  0.20408  1.0000
  F   F48       1.0  0.92661  0.87308  0.68825  1.0000
  F   F49       1.0  0.06212  0.16841  0.05121  1.0000
  F   F50       1.0  0.06200  0.15046  0.55306  1.0000
  F   F51       1.0  0.06209  0.65700  0.05961  1.0000
  F   F52       1.0  0.05747  0.65741  0.55265  1.0000
  F   F53       1.0  0.32183  0.17423  0.04133  1.0000
  F   F54       1.0  0.31492  0.16458  0.55461  1.0000
  F   F55       1.0  0.30210  0.66679  0.06810  1.0000
  F   F56       1.0  0.31273  0.66222  0.55369  1.0000
  F   F57       1.0  0.56868  0.15645  0.05091  1.0000
  F   F58       1.0  0.56707  0.15694  0.55598  1.0000
  F   F59       1.0  0.56118  0.64320  0.05470  1.0000
  F   F60       1.0  0.56854  0.67044  0.54611  1.0000
  F   F61       1.0  0.81441  0.15660  0.06224  1.0000
  F   F62       1.0  0.81356  0.15825  0.55497  1.0000
  F   F63       1.0  0.82137  0.66398  0.03882  1.0000
  F   F64       1.0  0.81695  0.64945  0.54619  1.0000
  F   F65       1.0  0.19953  0.19921  0.20628  1.0000
  F   F66       1.0  0.21262  0.19637  0.69832  1.0000
  F   F67       1.0  0.20887  0.69963  0.20781  1.0000
  F   F68       1.0  0.20060  0.70347  0.71586  1.0000
  F   F69       1.0  0.44060  0.20569  0.20807  1.0000
  F   F70       1.0  0.46287  0.20286  0.71622  1.0000
  F   F71       1.0  0.46014  0.69976  0.22005  1.0000
  F   F72       1.0  0.45566  0.69301  0.70577  1.0000
  F   F73       1.0  0.69708  0.20727  0.21350  1.0000
  F   F74       1.0  0.70634  0.19500  0.71890  1.0000
  F   F75       1.0  0.70436  0.70103  0.21927  1.0000
  F   F76       1.0  0.70616  0.69443  0.71250  1.0000
  F   F77       1.0  0.95852  0.19914  0.21091  1.0000
  F   F78       1.0  0.94043  0.20609  0.70870  1.0000
  F   F79       1.0  0.95654  0.70247  0.21040  1.0000
  F   F80       1.0  0.95715  0.69744  0.70328  1.0000
  F   F81       1.0  0.14367  0.10142  0.02315  1.0000
  F   F82       1.0  0.15024  0.10228  0.52689  1.0000
  F   F83       1.0  0.14819  0.59800  0.03225  1.0000
  F   F84       1.0  0.13999  0.59555  0.54910  1.0000
  F   F85       1.0  0.39699  0.08148  0.03312  1.0000
  F   F86       1.0  0.39925  0.10906  0.52199  1.0000
  F   F87       1.0  0.39772  0.61640  0.03721  1.0000
  F   F88       1.0  0.40064  0.59395  0.52806  1.0000
  F   F89       1.0  0.65245  0.08840  0.03800  1.0000
  F   F90       1.0  0.65245  0.09090  0.53779  1.0000
  F   F91       1.0  0.64993  0.60450  0.04010  1.0000
  F   F92       1.0  0.65046  0.57431  0.55127  1.0000
  F   F93       1.0  0.89937  0.09160  0.06000  1.0000
  F   F94       1.0  0.89604  0.09672  0.53423  1.0000
  F   F95       1.0  0.90359  0.60381  0.03250  1.0000
  F   F96       1.0  0.90212  0.60306  0.52145  1.0000
  F   F97       1.0  0.14862  0.19274  0.12968  1.0000
  F   F98       1.0  0.15963  0.19992  0.61720  1.0000
  F   F99       1.0  0.15107  0.70386  0.12935  1.0000
  F   F100      1.0  0.14309  0.69204  0.64224  1.0000
  F   F101      1.0  0.40622  0.19388  0.10382  1.0000
  F   F102      1.0  0.40516  0.19646  0.63923  1.0000
  F   F103      1.0  0.40434  0.70032  0.13463  1.0000
  F   F104      1.0  0.39957  0.68419  0.61741  1.0000
  F   F105      1.0  0.64791  0.19594  0.11321  1.0000
  F   F106      1.0  0.64851  0.19837  0.63647  1.0000
  F   F107      1.0  0.65759  0.70150  0.13312  1.0000
  F   F108      1.0  0.65145  0.69957  0.62765  1.0000
  F   F109      1.0  0.90204  0.19283  0.12124  1.0000
  F   F110      1.0  0.89974  0.21042  0.61082  1.0000
  F   F111      1.0  0.90748  0.69575  0.12088  1.0000
  F   F112      1.0  0.90890  0.68590  0.62311  1.0000
  F   F113      1.0  0.09927  0.29193  0.36855  1.0000
  F   F114      1.0  0.09161  0.31087  0.87382  1.0000
  F   F115      1.0  0.10250  0.79943  0.37437  1.0000
  F   F116      1.0  0.09993  0.79379  0.87958  1.0000
  F   F117      1.0  0.35555  0.29905  0.36934  1.0000
  F   F118      1.0  0.35410  0.30426  0.85504  1.0000
  F   F119      1.0  0.35311  0.80172  0.37350  1.0000
  F   F120      1.0  0.34883  0.79304  0.89125  1.0000
  F   F121      1.0  0.60063  0.30410  0.37806  1.0000
  F   F122      1.0  0.60271  0.31021  0.87068  1.0000
  F   F123      1.0  0.59913  0.81962  0.35054  1.0000
  F   F124      1.0  0.59671  0.79441  0.88295  1.0000
  F   F125      1.0  0.84089  0.30494  0.39045  1.0000
  F   F126      1.0  0.85452  0.31460  0.87103  1.0000
  F   F127      1.0  0.84678  0.81062  0.37771  1.0000
  F   F128      1.0  0.85515  0.80669  0.86585  1.0000
  F   F129      1.0  0.06458  0.25867  0.13483  1.0000
  F   F130      1.0  0.07397  0.25394  0.62796  1.0000
  F   F131      1.0  0.06494  0.75492  0.13327  1.0000
  F   F132      1.0  0.06061  0.75756  0.64656  1.0000
  F   F133      1.0  0.32262  0.25463  0.13799  1.0000
  F   F134      1.0  0.31226  0.24493  0.64625  1.0000
  F   F135      1.0  0.31795  0.75953  0.13095  1.0000
  F   F136      1.0  0.30075  0.75317  0.65831  1.0000
  F   F137      1.0  0.55780  0.24165  0.15831  1.0000
  F   F138      1.0  0.56314  0.24952  0.65108  1.0000
  F   F139      1.0  0.57411  0.73842  0.12772  1.0000
  F   F140      1.0  0.55642  0.74115  0.66648  1.0000
  F   F141      1.0  0.82181  0.24899  0.13504  1.0000
  F   F142      1.0  0.81219  0.25121  0.64158  1.0000
  F   F143      1.0  0.81854  0.74464  0.14635  1.0000
  F   F144      1.0  0.81605  0.74238  0.64098  1.0000
  F   F145      1.0  0.11805  0.37037  0.11948  1.0000
  F   F146      1.0  0.12713  0.38190  0.59615  1.0000
  F   F147      1.0  0.12322  0.87979  0.11153  1.0000
  F   F148      1.0  0.11716  0.88013  0.60023  1.0000
  F   F149      1.0  0.37979  0.37699  0.10327  1.0000
  F   F150      1.0  0.37252  0.36052  0.61734  1.0000
  F   F151      1.0  0.37287  0.86716  0.11476  1.0000
  F   F152      1.0  0.37011  0.86234  0.62023  1.0000
  F   F153      1.0  0.62459  0.34681  0.12934  1.0000
  F   F154      1.0  0.62446  0.38014  0.60396  1.0000
  F   F155      1.0  0.62711  0.87429  0.11321  1.0000
  F   F156      1.0  0.62238  0.86867  0.60662  1.0000
  F   F157      1.0  0.87035  0.36187  0.11807  1.0000
  F   F158      1.0  0.87910  0.38318  0.60641  1.0000
  F   F159      1.0  0.87934  0.87439  0.10118  1.0000
  F   F160      1.0  0.87146  0.84423  0.63445  1.0000
  F   F161      1.0  0.19507  0.24485  0.34501  1.0000
  F   F162      1.0  0.18164  0.26362  0.85313  1.0000
  F   F163      1.0  0.18379  0.74141  0.37086  1.0000
  F   F164      1.0  0.18837  0.74367  0.86725  1.0000
  F   F165      1.0  0.44271  0.26585  0.32041  1.0000
  F   F166      1.0  0.43053  0.24952  0.86295  1.0000
  F   F167      1.0  0.44136  0.75256  0.35204  1.0000
  F   F168      1.0  0.43586  0.74633  0.85186  1.0000
  F   F169      1.0  0.68990  0.25300  0.36001  1.0000
  F   F170      1.0  0.68938  0.25677  0.85471  1.0000
  F   F171      1.0  0.68446  0.73810  0.37462  1.0000
  F   F172      1.0  0.68445  0.74581  0.85355  1.0000
  F   F173      1.0  0.93195  0.25138  0.36118  1.0000
  F   F174      1.0  0.93997  0.23862  0.85282  1.0000
  F   F175      1.0  0.95031  0.76460  0.33208  1.0000
  F   F176      1.0  0.95402  0.76184  0.82197  1.0000
  F   F177      1.0  0.12692  0.12146  0.37822  1.0000
  F   F178      1.0  0.12765  0.14042  0.88197  1.0000
  F   F179      1.0  0.13296  0.63558  0.38060  1.0000
  F   F180      1.0  0.12957  0.63319  0.87913  1.0000
  F   F181      1.0  0.37881  0.11930  0.38407  1.0000
  F   F182      1.0  0.37489  0.14333  0.87649  1.0000
  F   F183      1.0  0.37387  0.63652  0.39544  1.0000
  F   F184      1.0  0.37287  0.62405  0.90297  1.0000
  F   F185      1.0  0.62274  0.13913  0.38496  1.0000
  F   F186      1.0  0.62818  0.10936  0.89795  1.0000
  F   F187      1.0  0.62796  0.63871  0.39571  1.0000
  F   F188      1.0  0.62518  0.61460  0.90938  1.0000
  F   F189      1.0  0.86851  0.13670  0.40372  1.0000
  F   F190      1.0  0.87503  0.12275  0.90781  1.0000
  F   F191      1.0  0.87846  0.64940  0.37455  1.0000
  F   F192      1.0  0.87309  0.62820  0.88945  1.0000
  F   F193      1.0  0.00996  0.36909  0.06712  1.0000
  F   F194      1.0  0.00994  0.35621  0.58249  1.0000
  F   F195      1.0  0.00980  0.87173  0.07179  1.0000
  F   F196      1.0  0.00791  0.86563  0.57217  1.0000
  F   F197      1.0  0.25985  0.36087  0.07316  1.0000
  F   F198      1.0  0.25189  0.36369  0.57450  1.0000
  F   F199      1.0  0.26437  0.86625  0.06002  1.0000
  F   F200      1.0  0.24818  0.87059  0.59251  1.0000
  F   F201      1.0  0.50047  0.34274  0.10081  1.0000
  F   F202      1.0  0.51138  0.35911  0.56965  1.0000
  F   F203      1.0  0.50782  0.85221  0.08262  1.0000
  F   F204      1.0  0.51030  0.84939  0.57534  1.0000
  F   F205      1.0  0.76158  0.36364  0.05551  1.0000
  F   F206      1.0  0.76033  0.36625  0.55945  1.0000
  F   F207      1.0  0.75706  0.84358  0.08964  1.0000
  F   F208      1.0  0.75758  0.86502  0.58911  1.0000
  F   F209      1.0  0.07783  0.49334  0.16531  1.0000
  F   F210      1.0  0.06905  0.48208  0.67952  1.0000
  F   F211      1.0  0.07012  0.98366  0.17752  1.0000
  F   F212      1.0  0.06353  0.98946  0.69036  1.0000
  F   F213      1.0  0.32936  0.49021  0.15774  1.0000
  F   F214      1.0  0.31039  0.49531  0.66517  1.0000
  F   F215      1.0  0.31448  0.98371  0.19479  1.0000
  F   F216      1.0  0.32238  0.99007  0.65754  1.0000
  F   F217      1.0  0.57820  0.46865  0.18284  1.0000
  F   F218      1.0  0.56484  0.47783  0.69043  1.0000
  F   F219      1.0  0.56869  0.98070  0.18376  1.0000
  F   F220      1.0  0.57521  0.98528  0.67614  1.0000
  F   F221      1.0  0.82461  0.49036  0.15741  1.0000
  F   F222      1.0  0.82042  0.47909  0.68840  1.0000
  F   F223      1.0  0.81290  0.97676  0.18433  1.0000
  F   F224      1.0  0.81646  0.98901  0.67847  1.0000
  F   F225      1.0  0.24392  0.12581  0.42683  1.0000
  F   F226      1.0  0.24235  0.12700  0.92704  1.0000
  F   F227      1.0  0.24399  0.64219  0.41064  1.0000
  F   F228      1.0  0.24825  0.63409  0.91888  1.0000
  F   F229      1.0  0.48917  0.12878  0.44798  1.0000
  F   F230      1.0  0.49026  0.12516  0.93703  1.0000
  F   F231      1.0  0.49890  0.62716  0.42562  1.0000
  F   F232      1.0  0.49783  0.63420  0.91643  1.0000
  F   F233      1.0  0.73780  0.13921  0.43101  1.0000
  F   F234      1.0  0.74677  0.13504  0.93120  1.0000
  F   F235      1.0  0.74311  0.63448  0.43001  1.0000
  F   F236      1.0  0.73628  0.63396  0.94066  1.0000
  F   F237      1.0  0.98958  0.13846  0.41472  1.0000
  F   F238      1.0  0.98839  0.12216  0.94681  1.0000
  F   F239      1.0  0.99227  0.64065  0.42844  1.0000
  F   F240      1.0  0.98852  0.63572  0.93937  1.0000
  F   F241      1.0  0.18660  0.00688  0.32046  1.0000
  F   F242      1.0  0.18114  0.01009  0.83724  1.0000
  F   F243      1.0  0.18398  0.52087  0.30586  1.0000
  F   F244      1.0  0.18257  0.51595  0.81589  1.0000
  F   F245      1.0  0.43131  0.01387  0.32589  1.0000
  F   F246      1.0  0.43299  0.01036  0.82771  1.0000
  F   F247      1.0  0.43066  0.50922  0.33253  1.0000
  F   F248      1.0  0.43386  0.52179  0.81878  1.0000
  F   F249      1.0  0.68482  0.01484  0.32885  1.0000
  F   F250      1.0  0.69115  0.01497  0.82848  1.0000
  F   F251      1.0  0.68988  0.51603  0.31325  1.0000
  F   F252      1.0  0.68230  0.51102  0.82950  1.0000
  F   F253      1.0  0.92195  0.01868  0.33528  1.0000
  F   F254      1.0  0.93195  0.01896  0.83228  1.0000
  F   F255      1.0  0.92102  0.51118  0.34410  1.0000
  F   F256      1.0  0.93578  0.51823  0.82273  1.0000
  F   F257      1.0  0.99607  0.25779  0.99451  1.0000
  F   F258      1.0  0.00076  0.24790  0.49808  1.0000
  F   F259      1.0  0.00007  0.75596  0.00241  1.0000
  F   F260      1.0  0.00305  0.75653  0.49401  1.0000
  F   F261      1.0  0.25194  0.27151  0.98766  1.0000
  F   F262      1.0  0.25257  0.25485  0.49048  1.0000
  F   F263      1.0  0.24279  0.74551  0.00085  1.0000
  F   F264      1.0  0.24515  0.74873  0.50367  1.0000
  F   F265      1.0  0.50452  0.26096  0.98506  1.0000
  F   F266      1.0  0.50345  0.25211  0.50852  1.0000
  F   F267      1.0  0.50100  0.76293  0.98852  1.0000
  F   F268      1.0  0.50679  0.76723  0.48151  1.0000
  F   F269      1.0  0.74679  0.22382  0.02653  1.0000
  F   F270      1.0  0.74865  0.24061  0.51163  1.0000
  F   F271      1.0  0.75083  0.75784  0.99775  1.0000
  F   F272      1.0  0.75209  0.76412  0.49714  1.0000
  F   F273      1.0  0.12621  0.99763  0.23961  1.0000
  F   F274      1.0  0.13381  0.00573  0.73748  1.0000
  F   F275      1.0  0.13970  0.50716  0.21490  1.0000
  F   F276      1.0  0.11777  0.50855  0.74769  1.0000
  F   F277      1.0  0.37521  0.00032  0.25022  1.0000
  F   F278      1.0  0.37628  0.99769  0.74265  1.0000
  F   F279      1.0  0.36160  0.48614  0.28621  1.0000
  F   F280      1.0  0.36852  0.50965  0.75638  1.0000
  F   F281      1.0  0.63381  0.00350  0.24125  1.0000
  F   F282      1.0  0.63061  0.01048  0.75654  1.0000
  F   F283      1.0  0.62883  0.49798  0.25370  1.0000
  F   F284      1.0  0.61590  0.48808  0.76600  1.0000
  F   F285      1.0  0.88002  0.99269  0.25133  1.0000
  F   F286      1.0  0.87937  0.00854  0.74288  1.0000
  F   F287      1.0  0.87274  0.49163  0.25769  1.0000
  F   F288      1.0  0.87559  0.50304  0.75000  1.0000
  F   F289      1.0  0.04508  0.04045  0.02480  1.0000
  F   F290      1.0  0.04460  0.03239  0.51705  1.0000
  F   F291      1.0  0.03545  0.53554  0.03083  1.0000
  F   F292      1.0  0.04866  0.52744  0.50555  1.0000
  F   F293      1.0  0.30085  0.04910  0.03251  1.0000
  F   F294      1.0  0.29113  0.03041  0.52557  1.0000
  F   F295      1.0  0.29598  0.52984  0.02183  1.0000
  F   F296      1.0  0.28290  0.54193  0.52632  1.0000
  F   F297      1.0  0.54179  0.02339  0.04011  1.0000
  F   F298      1.0  0.54448  0.03145  0.52663  1.0000
  F   F299      1.0  0.54582  0.51786  0.01707  1.0000
  F   F300      1.0  0.54054  0.53063  0.54184  1.0000
  F   F301      1.0  0.79400  0.02847  0.02156  1.0000
  F   F302      1.0  0.78246  0.02807  0.53943  1.0000
  F   F303      1.0  0.78878  0.53310  0.02506  1.0000
  F   F304      1.0  0.79646  0.52904  0.51297  1.0000
  F   F305      1.0  0.23864  0.41120  0.21926  1.0000
  F   F306      1.0  0.22821  0.41236  0.72112  1.0000
  F   F307      1.0  0.23518  0.91560  0.22913  1.0000
  F   F308      1.0  0.23090  0.91099  0.73676  1.0000
  F   F309      1.0  0.48985  0.41300  0.24301  1.0000
  F   F310      1.0  0.48375  0.40624  0.72968  1.0000
  F   F311      1.0  0.48814  0.90873  0.22430  1.0000
  F   F312      1.0  0.48589  0.91001  0.73543  1.0000
  F   F313      1.0  0.73832  0.40949  0.21420  1.0000
  F   F314      1.0  0.73896  0.41621  0.72458  1.0000
  F   F315      1.0  0.73384  0.88235  0.23465  1.0000
  F   F316      1.0  0.73089  0.91198  0.73865  1.0000
  F   F317      1.0  0.97409  0.41923  0.22946  1.0000
  F   F318      1.0  0.98786  0.41367  0.73265  1.0000
  F   F319      1.0  0.98712  0.91673  0.23231  1.0000
  F   F320      1.0  0.98148  0.94588  0.71121  1.0000
  F   F321      1.0  0.20438  0.47075  0.47927  1.0000
  F   F322      1.0  0.20171  0.46518  0.97412  1.0000
  F   F323      1.0  0.19989  0.96949  0.47937  1.0000
  F   F324      1.0  0.20293  0.97252  0.98602  1.0000
  F   F325      1.0  0.46152  0.46881  0.46636  1.0000
  F   F326      1.0  0.45618  0.48178  0.97473  1.0000
  F   F327      1.0  0.45309  0.96118  0.48813  1.0000
  F   F328      1.0  0.46217  0.95408  0.97464  1.0000
  F   F329      1.0  0.70350  0.47107  0.48387  1.0000
  F   F330      1.0  0.69963  0.47834  0.99318  1.0000
  F   F331      1.0  0.71171  0.95920  0.48000  1.0000
  F   F332      1.0  0.71111  0.95998  0.99688  1.0000
  F   F333      1.0  0.96080  0.47445  0.48177  1.0000
  F   F334      1.0  0.94602  0.46520  0.98341  1.0000
  F   F335      1.0  0.96187  0.95605  0.46164  1.0000
  F   F336      1.0  0.96138  0.96150  0.97930  1.0000
  F   F337      1.0  0.00820  0.07839  0.28115  1.0000
  F   F338      1.0  0.01119  0.11159  0.76514  1.0000
  F   F339      1.0  0.01531  0.60065  0.25700  1.0000
  F   F340      1.0  0.01156  0.58834  0.77445  1.0000
  F   F341      1.0  0.26581  0.10638  0.26028  1.0000
  F   F342      1.0  0.26856  0.07773  0.77073  1.0000
  F   F343      1.0  0.27050  0.56187  0.27226  1.0000
  F   F344      1.0  0.26258  0.58548  0.77340  1.0000
  F   F345      1.0  0.51158  0.09720  0.27141  1.0000
  F   F346      1.0  0.52005  0.07333  0.78506  1.0000
  F   F347      1.0  0.52271  0.57323  0.27510  1.0000
  F   F348      1.0  0.51374  0.57191  0.78347  1.0000
  F   F349      1.0  0.76192  0.09197  0.27545  1.0000
  F   F350      1.0  0.76995  0.09089  0.77110  1.0000
  F   F351      1.0  0.76585  0.59101  0.25733  1.0000
  F   F352      1.0  0.76369  0.57142  0.77382  1.0000
  F   F353      1.0  0.10598  0.41038  0.44045  1.0000
  F   F354      1.0  0.10066  0.42455  0.96480  1.0000
  F   F355      1.0  0.10257  0.92693  0.44338  1.0000
  F   F356      1.0  0.09742  0.91381  0.94676  1.0000
  F   F357      1.0  0.34930  0.41134  0.47263  1.0000
  F   F358      1.0  0.35283  0.41220  0.95791  1.0000
  F   F359      1.0  0.35366  0.90728  0.46879  1.0000
  F   F360      1.0  0.34944  0.93160  0.95059  1.0000
  F   F361      1.0  0.60187  0.40585  0.45752  1.0000
  F   F362      1.0  0.61067  0.40271  0.95945  1.0000
  F   F363      1.0  0.59660  0.90978  0.46293  1.0000
  F   F364      1.0  0.60798  0.90989  0.95679  1.0000
  F   F365      1.0  0.84636  0.40120  0.46787  1.0000
  F   F366      1.0  0.85445  0.42037  0.95348  1.0000
  F   F367      1.0  0.85194  0.90196  0.48508  1.0000
  F   F368      1.0  0.84735  0.90142  0.96692  1.0000
  F   F369      1.0  0.03220  0.29610  0.28894  1.0000
  F   F370      1.0  0.03844  0.28695  0.78626  1.0000
  F   F371      1.0  0.04840  0.79118  0.28788  1.0000
  F   F372      1.0  0.03720  0.80237  0.79977  1.0000
  F   F373      1.0  0.30420  0.28690  0.29273  1.0000
  F   F374      1.0  0.29246  0.30515  0.78161  1.0000
  F   F375      1.0  0.29411  0.78971  0.29320  1.0000
  F   F376      1.0  0.29668  0.81178  0.78995  1.0000
  F   F377      1.0  0.54663  0.28774  0.29651  1.0000
  F   F378      1.0  0.55750  0.28810  0.78779  1.0000
  F   F379      1.0  0.54815  0.79151  0.27927  1.0000
  F   F380      1.0  0.54828  0.80210  0.79259  1.0000
  F   F381      1.0  0.78716  0.28841  0.29669  1.0000
  F   F382      1.0  0.80318  0.30639  0.79115  1.0000
  F   F383      1.0  0.79951  0.79626  0.28350  1.0000
  F   F384      1.0  0.78948  0.79597  0.79453  1.0000
