data_image0
_chemical_formula_structural       Hf96F384
_chemical_formula_sum              "Hf96 F384"
_cell_length_a       31.0586
_cell_length_b       15.5279
_cell_length_c       15.5126
_cell_angle_alpha    63.342
_cell_angle_beta     63.342
_cell_angle_gamma    80.1625

_space_group_name_H-M_alt    "P 1"
_space_group_IT_number       1

loop_
  _space_group_symop_operation_xyz
  'x, y, z'

loop_
  _atom_site_type_symbol
  _atom_site_label
  _atom_site_symmetry_multiplicity
  _atom_site_fract_x
  _atom_site_fract_y
  _atom_site_fract_z
  _atom_site_occupancy
  Hf  Hf1       1.0  0.19870  0.10590  0.36674  1.0000
  Hf  Hf2       1.0  0.19435  0.10497  0.87154  1.0000
  Hf  Hf3       1.0  0.19566  0.60078  0.38161  1.0000
  Hf  Hf4       1.0  0.19595  0.61756  0.86082  1.0000
  Hf  Hf5       1.0  0.44950  0.11525  0.36149  1.0000
  Hf  Hf6       1.0  0.44801  0.10434  0.87504  1.0000
  Hf  Hf7       1.0  0.44677  0.60967  0.37494  1.0000
  Hf  Hf8       1.0  0.44544  0.61722  0.87545  1.0000
  Hf  Hf9       1.0  0.69395  0.09944  0.38451  1.0000
  Hf  Hf10      1.0  0.69792  0.10240  0.88151  1.0000
  Hf  Hf11      1.0  0.69195  0.60101  0.39126  1.0000
  Hf  Hf12      1.0  0.69506  0.60570  0.87432  1.0000
  Hf  Hf13      1.0  0.94760  0.10326  0.37162  1.0000
  Hf  Hf14      1.0  0.94632  0.11768  0.86937  1.0000
  Hf  Hf15      1.0  0.94275  0.60252  0.38253  1.0000
  Hf  Hf16      1.0  0.94909  0.60554  0.87493  1.0000
  Hf  Hf17      1.0  0.05408  0.39564  0.11166  1.0000
  Hf  Hf18      1.0  0.05794  0.39839  0.62095  1.0000
  Hf  Hf19      1.0  0.05354  0.89220  0.12898  1.0000
  Hf  Hf20      1.0  0.05068  0.89163  0.62488  1.0000
  Hf  Hf21      1.0  0.29999  0.39707  0.12651  1.0000
  Hf  Hf22      1.0  0.30556  0.39344  0.62386  1.0000
  Hf  Hf23      1.0  0.30039  0.89437  0.12186  1.0000
  Hf  Hf24      1.0  0.30589  0.88762  0.62481  1.0000
  Hf  Hf25      1.0  0.55417  0.39988  0.12377  1.0000
  Hf  Hf26      1.0  0.55109  0.38418  0.62960  1.0000
  Hf  Hf27      1.0  0.55530  0.89588  0.11630  1.0000
  Hf  Hf28      1.0  0.55419  0.89671  0.62495  1.0000
  Hf  Hf29      1.0  0.80239  0.38792  0.13350  1.0000
  Hf  Hf30      1.0  0.79989  0.39144  0.62070  1.0000
  Hf  Hf31      1.0  0.80705  0.89978  0.11516  1.0000
  Hf  Hf32      1.0  0.80223  0.88526  0.63328  1.0000
  Hf  Hf33      1.0  0.05769  0.18515  0.40769  1.0000
  Hf  Hf34      1.0  0.05669  0.18601  0.91000  1.0000
  Hf  Hf35      1.0  0.05675  0.67935  0.41856  1.0000
  Hf  Hf36      1.0  0.05166  0.68739  0.91752  1.0000
  Hf  Hf37      1.0  0.30712  0.17290  0.42054  1.0000
  Hf  Hf38      1.0  0.30573  0.18566  0.91084  1.0000
  Hf  Hf39      1.0  0.30992  0.69649  0.40452  1.0000
  Hf  Hf40      1.0  0.30158  0.68512  0.92244  1.0000
  Hf  Hf41      1.0  0.55399  0.18486  0.41994  1.0000
  Hf  Hf42      1.0  0.55517  0.18256  0.91935  1.0000
  Hf  Hf43      1.0  0.55645  0.67432  0.41773  1.0000
  Hf  Hf44      1.0  0.56013  0.69626  0.90386  1.0000
  Hf  Hf45      1.0  0.80589  0.17354  0.42161  1.0000
  Hf  Hf46      1.0  0.80444  0.19292  0.92192  1.0000
  Hf  Hf47      1.0  0.80590  0.68564  0.41135  1.0000
  Hf  Hf48      1.0  0.80882  0.68114  0.91838  1.0000
  Hf  Hf49      1.0  0.15645  0.38643  0.33251  1.0000
  Hf  Hf50      1.0  0.15871  0.38657  0.83152  1.0000
  Hf  Hf51      1.0  0.15862  0.88626  0.33107  1.0000
  Hf  Hf52      1.0  0.15509  0.88647  0.83713  1.0000
  Hf  Hf53      1.0  0.40801  0.39440  0.32452  1.0000
  Hf  Hf54      1.0  0.40525  0.38536  0.84170  1.0000
  Hf  Hf55      1.0  0.41566  0.89369  0.32123  1.0000
  Hf  Hf56      1.0  0.41205  0.89682  0.83288  1.0000
  Hf  Hf57      1.0  0.65721  0.39228  0.33505  1.0000
  Hf  Hf58      1.0  0.65534  0.37807  0.84558  1.0000
  Hf  Hf59      1.0  0.66410  0.88365  0.33079  1.0000
  Hf  Hf60      1.0  0.65613  0.88856  0.83772  1.0000
  Hf  Hf61      1.0  0.90968  0.38800  0.33148  1.0000
  Hf  Hf62      1.0  0.90652  0.38872  0.83527  1.0000
  Hf  Hf63      1.0  0.91209  0.88439  0.33310  1.0000
  Hf  Hf64      1.0  0.90638  0.88248  0.83768  1.0000
  Hf  Hf65      1.0  0.19428  0.32321  0.08024  1.0000
  Hf  Hf66      1.0  0.19705  0.31980  0.57591  1.0000
  Hf  Hf67      1.0  0.19276  0.81977  0.08015  1.0000
  Hf  Hf68      1.0  0.19465  0.82889  0.57688  1.0000
  Hf  Hf69      1.0  0.44279  0.32373  0.08106  1.0000
  Hf  Hf70      1.0  0.44151  0.31291  0.59038  1.0000
  Hf  Hf71      1.0  0.44471  0.81961  0.08697  1.0000
  Hf  Hf72      1.0  0.44539  0.82333  0.57893  1.0000
  Hf  Hf73      1.0  0.69033  0.32563  0.09138  1.0000
  Hf  Hf74      1.0  0.69219  0.31657  0.59118  1.0000
  Hf  Hf75      1.0  0.69234  0.81100  0.09471  1.0000
  Hf  Hf76      1.0  0.69310  0.81004  0.59221  1.0000
  Hf  Hf77      1.0  0.94181  0.30965  0.09169  1.0000
  Hf  Hf78      1.0  0.94291  0.31515  0.58684  1.0000
  Hf  Hf79      1.0  0.94403  0.82462  0.07969  1.0000
  Hf  Hf80      1.0  0.94549  0.81963  0.57946  1.0000
  Hf  Hf81      1.0  0.09240  0.11151  0.15964  1.0000
  Hf  Hf82      1.0  0.08989  0.10622  0.66523  1.0000
  Hf  Hf83      1.0  0.09073  0.60743  0.16336  1.0000
  Hf  Hf84      1.0  0.09272  0.61804  0.66517  1.0000
  Hf  Hf85      1.0  0.34333  0.10845  0.15965  1.0000
  Hf  Hf86      1.0  0.34062  0.11148  0.66580  1.0000
  Hf  Hf87      1.0  0.33939  0.61941  0.16231  1.0000
  Hf  Hf88      1.0  0.34516  0.61569  0.66311  1.0000
  Hf  Hf89      1.0  0.59583  0.11352  0.17176  1.0000
  Hf  Hf90      1.0  0.59016  0.11022  0.67001  1.0000
  Hf  Hf91      1.0  0.59520  0.61207  0.16185  1.0000
  Hf  Hf92      1.0  0.58937  0.60998  0.67356  1.0000
  Hf  Hf93      1.0  0.83887  0.10411  0.17668  1.0000
  Hf  Hf94      1.0  0.84158  0.10886  0.67233  1.0000
  Hf  Hf95      1.0  0.84175  0.60245  0.17135  1.0000
  Hf  Hf96      1.0  0.83744  0.60118  0.67468  1.0000
  F   F1        1.0  0.08034  0.12883  0.28977  1.0000
  F   F2        1.0  0.08589  0.13542  0.79554  1.0000
  F   F3        1.0  0.08619  0.65012  0.29248  1.0000
  F   F4        1.0  0.08332  0.63138  0.79835  1.0000
  F   F5        1.0  0.33349  0.12654  0.29495  1.0000
  F   F6        1.0  0.32159  0.14652  0.79477  1.0000
  F   F7        1.0  0.33097  0.64381  0.29735  1.0000
  F   F8        1.0  0.32546  0.60508  0.80873  1.0000
  F   F9        1.0  0.57320  0.12246  0.32084  1.0000
  F   F10       1.0  0.58336  0.11457  0.80509  1.0000
  F   F11       1.0  0.57956  0.61965  0.30992  1.0000
  F   F12       1.0  0.57458  0.62908  0.80657  1.0000
  F   F13       1.0  0.82190  0.11035  0.32103  1.0000
  F   F14       1.0  0.83088  0.12253  0.80619  1.0000
  F   F15       1.0  0.83382  0.63112  0.29814  1.0000
  F   F16       1.0  0.82479  0.61512  0.80964  1.0000
  F   F17       1.0  0.18661  0.34417  0.43379  1.0000
  F   F18       1.0  0.19458  0.34301  0.92550  1.0000
  F   F19       1.0  0.18907  0.84419  0.44575  1.0000
  F   F20       1.0  0.18286  0.82966  0.94310  1.0000
  F   F21       1.0  0.42905  0.34007  0.44351  1.0000
  F   F22       1.0  0.43955  0.34992  0.94554  1.0000
  F   F23       1.0  0.43924  0.84230  0.44733  1.0000
  F   F24       1.0  0.44205  0.84645  0.94513  1.0000
  F   F25       1.0  0.68458  0.34866  0.45448  1.0000
  F   F26       1.0  0.67964  0.34015  0.95767  1.0000
  F   F27       1.0  0.68881  0.83792  0.44946  1.0000
  F   F28       1.0  0.68099  0.82563  0.96813  1.0000
  F   F29       1.0  0.93470  0.33076  0.44518  1.0000
  F   F30       1.0  0.92270  0.32006  0.96774  1.0000
  F   F31       1.0  0.93896  0.83941  0.45045  1.0000
  F   F32       1.0  0.92932  0.84931  0.95062  1.0000
  F   F33       1.0  0.16484  0.36703  0.19797  1.0000
  F   F34       1.0  0.16508  0.36759  0.69584  1.0000
  F   F35       1.0  0.16950  0.84936  0.20428  1.0000
  F   F36       1.0  0.17059  0.89388  0.68526  1.0000
  F   F37       1.0  0.41630  0.36916  0.19645  1.0000
  F   F38       1.0  0.42090  0.35812  0.70719  1.0000
  F   F39       1.0  0.43045  0.88720  0.18238  1.0000
  F   F40       1.0  0.41926  0.87175  0.70199  1.0000
  F   F41       1.0  0.67291  0.38235  0.19077  1.0000
  F   F42       1.0  0.67512  0.37726  0.69698  1.0000
  F   F43       1.0  0.67134  0.88571  0.19499  1.0000
  F   F44       1.0  0.67472  0.86996  0.69780  1.0000
  F   F45       1.0  0.91771  0.37067  0.20067  1.0000
  F   F46       1.0  0.90779  0.36305  0.71216  1.0000
  F   F47       1.0  0.91760  0.86075  0.20119  1.0000
  F   F48       1.0  0.91438  0.85172  0.71458  1.0000
  F   F49       1.0  0.06454  0.15448  0.05086  1.0000
  F   F50       1.0  0.05887  0.15780  0.55564  1.0000
  F   F51       1.0  0.05656  0.67197  0.05317  1.0000
  F   F52       1.0  0.06344  0.65577  0.56236  1.0000
  F   F53       1.0  0.32222  0.16851  0.04209  1.0000
  F   F54       1.0  0.30718  0.14350  0.56361  1.0000
  F   F55       1.0  0.31867  0.67903  0.04173  1.0000
  F   F56       1.0  0.32565  0.67244  0.53478  1.0000
  F   F57       1.0  0.56525  0.14729  0.06258  1.0000
  F   F58       1.0  0.56986  0.16479  0.54893  1.0000
  F   F59       1.0  0.57865  0.67665  0.03862  1.0000
  F   F60       1.0  0.55654  0.65331  0.56372  1.0000
  F   F61       1.0  0.81343  0.17027  0.05315  1.0000
  F   F62       1.0  0.82474  0.16392  0.54515  1.0000
  F   F63       1.0  0.81540  0.63761  0.05852  1.0000
  F   F64       1.0  0.81651  0.65575  0.54702  1.0000
  F   F65       1.0  0.20507  0.20075  0.19865  1.0000
  F   F66       1.0  0.20486  0.19968  0.70375  1.0000
  F   F67       1.0  0.20791  0.69907  0.21865  1.0000
  F   F68       1.0  0.19953  0.70409  0.69912  1.0000
  F   F69       1.0  0.45135  0.19468  0.21053  1.0000
  F   F70       1.0  0.45458  0.21231  0.71767  1.0000
  F   F71       1.0  0.46223  0.71311  0.21078  1.0000
  F   F72       1.0  0.46081  0.71108  0.71015  1.0000
  F   F73       1.0  0.70578  0.20640  0.20841  1.0000
  F   F74       1.0  0.68605  0.20490  0.74156  1.0000
  F   F75       1.0  0.69282  0.70112  0.22328  1.0000
  F   F76       1.0  0.70769  0.70073  0.71192  1.0000
  F   F77       1.0  0.96019  0.19329  0.19622  1.0000
  F   F78       1.0  0.94814  0.19904  0.71691  1.0000
  F   F79       1.0  0.94874  0.69189  0.23472  1.0000
  F   F80       1.0  0.96111  0.69474  0.71495  1.0000
  F   F81       1.0  0.15355  0.08917  0.03873  1.0000
  F   F82       1.0  0.14455  0.10708  0.53480  1.0000
  F   F83       1.0  0.14507  0.59273  0.02934  1.0000
  F   F84       1.0  0.14987  0.57238  0.54145  1.0000
  F   F85       1.0  0.39946  0.07806  0.03659  1.0000
  F   F86       1.0  0.39533  0.10563  0.53298  1.0000
  F   F87       1.0  0.39510  0.59464  0.03905  1.0000
  F   F88       1.0  0.40963  0.58542  0.53557  1.0000
  F   F89       1.0  0.65501  0.09718  0.04700  1.0000
  F   F90       1.0  0.65210  0.09068  0.53134  1.0000
  F   F91       1.0  0.65248  0.56879  0.03775  1.0000
  F   F92       1.0  0.64614  0.60559  0.54480  1.0000
  F   F93       1.0  0.90216  0.08762  0.03491  1.0000
  F   F94       1.0  0.90056  0.09033  0.53442  1.0000
  F   F95       1.0  0.89683  0.59771  0.04012  1.0000
  F   F96       1.0  0.89700  0.59727  0.54280  1.0000
  F   F97       1.0  0.15024  0.20660  0.12019  1.0000
  F   F98       1.0  0.15467  0.20656  0.60793  1.0000
  F   F99       1.0  0.15527  0.69571  0.12464  1.0000
  F   F100      1.0  0.14857  0.70751  0.60353  1.0000
  F   F101      1.0  0.40104  0.19567  0.11901  1.0000
  F   F102      1.0  0.40206  0.20031  0.63103  1.0000
  F   F103      1.0  0.40556  0.69275  0.12793  1.0000
  F   F104      1.0  0.39365  0.69830  0.64545  1.0000
  F   F105      1.0  0.64461  0.21052  0.13445  1.0000
  F   F106      1.0  0.64659  0.19377  0.62841  1.0000
  F   F107      1.0  0.65913  0.66832  0.12359  1.0000
  F   F108      1.0  0.65656  0.68952  0.63420  1.0000
  F   F109      1.0  0.89669  0.18398  0.14379  1.0000
  F   F110      1.0  0.89413  0.20146  0.63389  1.0000
  F   F111      1.0  0.91341  0.70657  0.10930  1.0000
  F   F112      1.0  0.90116  0.70509  0.63058  1.0000
  F   F113      1.0  0.10586  0.28377  0.38732  1.0000
  F   F114      1.0  0.09578  0.29938  0.88834  1.0000
  F   F115      1.0  0.09855  0.79781  0.36384  1.0000
  F   F116      1.0  0.09974  0.80268  0.87532  1.0000
  F   F117      1.0  0.34484  0.28719  0.38415  1.0000
  F   F118      1.0  0.34228  0.30183  0.86221  1.0000
  F   F119      1.0  0.35774  0.80616  0.34499  1.0000
  F   F120      1.0  0.35398  0.82104  0.88616  1.0000
  F   F121      1.0  0.60227  0.30232  0.35643  1.0000
  F   F122      1.0  0.60504  0.29617  0.87874  1.0000
  F   F123      1.0  0.59876  0.81382  0.38052  1.0000
  F   F124      1.0  0.59432  0.83285  0.86188  1.0000
  F   F125      1.0  0.85052  0.29885  0.35995  1.0000
  F   F126      1.0  0.84533  0.31159  0.88605  1.0000
  F   F127      1.0  0.84723  0.79636  0.37574  1.0000
  F   F128      1.0  0.84873  0.79488  0.89502  1.0000
  F   F129      1.0  0.07062  0.25862  0.12014  1.0000
  F   F130      1.0  0.06296  0.25179  0.64532  1.0000
  F   F131      1.0  0.07211  0.74378  0.13831  1.0000
  F   F132      1.0  0.06151  0.75498  0.64574  1.0000
  F   F133      1.0  0.31504  0.26050  0.14403  1.0000
  F   F134      1.0  0.31824  0.25269  0.63306  1.0000
  F   F135      1.0  0.31476  0.75894  0.14032  1.0000
  F   F136      1.0  0.31284  0.74942  0.64997  1.0000
  F   F137      1.0  0.56482  0.26030  0.13807  1.0000
  F   F138      1.0  0.55761  0.23211  0.67704  1.0000
  F   F139      1.0  0.57247  0.75318  0.13849  1.0000
  F   F140      1.0  0.56180  0.74918  0.64876  1.0000
  F   F141      1.0  0.80871  0.23816  0.16669  1.0000
  F   F142      1.0  0.80769  0.24957  0.65918  1.0000
  F   F143      1.0  0.83229  0.74659  0.10806  1.0000
  F   F144      1.0  0.82072  0.73969  0.64568  1.0000
  F   F145      1.0  0.12762  0.38434  0.08843  1.0000
  F   F146      1.0  0.12814  0.36457  0.59565  1.0000
  F   F147      1.0  0.12646  0.87994  0.10090  1.0000
  F   F148      1.0  0.12219  0.85725  0.61187  1.0000
  F   F149      1.0  0.37666  0.39296  0.09033  1.0000
  F   F150      1.0  0.37724  0.39301  0.59262  1.0000
  F   F151      1.0  0.37412  0.84972  0.13859  1.0000
  F   F152      1.0  0.37560  0.87197  0.60285  1.0000
  F   F153      1.0  0.61891  0.36646  0.13239  1.0000
  F   F154      1.0  0.62287  0.36487  0.60793  1.0000
  F   F155      1.0  0.62901  0.87096  0.11069  1.0000
  F   F156      1.0  0.61975  0.84200  0.63102  1.0000
  F   F157      1.0  0.87198  0.34936  0.12790  1.0000
  F   F158      1.0  0.87134  0.37857  0.59484  1.0000
  F   F159      1.0  0.87438  0.87117  0.11303  1.0000
  F   F160      1.0  0.87082  0.88411  0.61459  1.0000
  F   F161      1.0  0.19216  0.24886  0.33059  1.0000
  F   F162      1.0  0.18366  0.23908  0.85668  1.0000
  F   F163      1.0  0.17918  0.73833  0.37765  1.0000
  F   F164      1.0  0.18374  0.75731  0.84154  1.0000
  F   F165      1.0  0.43297  0.25385  0.34425  1.0000
  F   F166      1.0  0.42388  0.23484  0.88852  1.0000
  F   F167      1.0  0.43120  0.73666  0.37939  1.0000
  F   F168      1.0  0.42950  0.74776  0.88103  1.0000
  F   F169      1.0  0.68972  0.24548  0.35921  1.0000
  F   F170      1.0  0.68352  0.24067  0.87226  1.0000
  F   F171      1.0  0.68747  0.74488  0.35085  1.0000
  F   F172      1.0  0.66915  0.74726  0.88318  1.0000
  F   F173      1.0  0.93975  0.24270  0.33632  1.0000
  F   F174      1.0  0.93746  0.25596  0.84643  1.0000
  F   F175      1.0  0.93815  0.74793  0.35629  1.0000
  F   F176      1.0  0.93620  0.74491  0.86340  1.0000
  F   F177      1.0  0.12382  0.11780  0.39592  1.0000
  F   F178      1.0  0.12500  0.12268  0.90327  1.0000
  F   F179      1.0  0.12324  0.62949  0.40819  1.0000
  F   F180      1.0  0.12206  0.63796  0.88235  1.0000
  F   F181      1.0  0.37904  0.13103  0.37978  1.0000
  F   F182      1.0  0.37684  0.13846  0.88071  1.0000
  F   F183      1.0  0.37657  0.62169  0.39023  1.0000
  F   F184      1.0  0.37526  0.65792  0.87413  1.0000
  F   F185      1.0  0.62457  0.13523  0.38644  1.0000
  F   F186      1.0  0.61879  0.10830  0.91645  1.0000
  F   F187      1.0  0.62257  0.62244  0.40809  1.0000
  F   F188      1.0  0.62421  0.63349  0.87368  1.0000
  F   F189      1.0  0.87640  0.12709  0.38284  1.0000
  F   F190      1.0  0.87257  0.14521  0.89809  1.0000
  F   F191      1.0  0.87214  0.60126  0.41286  1.0000
  F   F192      1.0  0.87744  0.62939  0.89435  1.0000
  F   F193      1.0  0.00867  0.37171  0.06289  1.0000
  F   F194      1.0  0.00583  0.35937  0.58561  1.0000
  F   F195      1.0  0.00632  0.85160  0.09335  1.0000
  F   F196      1.0  0.00307  0.86910  0.58119  1.0000
  F   F197      1.0  0.25515  0.37125  0.07478  1.0000
  F   F198      1.0  0.25866  0.35365  0.58456  1.0000
  F   F199      1.0  0.26019  0.87181  0.05542  1.0000
  F   F200      1.0  0.26028  0.85767  0.57384  1.0000
  F   F201      1.0  0.50922  0.37501  0.04820  1.0000
  F   F202      1.0  0.50949  0.35423  0.57673  1.0000
  F   F203      1.0  0.51219  0.86494  0.06731  1.0000
  F   F204      1.0  0.50621  0.87419  0.55934  1.0000
  F   F205      1.0  0.75591  0.36240  0.09368  1.0000
  F   F206      1.0  0.75594  0.34330  0.58097  1.0000
  F   F207      1.0  0.75874  0.83107  0.10066  1.0000
  F   F208      1.0  0.75942  0.85320  0.57759  1.0000
  F   F209      1.0  0.07070  0.48278  0.16860  1.0000
  F   F210      1.0  0.06775  0.48642  0.67758  1.0000
  F   F211      1.0  0.06656  0.97883  0.18549  1.0000
  F   F212      1.0  0.06692  0.98240  0.67091  1.0000
  F   F213      1.0  0.31682  0.50487  0.16688  1.0000
  F   F214      1.0  0.31795  0.49593  0.67126  1.0000
  F   F215      1.0  0.31932  0.98637  0.16284  1.0000
  F   F216      1.0  0.32305  0.97559  0.67985  1.0000
  F   F217      1.0  0.56723  0.49125  0.17582  1.0000
  F   F218      1.0  0.57006  0.47865  0.68253  1.0000
  F   F219      1.0  0.57430  0.98308  0.16305  1.0000
  F   F220      1.0  0.57402  0.99235  0.65159  1.0000
  F   F221      1.0  0.82275  0.47622  0.18630  1.0000
  F   F222      1.0  0.81633  0.48936  0.66588  1.0000
  F   F223      1.0  0.82286  0.98227  0.18716  1.0000
  F   F224      1.0  0.80802  0.98735  0.70679  1.0000
  F   F225      1.0  0.24365  0.14754  0.41802  1.0000
  F   F226      1.0  0.23727  0.13257  0.92984  1.0000
  F   F227      1.0  0.24387  0.63183  0.42759  1.0000
  F   F228      1.0  0.24322  0.65115  0.91273  1.0000
  F   F229      1.0  0.48860  0.14702  0.41906  1.0000
  F   F230      1.0  0.49605  0.14684  0.91256  1.0000
  F   F231      1.0  0.49666  0.62166  0.43447  1.0000
  F   F232      1.0  0.49629  0.64703  0.91724  1.0000
  F   F233      1.0  0.74294  0.13249  0.42506  1.0000
  F   F234      1.0  0.74735  0.13076  0.92809  1.0000
  F   F235      1.0  0.74082  0.63956  0.43205  1.0000
  F   F236      1.0  0.74173  0.65676  0.90684  1.0000
  F   F237      1.0  0.99222  0.13724  0.42195  1.0000
  F   F238      1.0  0.99189  0.13841  0.92516  1.0000
  F   F239      1.0  0.99248  0.64385  0.42398  1.0000
  F   F240      1.0  0.98985  0.63329  0.93028  1.0000
  F   F241      1.0  0.18329  0.00814  0.32743  1.0000
  F   F242      1.0  0.17915  0.00820  0.82829  1.0000
  F   F243      1.0  0.17768  0.51282  0.33906  1.0000
  F   F244      1.0  0.17970  0.51744  0.82350  1.0000
  F   F245      1.0  0.43549  0.01509  0.32018  1.0000
  F   F246      1.0  0.43621  0.01613  0.82061  1.0000
  F   F247      1.0  0.43473  0.50690  0.32079  1.0000
  F   F248      1.0  0.42329  0.51293  0.84299  1.0000
  F   F249      1.0  0.68943  0.01875  0.30595  1.0000
  F   F250      1.0  0.68377  0.01595  0.82105  1.0000
  F   F251      1.0  0.68022  0.51239  0.32908  1.0000
  F   F252      1.0  0.68571  0.50760  0.82796  1.0000
  F   F253      1.0  0.92978  0.01743  0.32604  1.0000
  F   F254      1.0  0.93044  0.01435  0.83717  1.0000
  F   F255      1.0  0.93443  0.50909  0.32617  1.0000
  F   F256      1.0  0.93556  0.51792  0.81508  1.0000
  F   F257      1.0  0.99881  0.26323  0.98346  1.0000
  F   F258      1.0  0.00126  0.26802  0.47891  1.0000
  F   F259      1.0  0.00088  0.76500  0.98597  1.0000
  F   F260      1.0  0.99688  0.73553  0.51904  1.0000
  F   F261      1.0  0.24951  0.25906  0.99124  1.0000
  F   F262      1.0  0.25150  0.26159  0.48939  1.0000
  F   F263      1.0  0.25158  0.75023  0.99717  1.0000
  F   F264      1.0  0.25105  0.75142  0.49367  1.0000
  F   F265      1.0  0.50216  0.24667  0.00594  1.0000
  F   F266      1.0  0.49788  0.25623  0.50292  1.0000
  F   F267      1.0  0.50406  0.74373  0.00487  1.0000
  F   F268      1.0  0.50346  0.75586  0.48694  1.0000
  F   F269      1.0  0.74896  0.25164  0.00524  1.0000
  F   F270      1.0  0.74581  0.24071  0.51431  1.0000
  F   F271      1.0  0.75191  0.73832  0.01539  1.0000
  F   F272      1.0  0.75583  0.75511  0.49368  1.0000
  F   F273      1.0  0.12349  0.98256  0.25191  1.0000
  F   F274      1.0  0.11427  0.99795  0.76794  1.0000
  F   F275      1.0  0.11661  0.49479  0.26553  1.0000
  F   F276      1.0  0.12913  0.49796  0.75070  1.0000
  F   F277      1.0  0.37912  0.00139  0.23823  1.0000
  F   F278      1.0  0.37876  0.01454  0.75360  1.0000
  F   F279      1.0  0.37990  0.50819  0.24286  1.0000
  F   F280      1.0  0.38126  0.49990  0.73902  1.0000
  F   F281      1.0  0.61990  0.99442  0.26125  1.0000
  F   F282      1.0  0.63171  0.00757  0.73466  1.0000
  F   F283      1.0  0.62207  0.48864  0.27424  1.0000
  F   F284      1.0  0.62895  0.49924  0.75481  1.0000
  F   F285      1.0  0.87395  0.99024  0.25898  1.0000
  F   F286      1.0  0.88501  0.99662  0.73722  1.0000
  F   F287      1.0  0.88065  0.51179  0.24167  1.0000
  F   F288      1.0  0.88007  0.50688  0.74146  1.0000
  F   F289      1.0  0.04701  0.02016  0.02046  1.0000
  F   F290      1.0  0.03450  0.03013  0.53450  1.0000
  F   F291      1.0  0.04393  0.53851  0.01038  1.0000
  F   F292      1.0  0.03985  0.53723  0.51927  1.0000
  F   F293      1.0  0.29332  0.03826  0.01365  1.0000
  F   F294      1.0  0.29738  0.01687  0.51734  1.0000
  F   F295      1.0  0.29915  0.53825  0.01644  1.0000
  F   F296      1.0  0.29678  0.52396  0.52217  1.0000
  F   F297      1.0  0.53649  0.03264  0.02923  1.0000
  F   F298      1.0  0.53799  0.03992  0.51933  1.0000
  F   F299      1.0  0.55226  0.54687  0.01361  1.0000
  F   F300      1.0  0.54259  0.51519  0.52159  1.0000
  F   F301      1.0  0.79706  0.03259  0.02778  1.0000
  F   F302      1.0  0.79378  0.02714  0.53604  1.0000
  F   F303      1.0  0.78797  0.52417  0.02893  1.0000
  F   F304      1.0  0.79342  0.53003  0.51735  1.0000
  F   F305      1.0  0.22911  0.43431  0.21242  1.0000
  F   F306      1.0  0.23037  0.43094  0.70524  1.0000
  F   F307      1.0  0.23097  0.93442  0.21681  1.0000
  F   F308      1.0  0.24071  0.90333  0.71808  1.0000
  F   F309      1.0  0.48322  0.42806  0.19824  1.0000
  F   F310      1.0  0.48370  0.41167  0.72841  1.0000
  F   F311      1.0  0.48905  0.89671  0.24241  1.0000
  F   F312      1.0  0.48455  0.90670  0.72855  1.0000
  F   F313      1.0  0.73585  0.40874  0.24083  1.0000
  F   F314      1.0  0.73704  0.40803  0.72346  1.0000
  F   F315      1.0  0.73861  0.90281  0.22864  1.0000
  F   F316      1.0  0.73741  0.88421  0.74206  1.0000
  F   F317      1.0  0.98420  0.41528  0.21707  1.0000
  F   F318      1.0  0.98471  0.39946  0.73661  1.0000
  F   F319      1.0  0.98477  0.92417  0.22228  1.0000
  F   F320      1.0  0.98417  0.91189  0.73318  1.0000
  F   F321      1.0  0.21588  0.46752  0.46843  1.0000
  F   F322      1.0  0.20950  0.47780  0.96086  1.0000
  F   F323      1.0  0.20707  0.97858  0.48025  1.0000
  F   F324      1.0  0.20779  0.96408  0.97274  1.0000
  F   F325      1.0  0.45994  0.45269  0.47851  1.0000
  F   F326      1.0  0.45448  0.47330  0.99127  1.0000
  F   F327      1.0  0.45574  0.96753  0.47286  1.0000
  F   F328      1.0  0.45657  0.96869  0.97823  1.0000
  F   F329      1.0  0.70360  0.47663  0.49457  1.0000
  F   F330      1.0  0.72131  0.46514  0.97417  1.0000
  F   F331      1.0  0.70560  0.96391  0.47845  1.0000
  F   F332      1.0  0.71261  0.96254  0.96971  1.0000
  F   F333      1.0  0.95609  0.46460  0.47924  1.0000
  F   F334      1.0  0.95393  0.46466  0.98025  1.0000
  F   F335      1.0  0.96554  0.97007  0.46220  1.0000
  F   F336      1.0  0.96073  0.97338  0.97227  1.0000
  F   F337      1.0  0.01643  0.08316  0.26685  1.0000
  F   F338      1.0  0.01543  0.08427  0.77389  1.0000
  F   F339      1.0  0.02050  0.56977  0.28642  1.0000
  F   F340      1.0  0.01551  0.57512  0.77982  1.0000
  F   F341      1.0  0.26656  0.08117  0.27325  1.0000
  F   F342      1.0  0.26982  0.07010  0.77174  1.0000
  F   F343      1.0  0.26701  0.58606  0.27242  1.0000
  F   F344      1.0  0.26299  0.61158  0.75226  1.0000
  F   F345      1.0  0.52258  0.08415  0.27288  1.0000
  F   F346      1.0  0.51709  0.06150  0.77893  1.0000
  F   F347      1.0  0.51373  0.59814  0.26392  1.0000
  F   F348      1.0  0.51450  0.56949  0.77581  1.0000
  F   F349      1.0  0.76416  0.08567  0.26544  1.0000
  F   F350      1.0  0.75954  0.09626  0.76810  1.0000
  F   F351      1.0  0.76400  0.58975  0.27819  1.0000
  F   F352      1.0  0.76187  0.58906  0.77648  1.0000
  F   F353      1.0  0.09381  0.40078  0.45995  1.0000
  F   F354      1.0  0.09779  0.41436  0.94843  1.0000
  F   F355      1.0  0.09682  0.88676  0.46382  1.0000
  F   F356      1.0  0.09974  0.89787  0.96766  1.0000
  F   F357      1.0  0.34365  0.40599  0.45715  1.0000
  F   F358      1.0  0.34573  0.39846  0.95596  1.0000
  F   F359      1.0  0.35492  0.90616  0.44305  1.0000
  F   F360      1.0  0.35913  0.91044  0.98145  1.0000
  F   F361      1.0  0.60098  0.38950  0.47335  1.0000
  F   F362      1.0  0.59947  0.41413  0.96540  1.0000
  F   F363      1.0  0.60534  0.91822  0.47175  1.0000
  F   F364      1.0  0.60738  0.90515  0.97055  1.0000
  F   F365      1.0  0.84902  0.39924  0.45513  1.0000
  F   F366      1.0  0.84950  0.42450  0.96262  1.0000
  F   F367      1.0  0.85263  0.90296  0.46910  1.0000
  F   F368      1.0  0.84963  0.91355  0.95552  1.0000
  F   F369      1.0  0.05821  0.29914  0.27099  1.0000
  F   F370      1.0  0.04979  0.30038  0.78306  1.0000
  F   F371      1.0  0.04340  0.80669  0.28497  1.0000
  F   F372      1.0  0.04645  0.80259  0.77905  1.0000
  F   F373      1.0  0.29196  0.31700  0.28112  1.0000
  F   F374      1.0  0.28663  0.30666  0.78125  1.0000
  F   F375      1.0  0.29091  0.81198  0.28411  1.0000
  F   F376      1.0  0.30757  0.79860  0.78771  1.0000
  F   F377      1.0  0.54140  0.31517  0.28223  1.0000
  F   F378      1.0  0.55153  0.29726  0.80681  1.0000
  F   F379      1.0  0.54882  0.78356  0.29009  1.0000
  F   F380      1.0  0.54237  0.80640  0.78924  1.0000
  F   F381      1.0  0.79195  0.29522  0.29618  1.0000
  F   F382      1.0  0.79829  0.30235  0.79176  1.0000
  F   F383      1.0  0.79643  0.77896  0.27182  1.0000
  F   F384      1.0  0.80417  0.79218  0.79050  1.0000
