data_image0
_chemical_formula_structural       Hf96F384
_chemical_formula_sum              "Hf96 F384"
_cell_length_a       31.0203
_cell_length_b       15.5125
_cell_length_c       15.505
_cell_angle_alpha    63.342
_cell_angle_beta     63.342
_cell_angle_gamma    80.1625

_space_group_name_H-M_alt    "P 1"
_space_group_IT_number       1

loop_
  _space_group_symop_operation_xyz
  'x, y, z'

loop_
  _atom_site_type_symbol
  _atom_site_label
  _atom_site_symmetry_multiplicity
  _atom_site_fract_x
  _atom_site_fract_y
  _atom_site_fract_z
  _atom_site_occupancy
  Hf  Hf1       1.0  0.19598  0.10210  0.38158  1.0000
  Hf  Hf2       1.0  0.19516  0.11105  0.87756  1.0000
  Hf  Hf3       1.0  0.19938  0.60628  0.37217  1.0000
  Hf  Hf4       1.0  0.19664  0.60862  0.87397  1.0000
  Hf  Hf5       1.0  0.44627  0.11272  0.36483  1.0000
  Hf  Hf6       1.0  0.44487  0.10635  0.88276  1.0000
  Hf  Hf7       1.0  0.45325  0.60769  0.37076  1.0000
  Hf  Hf8       1.0  0.44537  0.60995  0.87781  1.0000
  Hf  Hf9       1.0  0.69442  0.10439  0.38256  1.0000
  Hf  Hf10      1.0  0.69371  0.10860  0.88246  1.0000
  Hf  Hf11      1.0  0.69507  0.60709  0.38037  1.0000
  Hf  Hf12      1.0  0.69651  0.60337  0.87386  1.0000
  Hf  Hf13      1.0  0.94426  0.10921  0.37642  1.0000
  Hf  Hf14      1.0  0.94506  0.10237  0.87710  1.0000
  Hf  Hf15      1.0  0.94462  0.60897  0.37724  1.0000
  Hf  Hf16      1.0  0.94488  0.61605  0.87046  1.0000
  Hf  Hf17      1.0  0.05072  0.39228  0.12684  1.0000
  Hf  Hf18      1.0  0.05227  0.39159  0.62496  1.0000
  Hf  Hf19      1.0  0.05172  0.89640  0.12887  1.0000
  Hf  Hf20      1.0  0.05671  0.89680  0.61437  1.0000
  Hf  Hf21      1.0  0.30538  0.39279  0.12574  1.0000
  Hf  Hf22      1.0  0.30214  0.39527  0.62662  1.0000
  Hf  Hf23      1.0  0.30304  0.89030  0.12489  1.0000
  Hf  Hf24      1.0  0.30368  0.89301  0.62119  1.0000
  Hf  Hf25      1.0  0.55412  0.39374  0.12293  1.0000
  Hf  Hf26      1.0  0.55406  0.38972  0.62757  1.0000
  Hf  Hf27      1.0  0.55675  0.89503  0.12791  1.0000
  Hf  Hf28      1.0  0.55999  0.89331  0.61256  1.0000
  Hf  Hf29      1.0  0.79805  0.39213  0.13208  1.0000
  Hf  Hf30      1.0  0.80322  0.39059  0.62110  1.0000
  Hf  Hf31      1.0  0.80165  0.89316  0.12649  1.0000
  Hf  Hf32      1.0  0.80392  0.89433  0.62250  1.0000
  Hf  Hf33      1.0  0.05593  0.19052  0.41291  1.0000
  Hf  Hf34      1.0  0.05414  0.18584  0.92243  1.0000
  Hf  Hf35      1.0  0.05779  0.67824  0.41089  1.0000
  Hf  Hf36      1.0  0.05486  0.68743  0.90899  1.0000
  Hf  Hf37      1.0  0.30468  0.19005  0.41776  1.0000
  Hf  Hf38      1.0  0.30962  0.18622  0.91205  1.0000
  Hf  Hf39      1.0  0.30737  0.68486  0.41890  1.0000
  Hf  Hf40      1.0  0.30460  0.68637  0.91441  1.0000
  Hf  Hf41      1.0  0.55766  0.18369  0.41601  1.0000
  Hf  Hf42      1.0  0.55727  0.18050  0.91840  1.0000
  Hf  Hf43      1.0  0.55923  0.68280  0.41747  1.0000
  Hf  Hf44      1.0  0.55661  0.69582  0.91275  1.0000
  Hf  Hf45      1.0  0.80238  0.17900  0.41891  1.0000
  Hf  Hf46      1.0  0.80637  0.18394  0.91042  1.0000
  Hf  Hf47      1.0  0.80376  0.67727  0.41760  1.0000
  Hf  Hf48      1.0  0.80645  0.68271  0.91178  1.0000
  Hf  Hf49      1.0  0.15792  0.38672  0.33207  1.0000
  Hf  Hf50      1.0  0.15657  0.39085  0.83408  1.0000
  Hf  Hf51      1.0  0.15939  0.88615  0.33680  1.0000
  Hf  Hf52      1.0  0.15809  0.88700  0.84170  1.0000
  Hf  Hf53      1.0  0.40934  0.38554  0.33628  1.0000
  Hf  Hf54      1.0  0.40843  0.38553  0.83812  1.0000
  Hf  Hf55      1.0  0.41161  0.89144  0.32608  1.0000
  Hf  Hf56      1.0  0.40791  0.88455  0.83750  1.0000
  Hf  Hf57      1.0  0.65493  0.38261  0.34025  1.0000
  Hf  Hf58      1.0  0.66133  0.38503  0.83411  1.0000
  Hf  Hf59      1.0  0.66219  0.88649  0.33328  1.0000
  Hf  Hf60      1.0  0.66089  0.89223  0.83332  1.0000
  Hf  Hf61      1.0  0.90554  0.38972  0.33080  1.0000
  Hf  Hf62      1.0  0.91045  0.38780  0.83529  1.0000
  Hf  Hf63      1.0  0.90830  0.88234  0.33694  1.0000
  Hf  Hf64      1.0  0.90680  0.89118  0.83017  1.0000
  Hf  Hf65      1.0  0.19650  0.32058  0.08275  1.0000
  Hf  Hf66      1.0  0.19411  0.31874  0.58395  1.0000
  Hf  Hf67      1.0  0.19079  0.81924  0.08360  1.0000
  Hf  Hf68      1.0  0.19402  0.80744  0.59721  1.0000
  Hf  Hf69      1.0  0.44369  0.32052  0.08643  1.0000
  Hf  Hf70      1.0  0.44234  0.31509  0.58843  1.0000
  Hf  Hf71      1.0  0.44447  0.81653  0.08074  1.0000
  Hf  Hf72      1.0  0.44512  0.82060  0.57701  1.0000
  Hf  Hf73      1.0  0.69476  0.32121  0.08060  1.0000
  Hf  Hf74      1.0  0.69561  0.31338  0.57831  1.0000
  Hf  Hf75      1.0  0.69535  0.81613  0.07443  1.0000
  Hf  Hf76      1.0  0.69421  0.80911  0.59466  1.0000
  Hf  Hf77      1.0  0.94241  0.32584  0.08119  1.0000
  Hf  Hf78      1.0  0.94138  0.31126  0.58765  1.0000
  Hf  Hf79      1.0  0.94393  0.81729  0.07512  1.0000
  Hf  Hf80      1.0  0.94566  0.81436  0.58363  1.0000
  Hf  Hf81      1.0  0.09435  0.10997  0.17080  1.0000
  Hf  Hf82      1.0  0.09044  0.10935  0.67168  1.0000
  Hf  Hf83      1.0  0.09144  0.61715  0.15693  1.0000
  Hf  Hf84      1.0  0.08834  0.61058  0.66954  1.0000
  Hf  Hf85      1.0  0.33740  0.10714  0.17448  1.0000
  Hf  Hf86      1.0  0.34200  0.11533  0.66012  1.0000
  Hf  Hf87      1.0  0.33996  0.60740  0.17289  1.0000
  Hf  Hf88      1.0  0.34668  0.61493  0.65787  1.0000
  Hf  Hf89      1.0  0.59179  0.10966  0.17249  1.0000
  Hf  Hf90      1.0  0.58748  0.11154  0.67009  1.0000
  Hf  Hf91      1.0  0.59550  0.61248  0.15606  1.0000
  Hf  Hf92      1.0  0.59092  0.60541  0.67371  1.0000
  Hf  Hf93      1.0  0.83805  0.11366  0.16794  1.0000
  Hf  Hf94      1.0  0.83799  0.10382  0.67268  1.0000
  Hf  Hf95      1.0  0.84019  0.61343  0.16277  1.0000
  Hf  Hf96      1.0  0.84395  0.61348  0.66204  1.0000
  F   F1        1.0  0.08474  0.14980  0.29112  1.0000
  F   F2        1.0  0.07782  0.12069  0.81618  1.0000
  F   F3        1.0  0.08402  0.65239  0.27765  1.0000
  F   F4        1.0  0.07148  0.62908  0.80173  1.0000
  F   F5        1.0  0.32600  0.12887  0.30561  1.0000
  F   F6        1.0  0.33822  0.15677  0.79084  1.0000
  F   F7        1.0  0.32162  0.62198  0.31220  1.0000
  F   F8        1.0  0.33315  0.63576  0.79512  1.0000
  F   F9        1.0  0.57264  0.11759  0.31426  1.0000
  F   F10       1.0  0.58339  0.12471  0.80832  1.0000
  F   F11       1.0  0.58618  0.63060  0.30350  1.0000
  F   F12       1.0  0.57702  0.62574  0.80252  1.0000
  F   F13       1.0  0.82629  0.12437  0.30847  1.0000
  F   F14       1.0  0.82804  0.12303  0.80873  1.0000
  F   F15       1.0  0.82766  0.63603  0.29282  1.0000
  F   F16       1.0  0.82831  0.62694  0.80325  1.0000
  F   F17       1.0  0.17559  0.33369  0.46528  1.0000
  F   F18       1.0  0.18023  0.34185  0.95832  1.0000
  F   F19       1.0  0.18038  0.82686  0.45563  1.0000
  F   F20       1.0  0.19314  0.84378  0.94315  1.0000
  F   F21       1.0  0.43877  0.34206  0.44555  1.0000
  F   F22       1.0  0.43537  0.34708  0.94672  1.0000
  F   F23       1.0  0.43042  0.84577  0.44961  1.0000
  F   F24       1.0  0.44233  0.83280  0.94225  1.0000
  F   F25       1.0  0.69063  0.34367  0.43939  1.0000
  F   F26       1.0  0.68966  0.33273  0.94615  1.0000
  F   F27       1.0  0.68383  0.82816  0.45740  1.0000
  F   F28       1.0  0.69220  0.84640  0.93862  1.0000
  F   F29       1.0  0.93406  0.33248  0.43939  1.0000
  F   F30       1.0  0.94307  0.35426  0.93980  1.0000
  F   F31       1.0  0.93458  0.84784  0.45055  1.0000
  F   F32       1.0  0.94135  0.84683  0.93308  1.0000
  F   F33       1.0  0.17591  0.38397  0.18681  1.0000
  F   F34       1.0  0.16632  0.35559  0.70307  1.0000
  F   F35       1.0  0.17061  0.87119  0.19921  1.0000
  F   F36       1.0  0.16778  0.85924  0.70632  1.0000
  F   F37       1.0  0.42157  0.36502  0.19723  1.0000
  F   F38       1.0  0.41932  0.34237  0.72164  1.0000
  F   F39       1.0  0.42437  0.88272  0.18836  1.0000
  F   F40       1.0  0.41810  0.86631  0.69864  1.0000
  F   F41       1.0  0.65845  0.36566  0.20199  1.0000
  F   F42       1.0  0.67515  0.36888  0.69613  1.0000
  F   F43       1.0  0.67121  0.85251  0.20574  1.0000
  F   F44       1.0  0.66688  0.87293  0.69543  1.0000
  F   F45       1.0  0.92150  0.38317  0.18909  1.0000
  F   F46       1.0  0.91953  0.35733  0.70432  1.0000
  F   F47       1.0  0.91646  0.86693  0.19494  1.0000
  F   F48       1.0  0.92562  0.86734  0.69025  1.0000
  F   F49       1.0  0.07138  0.15951  0.04504  1.0000
  F   F50       1.0  0.07816  0.17172  0.53781  1.0000
  F   F51       1.0  0.06805  0.67037  0.03899  1.0000
  F   F52       1.0  0.06448  0.65759  0.54276  1.0000
  F   F53       1.0  0.31204  0.13805  0.06207  1.0000
  F   F54       1.0  0.31187  0.17606  0.55474  1.0000
  F   F55       1.0  0.32347  0.66425  0.04512  1.0000
  F   F56       1.0  0.30607  0.64884  0.56668  1.0000
  F   F57       1.0  0.56112  0.14154  0.06191  1.0000
  F   F58       1.0  0.55900  0.16194  0.56035  1.0000
  F   F59       1.0  0.56743  0.65865  0.05082  1.0000
  F   F60       1.0  0.55747  0.66029  0.55755  1.0000
  F   F61       1.0  0.81068  0.14001  0.06026  1.0000
  F   F62       1.0  0.80853  0.15406  0.55784  1.0000
  F   F63       1.0  0.81988  0.67077  0.04132  1.0000
  F   F64       1.0  0.81242  0.65361  0.55954  1.0000
  F   F65       1.0  0.20562  0.20002  0.21459  1.0000
  F   F66       1.0  0.20964  0.19431  0.71276  1.0000
  F   F67       1.0  0.20308  0.69239  0.21077  1.0000
  F   F68       1.0  0.21777  0.70156  0.69995  1.0000
  F   F69       1.0  0.45916  0.21186  0.21486  1.0000
  F   F70       1.0  0.44998  0.18521  0.72328  1.0000
  F   F71       1.0  0.45793  0.70077  0.20127  1.0000
  F   F72       1.0  0.46214  0.71595  0.70888  1.0000
  F   F73       1.0  0.70667  0.20633  0.20519  1.0000
  F   F74       1.0  0.69668  0.20488  0.71733  1.0000
  F   F75       1.0  0.70209  0.69298  0.21073  1.0000
  F   F76       1.0  0.71444  0.70643  0.71305  1.0000
  F   F77       1.0  0.94648  0.19989  0.20302  1.0000
  F   F78       1.0  0.96555  0.20505  0.71375  1.0000
  F   F79       1.0  0.94711  0.69604  0.20872  1.0000
  F   F80       1.0  0.95806  0.70300  0.70492  1.0000
  F   F81       1.0  0.14882  0.07423  0.04236  1.0000
  F   F82       1.0  0.15462  0.09049  0.54731  1.0000
  F   F83       1.0  0.15220  0.58627  0.02963  1.0000
  F   F84       1.0  0.14541  0.59125  0.54262  1.0000
  F   F85       1.0  0.39606  0.08680  0.05380  1.0000
  F   F86       1.0  0.39456  0.09668  0.53733  1.0000
  F   F87       1.0  0.40103  0.58326  0.04913  1.0000
  F   F88       1.0  0.40359  0.60837  0.52504  1.0000
  F   F89       1.0  0.64884  0.06986  0.05521  1.0000
  F   F90       1.0  0.64445  0.09547  0.53128  1.0000
  F   F91       1.0  0.65041  0.58173  0.03119  1.0000
  F   F92       1.0  0.65310  0.59035  0.53730  1.0000
  F   F93       1.0  0.89944  0.09031  0.03249  1.0000
  F   F94       1.0  0.89400  0.10512  0.53783  1.0000
  F   F95       1.0  0.89869  0.58999  0.04019  1.0000
  F   F96       1.0  0.90205  0.58707  0.54211  1.0000
  F   F97       1.0  0.15642  0.18747  0.11583  1.0000
  F   F98       1.0  0.15004  0.19637  0.63538  1.0000
  F   F99       1.0  0.14924  0.69621  0.10482  1.0000
  F   F100      1.0  0.15592  0.69035  0.63671  1.0000
  F   F101      1.0  0.41083  0.20347  0.11990  1.0000
  F   F102      1.0  0.40363  0.19032  0.62321  1.0000
  F   F103      1.0  0.39584  0.70205  0.12512  1.0000
  F   F104      1.0  0.40495  0.69155  0.63285  1.0000
  F   F105      1.0  0.64706  0.18827  0.13377  1.0000
  F   F106      1.0  0.65307  0.18669  0.61912  1.0000
  F   F107      1.0  0.65445  0.70180  0.10193  1.0000
  F   F108      1.0  0.65452  0.68972  0.62783  1.0000
  F   F109      1.0  0.89749  0.19386  0.11821  1.0000
  F   F110      1.0  0.90362  0.19363  0.63555  1.0000
  F   F111      1.0  0.89797  0.70371  0.11701  1.0000
  F   F112      1.0  0.90493  0.69747  0.61482  1.0000
  F   F113      1.0  0.09817  0.30892  0.36767  1.0000
  F   F114      1.0  0.09853  0.31116  0.88716  1.0000
  F   F115      1.0  0.10159  0.80201  0.36175  1.0000
  F   F116      1.0  0.09333  0.80728  0.86659  1.0000
  F   F117      1.0  0.34955  0.30467  0.36176  1.0000
  F   F118      1.0  0.34913  0.30003  0.88283  1.0000
  F   F119      1.0  0.35228  0.80117  0.37656  1.0000
  F   F120      1.0  0.34308  0.80286  0.87559  1.0000
  F   F121      1.0  0.59325  0.31154  0.39063  1.0000
  F   F122      1.0  0.59896  0.30266  0.87315  1.0000
  F   F123      1.0  0.60003  0.80305  0.38867  1.0000
  F   F124      1.0  0.59462  0.80511  0.87583  1.0000
  F   F125      1.0  0.84347  0.29814  0.36540  1.0000
  F   F126      1.0  0.84716  0.29997  0.87556  1.0000
  F   F127      1.0  0.84889  0.78624  0.39033  1.0000
  F   F128      1.0  0.84453  0.80552  0.86299  1.0000
  F   F129      1.0  0.06346  0.25470  0.14437  1.0000
  F   F130      1.0  0.05841  0.24041  0.66852  1.0000
  F   F131      1.0  0.06596  0.76248  0.13772  1.0000
  F   F132      1.0  0.06697  0.74869  0.62705  1.0000
  F   F133      1.0  0.32208  0.24912  0.13343  1.0000
  F   F134      1.0  0.31559  0.25351  0.64916  1.0000
  F   F135      1.0  0.31030  0.74287  0.14914  1.0000
  F   F136      1.0  0.31641  0.75356  0.62726  1.0000
  F   F137      1.0  0.55870  0.24952  0.14304  1.0000
  F   F138      1.0  0.56755  0.24900  0.64408  1.0000
  F   F139      1.0  0.56870  0.75096  0.14987  1.0000
  F   F140      1.0  0.56487  0.75210  0.63821  1.0000
  F   F141      1.0  0.81098  0.24383  0.13749  1.0000
  F   F142      1.0  0.82819  0.24865  0.62912  1.0000
  F   F143      1.0  0.81209  0.76070  0.13362  1.0000
  F   F144      1.0  0.81632  0.75480  0.63883  1.0000
  F   F145      1.0  0.12336  0.34459  0.14593  1.0000
  F   F146      1.0  0.12041  0.37839  0.61366  1.0000
  F   F147      1.0  0.12549  0.87899  0.10630  1.0000
  F   F148      1.0  0.12622  0.87182  0.59835  1.0000
  F   F149      1.0  0.37553  0.37043  0.10387  1.0000
  F   F150      1.0  0.37689  0.38204  0.58959  1.0000
  F   F151      1.0  0.37765  0.87110  0.10206  1.0000
  F   F152      1.0  0.36608  0.85362  0.62618  1.0000
  F   F153      1.0  0.62593  0.36982  0.08925  1.0000
  F   F154      1.0  0.62903  0.37697  0.60048  1.0000
  F   F155      1.0  0.63025  0.88026  0.09502  1.0000
  F   F156      1.0  0.62766  0.86422  0.60885  1.0000
  F   F157      1.0  0.86931  0.36293  0.11756  1.0000
  F   F158      1.0  0.87767  0.39041  0.58872  1.0000
  F   F159      1.0  0.87177  0.87148  0.10317  1.0000
  F   F160      1.0  0.87157  0.86967  0.62767  1.0000
  F   F161      1.0  0.18955  0.24855  0.35738  1.0000
  F   F162      1.0  0.18648  0.25117  0.85663  1.0000
  F   F163      1.0  0.18872  0.74430  0.35721  1.0000
  F   F164      1.0  0.17285  0.73899  0.88212  1.0000
  F   F165      1.0  0.42779  0.25118  0.36881  1.0000
  F   F166      1.0  0.44198  0.24855  0.86165  1.0000
  F   F167      1.0  0.44241  0.75424  0.34876  1.0000
  F   F168      1.0  0.42148  0.73144  0.89540  1.0000
  F   F169      1.0  0.67976  0.25197  0.35644  1.0000
  F   F170      1.0  0.68430  0.24514  0.86579  1.0000
  F   F171      1.0  0.69270  0.75273  0.35033  1.0000
  F   F172      1.0  0.67549  0.75083  0.86989  1.0000
  F   F173      1.0  0.93234  0.25225  0.34017  1.0000
  F   F174      1.0  0.93039  0.24610  0.88828  1.0000
  F   F175      1.0  0.93680  0.75005  0.35851  1.0000
  F   F176      1.0  0.92359  0.74593  0.87463  1.0000
  F   F177      1.0  0.13071  0.13288  0.39077  1.0000
  F   F178      1.0  0.13085  0.15354  0.87354  1.0000
  F   F179      1.0  0.12485  0.61594  0.39837  1.0000
  F   F180      1.0  0.12821  0.62842  0.87509  1.0000
  F   F181      1.0  0.37472  0.14576  0.38105  1.0000
  F   F182      1.0  0.37711  0.12236  0.90143  1.0000
  F   F183      1.0  0.38227  0.64167  0.37375  1.0000
  F   F184      1.0  0.37371  0.62352  0.89639  1.0000
  F   F185      1.0  0.62627  0.15401  0.35494  1.0000
  F   F186      1.0  0.62416  0.11873  0.90806  1.0000
  F   F187      1.0  0.62853  0.64453  0.38225  1.0000
  F   F188      1.0  0.62801  0.63829  0.87584  1.0000
  F   F189      1.0  0.87208  0.12906  0.39596  1.0000
  F   F190      1.0  0.87866  0.14842  0.86804  1.0000
  F   F191      1.0  0.87332  0.60560  0.41258  1.0000
  F   F192      1.0  0.87428  0.61872  0.90143  1.0000
  F   F193      1.0  0.00576  0.36335  0.08183  1.0000
  F   F194      1.0  0.00797  0.36893  0.56268  1.0000
  F   F195      1.0  0.00197  0.87014  0.07854  1.0000
  F   F196      1.0  0.00495  0.85735  0.58095  1.0000
  F   F197      1.0  0.26037  0.34730  0.07664  1.0000
  F   F198      1.0  0.25527  0.36963  0.57527  1.0000
  F   F199      1.0  0.25779  0.85940  0.07830  1.0000
  F   F200      1.0  0.25537  0.86234  0.57183  1.0000
  F   F201      1.0  0.51247  0.36917  0.06373  1.0000
  F   F202      1.0  0.50669  0.34486  0.59826  1.0000
  F   F203      1.0  0.50692  0.85809  0.08224  1.0000
  F   F204      1.0  0.50618  0.87609  0.56349  1.0000
  F   F205      1.0  0.75080  0.38289  0.07965  1.0000
  F   F206      1.0  0.75756  0.33802  0.59047  1.0000
  F   F207      1.0  0.75364  0.86090  0.08044  1.0000
  F   F208      1.0  0.75709  0.85365  0.58154  1.0000
  F   F209      1.0  0.07344  0.49522  0.14333  1.0000
  F   F210      1.0  0.06894  0.49023  0.67301  1.0000
  F   F211      1.0  0.06030  0.99081  0.18452  1.0000
  F   F212      1.0  0.07553  0.98203  0.66171  1.0000
  F   F213      1.0  0.32022  0.47121  0.19646  1.0000
  F   F214      1.0  0.32682  0.49114  0.66308  1.0000
  F   F215      1.0  0.32082  0.97077  0.18565  1.0000
  F   F216      1.0  0.31861  0.98733  0.66896  1.0000
  F   F217      1.0  0.57002  0.48257  0.17584  1.0000
  F   F218      1.0  0.57008  0.48789  0.67006  1.0000
  F   F219      1.0  0.57162  0.97540  0.19222  1.0000
  F   F220      1.0  0.56934  0.98871  0.66553  1.0000
  F   F221      1.0  0.81789  0.48397  0.17803  1.0000
  F   F222      1.0  0.81538  0.49228  0.66206  1.0000
  F   F223      1.0  0.81952  0.97545  0.19073  1.0000
  F   F224      1.0  0.81486  0.98799  0.67735  1.0000
  F   F225      1.0  0.24097  0.14136  0.42049  1.0000
  F   F226      1.0  0.24572  0.14381  0.91667  1.0000
  F   F227      1.0  0.24057  0.63715  0.42312  1.0000
  F   F228      1.0  0.24403  0.64215  0.92270  1.0000
  F   F229      1.0  0.49257  0.14005  0.41656  1.0000
  F   F230      1.0  0.49274  0.13208  0.93594  1.0000
  F   F231      1.0  0.49736  0.65342  0.41435  1.0000
  F   F232      1.0  0.49463  0.64858  0.92032  1.0000
  F   F233      1.0  0.73804  0.13219  0.42957  1.0000
  F   F234      1.0  0.74383  0.13261  0.92961  1.0000
  F   F235      1.0  0.74256  0.63183  0.42452  1.0000
  F   F236      1.0  0.73537  0.63024  0.93281  1.0000
  F   F237      1.0  0.99388  0.14287  0.42018  1.0000
  F   F238      1.0  0.99659  0.13398  0.91735  1.0000
  F   F239      1.0  0.99117  0.63701  0.42687  1.0000
  F   F240      1.0  0.98889  0.64813  0.91267  1.0000
  F   F241      1.0  0.18431  0.00370  0.31712  1.0000
  F   F242      1.0  0.17834  0.01035  0.83179  1.0000
  F   F243      1.0  0.17929  0.51004  0.32675  1.0000
  F   F244      1.0  0.18388  0.51003  0.82990  1.0000
  F   F245      1.0  0.43658  0.02655  0.30376  1.0000
  F   F246      1.0  0.43735  0.00879  0.81973  1.0000
  F   F247      1.0  0.43676  0.50339  0.33329  1.0000
  F   F248      1.0  0.43843  0.50811  0.81767  1.0000
  F   F249      1.0  0.68425  0.00762  0.33541  1.0000
  F   F250      1.0  0.68249  0.01286  0.83354  1.0000
  F   F251      1.0  0.67171  0.51127  0.34543  1.0000
  F   F252      1.0  0.68527  0.51157  0.82590  1.0000
  F   F253      1.0  0.93468  0.00663  0.33427  1.0000
  F   F254      1.0  0.92956  0.01688  0.81896  1.0000
  F   F255      1.0  0.93221  0.51119  0.31982  1.0000
  F   F256      1.0  0.93398  0.51018  0.81253  1.0000
  F   F257      1.0  0.00569  0.25033  0.00631  1.0000
  F   F258      1.0  0.00210  0.24696  0.50258  1.0000
  F   F259      1.0  0.99465  0.74227  0.00121  1.0000
  F   F260      1.0  0.00389  0.75529  0.48817  1.0000
  F   F261      1.0  0.25356  0.24787  0.99955  1.0000
  F   F262      1.0  0.25000  0.27445  0.48552  1.0000
  F   F263      1.0  0.24542  0.73702  0.01513  1.0000
  F   F264      1.0  0.25465  0.76197  0.48109  1.0000
  F   F265      1.0  0.50441  0.25831  0.99825  1.0000
  F   F266      1.0  0.50320  0.25490  0.49649  1.0000
  F   F267      1.0  0.50183  0.74230  0.00426  1.0000
  F   F268      1.0  0.49922  0.77357  0.47603  1.0000
  F   F269      1.0  0.75436  0.27953  0.98809  1.0000
  F   F270      1.0  0.74913  0.24973  0.49239  1.0000
  F   F271      1.0  0.75212  0.73108  0.00109  1.0000
  F   F272      1.0  0.75048  0.74112  0.50888  1.0000
  F   F273      1.0  0.11046  0.98649  0.27354  1.0000
  F   F274      1.0  0.12492  0.00371  0.75143  1.0000
  F   F275      1.0  0.11793  0.50645  0.25759  1.0000
  F   F276      1.0  0.13649  0.50673  0.72725  1.0000
  F   F277      1.0  0.37242  0.99807  0.26272  1.0000
  F   F278      1.0  0.37214  0.00916  0.75165  1.0000
  F   F279      1.0  0.38279  0.50710  0.24642  1.0000
  F   F280      1.0  0.37558  0.50720  0.74936  1.0000
  F   F281      1.0  0.62644  0.00177  0.25650  1.0000
  F   F282      1.0  0.62685  0.00711  0.74741  1.0000
  F   F283      1.0  0.63160  0.50811  0.24231  1.0000
  F   F284      1.0  0.63001  0.49489  0.74657  1.0000
  F   F285      1.0  0.87879  0.99558  0.25199  1.0000
  F   F286      1.0  0.87533  0.99350  0.73536  1.0000
  F   F287      1.0  0.87258  0.50070  0.25727  1.0000
  F   F288      1.0  0.87402  0.49953  0.74384  1.0000
  F   F289      1.0  0.05083  0.03418  0.01274  1.0000
  F   F290      1.0  0.04791  0.04717  0.51775  1.0000
  F   F291      1.0  0.04007  0.53807  0.01353  1.0000
  F   F292      1.0  0.04428  0.52886  0.51412  1.0000
  F   F293      1.0  0.29573  0.01696  0.02420  1.0000
  F   F294      1.0  0.28634  0.04768  0.52580  1.0000
  F   F295      1.0  0.28894  0.53413  0.03773  1.0000
  F   F296      1.0  0.28580  0.53363  0.52206  1.0000
  F   F297      1.0  0.54137  0.01906  0.02385  1.0000
  F   F298      1.0  0.54742  0.03228  0.51527  1.0000
  F   F299      1.0  0.54309  0.54152  0.01825  1.0000
  F   F300      1.0  0.54551  0.53726  0.52265  1.0000
  F   F301      1.0  0.80008  0.01873  0.01280  1.0000
  F   F302      1.0  0.79433  0.03287  0.51483  1.0000
  F   F303      1.0  0.79456  0.53527  0.03265  1.0000
  F   F304      1.0  0.79067  0.52415  0.52068  1.0000
  F   F305      1.0  0.23444  0.42362  0.22621  1.0000
  F   F306      1.0  0.23269  0.41123  0.74138  1.0000
  F   F307      1.0  0.23545  0.91178  0.23117  1.0000
  F   F308      1.0  0.23502  0.92062  0.71386  1.0000
  F   F309      1.0  0.48687  0.41309  0.21837  1.0000
  F   F310      1.0  0.48250  0.42596  0.71614  1.0000
  F   F311      1.0  0.48986  0.92009  0.22723  1.0000
  F   F312      1.0  0.48525  0.90392  0.72387  1.0000
  F   F313      1.0  0.72787  0.41558  0.23365  1.0000
  F   F314      1.0  0.73667  0.41725  0.72278  1.0000
  F   F315      1.0  0.73584  0.93451  0.21698  1.0000
  F   F316      1.0  0.73308  0.91452  0.71755  1.0000
  F   F317      1.0  0.98555  0.41985  0.22496  1.0000
  F   F318      1.0  0.98331  0.40486  0.72591  1.0000
  F   F319      1.0  0.97609  0.92389  0.22509  1.0000
  F   F320      1.0  0.98345  0.89930  0.73701  1.0000
  F   F321      1.0  0.20332  0.46663  0.48618  1.0000
  F   F322      1.0  0.20723  0.46804  0.97729  1.0000
  F   F323      1.0  0.20939  0.96838  0.47031  1.0000
  F   F324      1.0  0.20609  0.96913  0.97884  1.0000
  F   F325      1.0  0.46529  0.46948  0.47828  1.0000
  F   F326      1.0  0.45147  0.47257  0.98783  1.0000
  F   F327      1.0  0.44516  0.97313  0.48583  1.0000
  F   F328      1.0  0.45948  0.97393  0.97745  1.0000
  F   F329      1.0  0.71593  0.46716  0.47202  1.0000
  F   F330      1.0  0.71083  0.46325  0.97168  1.0000
  F   F331      1.0  0.70523  0.96712  0.48364  1.0000
  F   F332      1.0  0.70964  0.96744  0.97305  1.0000
  F   F333      1.0  0.95510  0.47130  0.47072  1.0000
  F   F334      1.0  0.95137  0.47915  0.98565  1.0000
  F   F335      1.0  0.94782  0.97920  0.49934  1.0000
  F   F336      1.0  0.95408  0.96305  0.97863  1.0000
  F   F337      1.0  0.01405  0.09827  0.27452  1.0000
  F   F338      1.0  0.01904  0.07400  0.76487  1.0000
  F   F339      1.0  0.01631  0.58743  0.26487  1.0000
  F   F340      1.0  0.01063  0.57898  0.77658  1.0000
  F   F341      1.0  0.26638  0.07535  0.27448  1.0000
  F   F342      1.0  0.26905  0.07607  0.78347  1.0000
  F   F343      1.0  0.26175  0.58867  0.26761  1.0000
  F   F344      1.0  0.26687  0.58648  0.77669  1.0000
  F   F345      1.0  0.51542  0.08525  0.27401  1.0000
  F   F346      1.0  0.51556  0.08476  0.77692  1.0000
  F   F347      1.0  0.52034  0.58922  0.26858  1.0000
  F   F348      1.0  0.51497  0.58058  0.78735  1.0000
  F   F349      1.0  0.76309  0.07768  0.27535  1.0000
  F   F350      1.0  0.76227  0.09788  0.77838  1.0000
  F   F351      1.0  0.76399  0.58715  0.26881  1.0000
  F   F352      1.0  0.76950  0.58150  0.77587  1.0000
  F   F353      1.0  0.09405  0.39189  0.47279  1.0000
  F   F354      1.0  0.10001  0.41393  0.96906  1.0000
  F   F355      1.0  0.09586  0.91344  0.46137  1.0000
  F   F356      1.0  0.10141  0.89270  0.96734  1.0000
  F   F357      1.0  0.35008  0.40213  0.45755  1.0000
  F   F358      1.0  0.35143  0.42615  0.95321  1.0000
  F   F359      1.0  0.35161  0.92963  0.45577  1.0000
  F   F360      1.0  0.35409  0.89848  0.96335  1.0000
  F   F361      1.0  0.60052  0.39572  0.47270  1.0000
  F   F362      1.0  0.60071  0.40225  0.95494  1.0000
  F   F363      1.0  0.60962  0.91708  0.45852  1.0000
  F   F364      1.0  0.60535  0.89463  0.96121  1.0000
  F   F365      1.0  0.84922  0.39295  0.45914  1.0000
  F   F366      1.0  0.84615  0.40079  0.96943  1.0000
  F   F367      1.0  0.85435  0.89770  0.46698  1.0000
  F   F368      1.0  0.84999  0.90043  0.95291  1.0000
  F   F369      1.0  0.04394  0.30354  0.29375  1.0000
  F   F370      1.0  0.04272  0.30384  0.80291  1.0000
  F   F371      1.0  0.03995  0.80092  0.28964  1.0000
  F   F372      1.0  0.05115  0.80102  0.76809  1.0000
  F   F373      1.0  0.29745  0.30470  0.27670  1.0000
  F   F374      1.0  0.29805  0.31791  0.78838  1.0000
  F   F375      1.0  0.29541  0.79490  0.29058  1.0000
  F   F376      1.0  0.28926  0.79187  0.79553  1.0000
  F   F377      1.0  0.55185  0.29995  0.27990  1.0000
  F   F378      1.0  0.54781  0.31255  0.77674  1.0000
  F   F379      1.0  0.55286  0.80800  0.27935  1.0000
  F   F380      1.0  0.55014  0.79774  0.77557  1.0000
  F   F381      1.0  0.78822  0.28593  0.29047  1.0000
  F   F382      1.0  0.79482  0.29662  0.77548  1.0000
  F   F383      1.0  0.79443  0.79601  0.29911  1.0000
  F   F384      1.0  0.79355  0.79880  0.78004  1.0000
