data_image0
_chemical_formula_structural       Hf96F384
_chemical_formula_sum              "Hf96 F384"
_cell_length_a       31.0086
_cell_length_b       15.5025
_cell_length_c       15.4943
_cell_angle_alpha    63.342
_cell_angle_beta     63.342
_cell_angle_gamma    80.1625

_space_group_name_H-M_alt    "P 1"
_space_group_IT_number       1

loop_
  _space_group_symop_operation_xyz
  'x, y, z'

loop_
  _atom_site_type_symbol
  _atom_site_label
  _atom_site_symmetry_multiplicity
  _atom_site_fract_x
  _atom_site_fract_y
  _atom_site_fract_z
  _atom_site_occupancy
  Hf  Hf1       1.0  0.19723  0.11113  0.37546  1.0000
  Hf  Hf2       1.0  0.19752  0.10573  0.87557  1.0000
  Hf  Hf3       1.0  0.19254  0.60500  0.37326  1.0000
  Hf  Hf4       1.0  0.19647  0.61043  0.87533  1.0000
  Hf  Hf5       1.0  0.44502  0.11049  0.37661  1.0000
  Hf  Hf6       1.0  0.44664  0.10896  0.87287  1.0000
  Hf  Hf7       1.0  0.44169  0.60112  0.38418  1.0000
  Hf  Hf8       1.0  0.44454  0.60638  0.88022  1.0000
  Hf  Hf9       1.0  0.69752  0.10526  0.37084  1.0000
  Hf  Hf10      1.0  0.69881  0.09961  0.88066  1.0000
  Hf  Hf11      1.0  0.69629  0.59589  0.37918  1.0000
  Hf  Hf12      1.0  0.69500  0.60861  0.87255  1.0000
  Hf  Hf13      1.0  0.94803  0.11013  0.37038  1.0000
  Hf  Hf14      1.0  0.94573  0.11201  0.87717  1.0000
  Hf  Hf15      1.0  0.94732  0.60741  0.37630  1.0000
  Hf  Hf16      1.0  0.94677  0.60845  0.88204  1.0000
  Hf  Hf17      1.0  0.05186  0.39120  0.13822  1.0000
  Hf  Hf18      1.0  0.05307  0.39832  0.62870  1.0000
  Hf  Hf19      1.0  0.05053  0.89240  0.13064  1.0000
  Hf  Hf20      1.0  0.05564  0.89106  0.61695  1.0000
  Hf  Hf21      1.0  0.30119  0.39383  0.12553  1.0000
  Hf  Hf22      1.0  0.30404  0.39717  0.62404  1.0000
  Hf  Hf23      1.0  0.30638  0.90025  0.11481  1.0000
  Hf  Hf24      1.0  0.30410  0.89469  0.62227  1.0000
  Hf  Hf25      1.0  0.55520  0.38887  0.12276  1.0000
  Hf  Hf26      1.0  0.55601  0.38730  0.63125  1.0000
  Hf  Hf27      1.0  0.55336  0.88415  0.13083  1.0000
  Hf  Hf28      1.0  0.55233  0.89535  0.62252  1.0000
  Hf  Hf29      1.0  0.80437  0.39506  0.11851  1.0000
  Hf  Hf30      1.0  0.80326  0.38848  0.62951  1.0000
  Hf  Hf31      1.0  0.80375  0.89645  0.12770  1.0000
  Hf  Hf32      1.0  0.80309  0.89626  0.62151  1.0000
  Hf  Hf33      1.0  0.05399  0.17298  0.42593  1.0000
  Hf  Hf34      1.0  0.05643  0.18647  0.91868  1.0000
  Hf  Hf35      1.0  0.05626  0.68795  0.41468  1.0000
  Hf  Hf36      1.0  0.05727  0.68763  0.90437  1.0000
  Hf  Hf37      1.0  0.31067  0.19558  0.40282  1.0000
  Hf  Hf38      1.0  0.30857  0.18671  0.91120  1.0000
  Hf  Hf39      1.0  0.30634  0.68543  0.41431  1.0000
  Hf  Hf40      1.0  0.30857  0.68712  0.91027  1.0000
  Hf  Hf41      1.0  0.55694  0.18657  0.40971  1.0000
  Hf  Hf42      1.0  0.55555  0.17451  0.92187  1.0000
  Hf  Hf43      1.0  0.55578  0.67337  0.42361  1.0000
  Hf  Hf44      1.0  0.55434  0.68837  0.91185  1.0000
  Hf  Hf45      1.0  0.80696  0.18051  0.41268  1.0000
  Hf  Hf46      1.0  0.80631  0.18028  0.91726  1.0000
  Hf  Hf47      1.0  0.80429  0.68398  0.41854  1.0000
  Hf  Hf48      1.0  0.80626  0.69101  0.91214  1.0000
  Hf  Hf49      1.0  0.15469  0.38839  0.33342  1.0000
  Hf  Hf50      1.0  0.15764  0.39243  0.83569  1.0000
  Hf  Hf51      1.0  0.16142  0.88704  0.33050  1.0000
  Hf  Hf52      1.0  0.15704  0.88711  0.83142  1.0000
  Hf  Hf53      1.0  0.41019  0.39148  0.32680  1.0000
  Hf  Hf54      1.0  0.41025  0.38792  0.83496  1.0000
  Hf  Hf55      1.0  0.40967  0.88455  0.33254  1.0000
  Hf  Hf56      1.0  0.40629  0.89349  0.83058  1.0000
  Hf  Hf57      1.0  0.65972  0.38604  0.33233  1.0000
  Hf  Hf58      1.0  0.66190  0.38546  0.83110  1.0000
  Hf  Hf59      1.0  0.65855  0.87726  0.33987  1.0000
  Hf  Hf60      1.0  0.65470  0.88526  0.84409  1.0000
  Hf  Hf61      1.0  0.90795  0.39207  0.33432  1.0000
  Hf  Hf62      1.0  0.90937  0.39129  0.83253  1.0000
  Hf  Hf63      1.0  0.91042  0.88958  0.32854  1.0000
  Hf  Hf64      1.0  0.91053  0.89458  0.83184  1.0000
  Hf  Hf65      1.0  0.19439  0.31492  0.08407  1.0000
  Hf  Hf66      1.0  0.19434  0.31810  0.58454  1.0000
  Hf  Hf67      1.0  0.19440  0.82623  0.07431  1.0000
  Hf  Hf68      1.0  0.19377  0.81660  0.58352  1.0000
  Hf  Hf69      1.0  0.44091  0.30766  0.09093  1.0000
  Hf  Hf70      1.0  0.44399  0.32103  0.58295  1.0000
  Hf  Hf71      1.0  0.44563  0.81694  0.08224  1.0000
  Hf  Hf72      1.0  0.44425  0.81491  0.57914  1.0000
  Hf  Hf73      1.0  0.69771  0.32021  0.07560  1.0000
  Hf  Hf74      1.0  0.69582  0.30910  0.58243  1.0000
  Hf  Hf75      1.0  0.69113  0.81069  0.09417  1.0000
  Hf  Hf76      1.0  0.69121  0.81123  0.59330  1.0000
  Hf  Hf77      1.0  0.94404  0.32373  0.08531  1.0000
  Hf  Hf78      1.0  0.94700  0.31485  0.58775  1.0000
  Hf  Hf79      1.0  0.94836  0.81739  0.08071  1.0000
  Hf  Hf80      1.0  0.94496  0.82073  0.57495  1.0000
  Hf  Hf81      1.0  0.09293  0.11218  0.16799  1.0000
  Hf  Hf82      1.0  0.08710  0.11421  0.67641  1.0000
  Hf  Hf83      1.0  0.09117  0.61824  0.15739  1.0000
  Hf  Hf84      1.0  0.09269  0.61166  0.66452  1.0000
  Hf  Hf85      1.0  0.34101  0.10649  0.16777  1.0000
  Hf  Hf86      1.0  0.34064  0.11228  0.66623  1.0000
  Hf  Hf87      1.0  0.34137  0.61880  0.16022  1.0000
  Hf  Hf88      1.0  0.33949  0.60770  0.67268  1.0000
  Hf  Hf89      1.0  0.59449  0.11016  0.16143  1.0000
  Hf  Hf90      1.0  0.59124  0.10731  0.66945  1.0000
  Hf  Hf91      1.0  0.58876  0.60464  0.16717  1.0000
  Hf  Hf92      1.0  0.58845  0.60731  0.67407  1.0000
  Hf  Hf93      1.0  0.84411  0.11635  0.15640  1.0000
  Hf  Hf94      1.0  0.84293  0.11210  0.66195  1.0000
  Hf  Hf95      1.0  0.84072  0.61632  0.16525  1.0000
  Hf  Hf96      1.0  0.83836  0.61514  0.66848  1.0000
  F   F1        1.0  0.08441  0.13748  0.29201  1.0000
  F   F2        1.0  0.07013  0.11921  0.81644  1.0000
  F   F3        1.0  0.07966  0.64079  0.29565  1.0000
  F   F4        1.0  0.07357  0.63408  0.79419  1.0000
  F   F5        1.0  0.33967  0.14916  0.28736  1.0000
  F   F6        1.0  0.33366  0.14227  0.79762  1.0000
  F   F7        1.0  0.32635  0.61327  0.30389  1.0000
  F   F8        1.0  0.33464  0.62718  0.80330  1.0000
  F   F9        1.0  0.58318  0.13149  0.29862  1.0000
  F   F10       1.0  0.58549  0.13712  0.79450  1.0000
  F   F11       1.0  0.57912  0.62802  0.31437  1.0000
  F   F12       1.0  0.57436  0.61042  0.82146  1.0000
  F   F13       1.0  0.82745  0.12651  0.29892  1.0000
  F   F14       1.0  0.83133  0.13291  0.80049  1.0000
  F   F15       1.0  0.82625  0.62701  0.30347  1.0000
  F   F16       1.0  0.83305  0.64109  0.79174  1.0000
  F   F17       1.0  0.18319  0.34879  0.44088  1.0000
  F   F18       1.0  0.18141  0.35117  0.95262  1.0000
  F   F19       1.0  0.18194  0.83770  0.45211  1.0000
  F   F20       1.0  0.19000  0.85014  0.93412  1.0000
  F   F21       1.0  0.43667  0.34330  0.44410  1.0000
  F   F22       1.0  0.44504  0.35262  0.93669  1.0000
  F   F23       1.0  0.44155  0.83634  0.44133  1.0000
  F   F24       1.0  0.42775  0.83033  0.94838  1.0000
  F   F25       1.0  0.68105  0.34342  0.45075  1.0000
  F   F26       1.0  0.69552  0.34968  0.93142  1.0000
  F   F27       1.0  0.68753  0.83586  0.45083  1.0000
  F   F28       1.0  0.68097  0.83812  0.95796  1.0000
  F   F29       1.0  0.93451  0.34067  0.45337  1.0000
  F   F30       1.0  0.93586  0.34891  0.95102  1.0000
  F   F31       1.0  0.93870  0.84927  0.44234  1.0000
  F   F32       1.0  0.94407  0.83438  0.93644  1.0000
  F   F33       1.0  0.16962  0.36765  0.20494  1.0000
  F   F34       1.0  0.16785  0.36901  0.69930  1.0000
  F   F35       1.0  0.17242  0.88520  0.18754  1.0000
  F   F36       1.0  0.16867  0.87304  0.69352  1.0000
  F   F37       1.0  0.41296  0.37331  0.19802  1.0000
  F   F38       1.0  0.41848  0.37389  0.70156  1.0000
  F   F39       1.0  0.41735  0.86764  0.20690  1.0000
  F   F40       1.0  0.41417  0.88363  0.69130  1.0000
  F   F41       1.0  0.66681  0.36245  0.20141  1.0000
  F   F42       1.0  0.67765  0.35620  0.70039  1.0000
  F   F43       1.0  0.67003  0.87128  0.19976  1.0000
  F   F44       1.0  0.66781  0.85134  0.71389  1.0000
  F   F45       1.0  0.91548  0.36639  0.20547  1.0000
  F   F46       1.0  0.92447  0.36797  0.70040  1.0000
  F   F47       1.0  0.92947  0.88326  0.18058  1.0000
  F   F48       1.0  0.91813  0.87373  0.70345  1.0000
  F   F49       1.0  0.06955  0.16030  0.04929  1.0000
  F   F50       1.0  0.06202  0.15601  0.55113  1.0000
  F   F51       1.0  0.07336  0.66326  0.03214  1.0000
  F   F52       1.0  0.07187  0.66667  0.54191  1.0000
  F   F53       1.0  0.30850  0.15317  0.06430  1.0000
  F   F54       1.0  0.31530  0.16241  0.54485  1.0000
  F   F55       1.0  0.30510  0.65240  0.05740  1.0000
  F   F56       1.0  0.31266  0.65243  0.56139  1.0000
  F   F57       1.0  0.56985  0.16498  0.04804  1.0000
  F   F58       1.0  0.56392  0.15443  0.55756  1.0000
  F   F59       1.0  0.56450  0.66062  0.05264  1.0000
  F   F60       1.0  0.56078  0.65296  0.56384  1.0000
  F   F61       1.0  0.82149  0.15485  0.04563  1.0000
  F   F62       1.0  0.81328  0.14712  0.55415  1.0000
  F   F63       1.0  0.80561  0.66019  0.06787  1.0000
  F   F64       1.0  0.81431  0.65998  0.55525  1.0000
  F   F65       1.0  0.20414  0.19230  0.21420  1.0000
  F   F66       1.0  0.21520  0.20217  0.70020  1.0000
  F   F67       1.0  0.19417  0.71500  0.20723  1.0000
  F   F68       1.0  0.20958  0.70540  0.70730  1.0000
  F   F69       1.0  0.44734  0.18948  0.21287  1.0000
  F   F70       1.0  0.46595  0.20525  0.72689  1.0000
  F   F71       1.0  0.45794  0.70692  0.22435  1.0000
  F   F72       1.0  0.44980  0.70039  0.70708  1.0000
  F   F73       1.0  0.71227  0.20679  0.20519  1.0000
  F   F74       1.0  0.71146  0.19888  0.71044  1.0000
  F   F75       1.0  0.70289  0.70277  0.21752  1.0000
  F   F76       1.0  0.70802  0.69031  0.70308  1.0000
  F   F77       1.0  0.95607  0.20311  0.20473  1.0000
  F   F78       1.0  0.95625  0.19583  0.72620  1.0000
  F   F79       1.0  0.95734  0.69878  0.21897  1.0000
  F   F80       1.0  0.95046  0.70034  0.68754  1.0000
  F   F81       1.0  0.15400  0.09354  0.02691  1.0000
  F   F82       1.0  0.14825  0.10793  0.54289  1.0000
  F   F83       1.0  0.14902  0.58937  0.03655  1.0000
  F   F84       1.0  0.15188  0.59103  0.53665  1.0000
  F   F85       1.0  0.39390  0.06552  0.05480  1.0000
  F   F86       1.0  0.40240  0.10256  0.54373  1.0000
  F   F87       1.0  0.39979  0.60416  0.03164  1.0000
  F   F88       1.0  0.39414  0.57396  0.54458  1.0000
  F   F89       1.0  0.64804  0.06974  0.04720  1.0000
  F   F90       1.0  0.65113  0.08991  0.53162  1.0000
  F   F91       1.0  0.64230  0.58638  0.03479  1.0000
  F   F92       1.0  0.64635  0.59922  0.53665  1.0000
  F   F93       1.0  0.90155  0.09243  0.04399  1.0000
  F   F94       1.0  0.89573  0.09204  0.53279  1.0000
  F   F95       1.0  0.90076  0.59788  0.03608  1.0000
  F   F96       1.0  0.89243  0.58443  0.54127  1.0000
  F   F97       1.0  0.15148  0.20484  0.11608  1.0000
  F   F98       1.0  0.14367  0.20680  0.65161  1.0000
  F   F99       1.0  0.14725  0.71817  0.10624  1.0000
  F   F100      1.0  0.15473  0.69344  0.62977  1.0000
  F   F101      1.0  0.40129  0.19655  0.10594  1.0000
  F   F102      1.0  0.40518  0.20073  0.64692  1.0000
  F   F103      1.0  0.40356  0.69868  0.14144  1.0000
  F   F104      1.0  0.39874  0.69580  0.62037  1.0000
  F   F105      1.0  0.65510  0.20357  0.11503  1.0000
  F   F106      1.0  0.66269  0.18604  0.62519  1.0000
  F   F107      1.0  0.64724  0.69218  0.13172  1.0000
  F   F108      1.0  0.64717  0.68604  0.62703  1.0000
  F   F109      1.0  0.90003  0.19814  0.13803  1.0000
  F   F110      1.0  0.90659  0.18973  0.62155  1.0000
  F   F111      1.0  0.90383  0.70076  0.12092  1.0000
  F   F112      1.0  0.89721  0.69904  0.61357  1.0000
  F   F113      1.0  0.09328  0.30697  0.37386  1.0000
  F   F114      1.0  0.09098  0.31931  0.87493  1.0000
  F   F115      1.0  0.09474  0.80131  0.37323  1.0000
  F   F116      1.0  0.10008  0.80083  0.86007  1.0000
  F   F117      1.0  0.34692  0.30768  0.37503  1.0000
  F   F118      1.0  0.34904  0.29420  0.86897  1.0000
  F   F119      1.0  0.34512  0.80110  0.37750  1.0000
  F   F120      1.0  0.34926  0.80341  0.88387  1.0000
  F   F121      1.0  0.59863  0.30437  0.36881  1.0000
  F   F122      1.0  0.59717  0.29994  0.86360  1.0000
  F   F123      1.0  0.59664  0.78821  0.38240  1.0000
  F   F124      1.0  0.59332  0.81425  0.87513  1.0000
  F   F125      1.0  0.84795  0.30529  0.38598  1.0000
  F   F126      1.0  0.84942  0.30109  0.86902  1.0000
  F   F127      1.0  0.84827  0.80236  0.36200  1.0000
  F   F128      1.0  0.84340  0.81944  0.87137  1.0000
  F   F129      1.0  0.06091  0.24587  0.15298  1.0000
  F   F130      1.0  0.06540  0.25613  0.63224  1.0000
  F   F131      1.0  0.06103  0.75616  0.13818  1.0000
  F   F132      1.0  0.06847  0.75443  0.63410  1.0000
  F   F133      1.0  0.31197  0.24977  0.15287  1.0000
  F   F134      1.0  0.32583  0.25320  0.62359  1.0000
  F   F135      1.0  0.32605  0.76298  0.11033  1.0000
  F   F136      1.0  0.31433  0.74856  0.64701  1.0000
  F   F137      1.0  0.56114  0.25417  0.13983  1.0000
  F   F138      1.0  0.57129  0.24801  0.63906  1.0000
  F   F139      1.0  0.56122  0.74433  0.15097  1.0000
  F   F140      1.0  0.56045  0.73821  0.66029  1.0000
  F   F141      1.0  0.81667  0.25434  0.13469  1.0000
  F   F142      1.0  0.81724  0.25078  0.63795  1.0000
  F   F143      1.0  0.81379  0.75167  0.14575  1.0000
  F   F144      1.0  0.80913  0.75525  0.64352  1.0000
  F   F145      1.0  0.12131  0.36971  0.11827  1.0000
  F   F146      1.0  0.12421  0.38496  0.60615  1.0000
  F   F147      1.0  0.12333  0.89083  0.09278  1.0000
  F   F148      1.0  0.12470  0.87264  0.60224  1.0000
  F   F149      1.0  0.37147  0.37382  0.10459  1.0000
  F   F150      1.0  0.37415  0.38820  0.59822  1.0000
  F   F151      1.0  0.37787  0.87095  0.10127  1.0000
  F   F152      1.0  0.37267  0.86862  0.60528  1.0000
  F   F153      1.0  0.62336  0.36477  0.10101  1.0000
  F   F154      1.0  0.62482  0.35986  0.61630  1.0000
  F   F155      1.0  0.62299  0.87178  0.11311  1.0000
  F   F156      1.0  0.62432  0.86495  0.61485  1.0000
  F   F157      1.0  0.87229  0.38915  0.09942  1.0000
  F   F158      1.0  0.87038  0.34915  0.62676  1.0000
  F   F159      1.0  0.87716  0.85735  0.10937  1.0000
  F   F160      1.0  0.87643  0.88212  0.59583  1.0000
  F   F161      1.0  0.18730  0.24903  0.36045  1.0000
  F   F162      1.0  0.17984  0.25078  0.85988  1.0000
  F   F163      1.0  0.17405  0.74348  0.37668  1.0000
  F   F164      1.0  0.18149  0.74766  0.85890  1.0000
  F   F165      1.0  0.43482  0.25808  0.34613  1.0000
  F   F166      1.0  0.42274  0.23704  0.88631  1.0000
  F   F167      1.0  0.42538  0.74067  0.38348  1.0000
  F   F168      1.0  0.44391  0.75051  0.83664  1.0000
  F   F169      1.0  0.67824  0.24309  0.36819  1.0000
  F   F170      1.0  0.68476  0.23759  0.87958  1.0000
  F   F171      1.0  0.68750  0.74760  0.35890  1.0000
  F   F172      1.0  0.68111  0.74519  0.86621  1.0000
  F   F173      1.0  0.93899  0.24572  0.35920  1.0000
  F   F174      1.0  0.93586  0.25009  0.86661  1.0000
  F   F175      1.0  0.93311  0.74686  0.37422  1.0000
  F   F176      1.0  0.93427  0.75521  0.85294  1.0000
  F   F177      1.0  0.12661  0.11445  0.40189  1.0000
  F   F178      1.0  0.13023  0.14590  0.87251  1.0000
  F   F179      1.0  0.12231  0.62112  0.38917  1.0000
  F   F180      1.0  0.12589  0.63782  0.87730  1.0000
  F   F181      1.0  0.37755  0.13028  0.39087  1.0000
  F   F182      1.0  0.37394  0.11546  0.89832  1.0000
  F   F183      1.0  0.37399  0.62266  0.38062  1.0000
  F   F184      1.0  0.37603  0.63711  0.88477  1.0000
  F   F185      1.0  0.62711  0.13109  0.38866  1.0000
  F   F186      1.0  0.62670  0.12653  0.89581  1.0000
  F   F187      1.0  0.62743  0.62700  0.38974  1.0000
  F   F188      1.0  0.62569  0.63892  0.87960  1.0000
  F   F189      1.0  0.87810  0.14192  0.37541  1.0000
  F   F190      1.0  0.87775  0.13084  0.89730  1.0000
  F   F191      1.0  0.87446  0.61930  0.38616  1.0000
  F   F192      1.0  0.87452  0.64682  0.90212  1.0000
  F   F193      1.0  0.00955  0.35471  0.08579  1.0000
  F   F194      1.0  0.01172  0.37030  0.57074  1.0000
  F   F195      1.0  0.01489  0.87084  0.05408  1.0000
  F   F196      1.0  0.00796  0.85573  0.57063  1.0000
  F   F197      1.0  0.25874  0.35952  0.07043  1.0000
  F   F198      1.0  0.25698  0.36829  0.58099  1.0000
  F   F199      1.0  0.25627  0.85748  0.07863  1.0000
  F   F200      1.0  0.25710  0.85460  0.58169  1.0000
  F   F201      1.0  0.50324  0.35395  0.08061  1.0000
  F   F202      1.0  0.50573  0.35191  0.58704  1.0000
  F   F203      1.0  0.50554  0.85816  0.08466  1.0000
  F   F204      1.0  0.50569  0.86431  0.56802  1.0000
  F   F205      1.0  0.75683  0.36996  0.07227  1.0000
  F   F206      1.0  0.76215  0.35949  0.57326  1.0000
  F   F207      1.0  0.75373  0.84893  0.09098  1.0000
  F   F208      1.0  0.75667  0.86053  0.57285  1.0000
  F   F209      1.0  0.07019  0.47884  0.18742  1.0000
  F   F210      1.0  0.06658  0.48974  0.69110  1.0000
  F   F211      1.0  0.06560  0.98933  0.18502  1.0000
  F   F212      1.0  0.06761  0.98711  0.67937  1.0000
  F   F213      1.0  0.32149  0.49387  0.17267  1.0000
  F   F214      1.0  0.31179  0.48127  0.68436  1.0000
  F   F215      1.0  0.31394  0.97635  0.19182  1.0000
  F   F216      1.0  0.31953  0.99563  0.66517  1.0000
  F   F217      1.0  0.56944  0.47152  0.19288  1.0000
  F   F218      1.0  0.56789  0.47118  0.68918  1.0000
  F   F219      1.0  0.56533  0.98391  0.17936  1.0000
  F   F220      1.0  0.56392  0.97543  0.68458  1.0000
  F   F221      1.0  0.81803  0.49320  0.16865  1.0000
  F   F222      1.0  0.81751  0.48102  0.68164  1.0000
  F   F223      1.0  0.82545  0.99178  0.15995  1.0000
  F   F224      1.0  0.81895  0.98989  0.67623  1.0000
  F   F225      1.0  0.24421  0.13170  0.43365  1.0000
  F   F226      1.0  0.24285  0.13819  0.92418  1.0000
  F   F227      1.0  0.23900  0.64490  0.42730  1.0000
  F   F228      1.0  0.24649  0.65442  0.90899  1.0000
  F   F229      1.0  0.49578  0.13699  0.41653  1.0000
  F   F230      1.0  0.49325  0.13670  0.92034  1.0000
  F   F231      1.0  0.48861  0.62536  0.43592  1.0000
  F   F232      1.0  0.48776  0.64126  0.93710  1.0000
  F   F233      1.0  0.74060  0.14197  0.42100  1.0000
  F   F234      1.0  0.73921  0.13306  0.93994  1.0000
  F   F235      1.0  0.73633  0.63002  0.43831  1.0000
  F   F236      1.0  0.74294  0.63949  0.91729  1.0000
  F   F237      1.0  0.99525  0.13799  0.42515  1.0000
  F   F238      1.0  0.98959  0.12395  0.94455  1.0000
  F   F239      1.0  0.99135  0.63344  0.43255  1.0000
  F   F240      1.0  0.99378  0.63589  0.93163  1.0000
  F   F241      1.0  0.18916  0.01517  0.31735  1.0000
  F   F242      1.0  0.17426  0.02474  0.82522  1.0000
  F   F243      1.0  0.18049  0.51733  0.31878  1.0000
  F   F244      1.0  0.17864  0.52579  0.82608  1.0000
  F   F245      1.0  0.43517  0.00922  0.32210  1.0000
  F   F246      1.0  0.43673  0.02174  0.81179  1.0000
  F   F247      1.0  0.43090  0.51577  0.32402  1.0000
  F   F248      1.0  0.42960  0.51616  0.82500  1.0000
  F   F249      1.0  0.67616  0.00134  0.34014  1.0000
  F   F250      1.0  0.67911  0.01021  0.82878  1.0000
  F   F251      1.0  0.67808  0.51657  0.32332  1.0000
  F   F252      1.0  0.67718  0.52002  0.83115  1.0000
  F   F253      1.0  0.92706  0.01548  0.32175  1.0000
  F   F254      1.0  0.92960  0.01771  0.82038  1.0000
  F   F255      1.0  0.93401  0.51207  0.32469  1.0000
  F   F256      1.0  0.92365  0.51332  0.84788  1.0000
  F   F257      1.0  0.99943  0.23318  0.01244  1.0000
  F   F258      1.0  0.99659  0.23524  0.51583  1.0000
  F   F259      1.0  0.00493  0.75103  0.99846  1.0000
  F   F260      1.0  0.00136  0.74895  0.49286  1.0000
  F   F261      1.0  0.24765  0.24246  0.00692  1.0000
  F   F262      1.0  0.24907  0.26344  0.49244  1.0000
  F   F263      1.0  0.25340  0.76035  0.98900  1.0000
  F   F264      1.0  0.25030  0.74688  0.49182  1.0000
  F   F265      1.0  0.49798  0.22864  0.01497  1.0000
  F   F266      1.0  0.49853  0.24450  0.50498  1.0000
  F   F267      1.0  0.50255  0.74694  0.00611  1.0000
  F   F268      1.0  0.49494  0.73530  0.50571  1.0000
  F   F269      1.0  0.75817  0.26103  0.99913  1.0000
  F   F270      1.0  0.75495  0.26243  0.47711  1.0000
  F   F271      1.0  0.74822  0.76266  0.98940  1.0000
  F   F272      1.0  0.74867  0.74145  0.50327  1.0000
  F   F273      1.0  0.12798  0.00122  0.25696  1.0000
  F   F274      1.0  0.12222  0.00211  0.74112  1.0000
  F   F275      1.0  0.12470  0.50695  0.24917  1.0000
  F   F276      1.0  0.12994  0.51118  0.74629  1.0000
  F   F277      1.0  0.36494  0.00025  0.27199  1.0000
  F   F278      1.0  0.37137  0.00427  0.75327  1.0000
  F   F279      1.0  0.39183  0.51385  0.21931  1.0000
  F   F280      1.0  0.36318  0.48308  0.76671  1.0000
  F   F281      1.0  0.62138  0.99815  0.25806  1.0000
  F   F282      1.0  0.63144  0.00319  0.73550  1.0000
  F   F283      1.0  0.62543  0.50282  0.25032  1.0000
  F   F284      1.0  0.63582  0.49175  0.73476  1.0000
  F   F285      1.0  0.87722  0.99651  0.24750  1.0000
  F   F286      1.0  0.87840  0.00798  0.73808  1.0000
  F   F287      1.0  0.87909  0.50732  0.24301  1.0000
  F   F288      1.0  0.87708  0.50005  0.74729  1.0000
  F   F289      1.0  0.05257  0.02814  0.02026  1.0000
  F   F290      1.0  0.04284  0.02862  0.51544  1.0000
  F   F291      1.0  0.04965  0.53282  0.02608  1.0000
  F   F292      1.0  0.03999  0.53351  0.53337  1.0000
  F   F293      1.0  0.29050  0.03811  0.02732  1.0000
  F   F294      1.0  0.30144  0.02888  0.51559  1.0000
  F   F295      1.0  0.29963  0.53086  0.01322  1.0000
  F   F296      1.0  0.29091  0.53175  0.52356  1.0000
  F   F297      1.0  0.54576  0.02486  0.02878  1.0000
  F   F298      1.0  0.54403  0.03419  0.51470  1.0000
  F   F299      1.0  0.54464  0.52775  0.02220  1.0000
  F   F300      1.0  0.54576  0.52280  0.53130  1.0000
  F   F301      1.0  0.78514  0.02661  0.02129  1.0000
  F   F302      1.0  0.79251  0.02830  0.52211  1.0000
  F   F303      1.0  0.79500  0.53332  0.02115  1.0000
  F   F304      1.0  0.79067  0.53677  0.52477  1.0000
  F   F305      1.0  0.22904  0.41569  0.22045  1.0000
  F   F306      1.0  0.23199  0.40285  0.73951  1.0000
  F   F307      1.0  0.23675  0.91091  0.22397  1.0000
  F   F308      1.0  0.23588  0.91261  0.72601  1.0000
  F   F309      1.0  0.48639  0.40885  0.23022  1.0000
  F   F310      1.0  0.48425  0.41941  0.73067  1.0000
  F   F311      1.0  0.48267  0.89037  0.23729  1.0000
  F   F312      1.0  0.47969  0.90767  0.73332  1.0000
  F   F313      1.0  0.73805  0.40376  0.23917  1.0000
  F   F314      1.0  0.73604  0.41432  0.73046  1.0000
  F   F315      1.0  0.73470  0.91669  0.23487  1.0000
  F   F316      1.0  0.73551  0.90829  0.73516  1.0000
  F   F317      1.0  0.98239  0.41497  0.23401  1.0000
  F   F318      1.0  0.98303  0.42303  0.72813  1.0000
  F   F319      1.0  0.98618  0.92003  0.22234  1.0000
  F   F320      1.0  0.98405  0.92726  0.71226  1.0000
  F   F321      1.0  0.21024  0.47271  0.46642  1.0000
  F   F322      1.0  0.20340  0.47730  0.98366  1.0000
  F   F323      1.0  0.20111  0.96597  0.49285  1.0000
  F   F324      1.0  0.21326  0.96213  0.96989  1.0000
  F   F325      1.0  0.45852  0.46519  0.47313  1.0000
  F   F326      1.0  0.45204  0.46605  0.99032  1.0000
  F   F327      1.0  0.44891  0.97503  0.48362  1.0000
  F   F328      1.0  0.45894  0.96440  0.97124  1.0000
  F   F329      1.0  0.70353  0.46916  0.48369  1.0000
  F   F330      1.0  0.70508  0.47187  0.98382  1.0000
  F   F331      1.0  0.70801  0.96433  0.47810  1.0000
  F   F332      1.0  0.70438  0.95977  0.98706  1.0000
  F   F333      1.0  0.95611  0.45813  0.48653  1.0000
  F   F334      1.0  0.96420  0.46827  0.98547  1.0000
  F   F335      1.0  0.96062  0.97559  0.47893  1.0000
  F   F336      1.0  0.95825  0.96938  0.96942  1.0000
  F   F337      1.0  0.01485  0.08870  0.26833  1.0000
  F   F338      1.0  0.01500  0.08856  0.77729  1.0000
  F   F339      1.0  0.01522  0.59504  0.26368  1.0000
  F   F340      1.0  0.00811  0.60499  0.76477  1.0000
  F   F341      1.0  0.26817  0.07720  0.28205  1.0000
  F   F342      1.0  0.26704  0.08359  0.77403  1.0000
  F   F343      1.0  0.26020  0.58996  0.27044  1.0000
  F   F344      1.0  0.26533  0.57939  0.78465  1.0000
  F   F345      1.0  0.51278  0.09307  0.27032  1.0000
  F   F346      1.0  0.52062  0.06799  0.77955  1.0000
  F   F347      1.0  0.51921  0.57317  0.27682  1.0000
  F   F348      1.0  0.51216  0.58614  0.78042  1.0000
  F   F349      1.0  0.76217  0.08366  0.26538  1.0000
  F   F350      1.0  0.76545  0.08611  0.77708  1.0000
  F   F351      1.0  0.76186  0.56823  0.28440  1.0000
  F   F352      1.0  0.76474  0.58326  0.77336  1.0000
  F   F353      1.0  0.09944  0.41433  0.45965  1.0000
  F   F354      1.0  0.10239  0.40510  0.96551  1.0000
  F   F355      1.0  0.09909  0.90955  0.45474  1.0000
  F   F356      1.0  0.10280  0.89524  0.95594  1.0000
  F   F357      1.0  0.34882  0.42523  0.44779  1.0000
  F   F358      1.0  0.35037  0.39251  0.96827  1.0000
  F   F359      1.0  0.35131  0.89566  0.46255  1.0000
  F   F360      1.0  0.35125  0.92819  0.95486  1.0000
  F   F361      1.0  0.59944  0.40782  0.46356  1.0000
  F   F362      1.0  0.60201  0.38730  0.96359  1.0000
  F   F363      1.0  0.59731  0.88878  0.47015  1.0000
  F   F364      1.0  0.60094  0.91879  0.95880  1.0000
  F   F365      1.0  0.85305  0.42395  0.46310  1.0000
  F   F366      1.0  0.84876  0.39383  0.95882  1.0000
  F   F367      1.0  0.85047  0.89964  0.45356  1.0000
  F   F368      1.0  0.85466  0.91004  0.96160  1.0000
  F   F369      1.0  0.04461  0.29622  0.29032  1.0000
  F   F370      1.0  0.04150  0.30895  0.79154  1.0000
  F   F371      1.0  0.03989  0.79785  0.28970  1.0000
  F   F372      1.0  0.04713  0.80129  0.77529  1.0000
  F   F373      1.0  0.28600  0.30650  0.29713  1.0000
  F   F374      1.0  0.29538  0.30228  0.78227  1.0000
  F   F375      1.0  0.29818  0.78169  0.28094  1.0000
  F   F376      1.0  0.30434  0.80462  0.79051  1.0000
  F   F377      1.0  0.54726  0.29370  0.28891  1.0000
  F   F378      1.0  0.53833  0.28148  0.79335  1.0000
  F   F379      1.0  0.54466  0.79310  0.29043  1.0000
  F   F380      1.0  0.54030  0.79713  0.79604  1.0000
  F   F381      1.0  0.80756  0.29226  0.28183  1.0000
  F   F382      1.0  0.78734  0.29016  0.79803  1.0000
  F   F383      1.0  0.79539  0.79967  0.28579  1.0000
  F   F384      1.0  0.80046  0.80611  0.78224  1.0000
