data_image0
_chemical_formula_structural       Hf96F384
_chemical_formula_sum              "Hf96 F384"
_cell_length_a       31.053
_cell_length_b       15.5282
_cell_length_c       15.5174
_cell_angle_alpha    63.342
_cell_angle_beta     63.342
_cell_angle_gamma    80.1625

_space_group_name_H-M_alt    "P 1"
_space_group_IT_number       1

loop_
  _space_group_symop_operation_xyz
  'x, y, z'

loop_
  _atom_site_type_symbol
  _atom_site_label
  _atom_site_symmetry_multiplicity
  _atom_site_fract_x
  _atom_site_fract_y
  _atom_site_fract_z
  _atom_site_occupancy
  Hf  Hf1       1.0  0.19278  0.09860  0.38436  1.0000
  Hf  Hf2       1.0  0.19338  0.10468  0.87723  1.0000
  Hf  Hf3       1.0  0.19899  0.60600  0.36966  1.0000
  Hf  Hf4       1.0  0.20055  0.60641  0.85792  1.0000
  Hf  Hf5       1.0  0.44343  0.10005  0.38943  1.0000
  Hf  Hf6       1.0  0.44782  0.11080  0.86966  1.0000
  Hf  Hf7       1.0  0.44736  0.59945  0.37921  1.0000
  Hf  Hf8       1.0  0.44670  0.60647  0.87499  1.0000
  Hf  Hf9       1.0  0.69827  0.11450  0.37246  1.0000
  Hf  Hf10      1.0  0.69507  0.11771  0.87514  1.0000
  Hf  Hf11      1.0  0.69940  0.62397  0.36622  1.0000
  Hf  Hf12      1.0  0.69611  0.60895  0.87858  1.0000
  Hf  Hf13      1.0  0.94595  0.11280  0.37404  1.0000
  Hf  Hf14      1.0  0.94598  0.10693  0.87336  1.0000
  Hf  Hf15      1.0  0.94554  0.60062  0.38045  1.0000
  Hf  Hf16      1.0  0.94642  0.61273  0.87182  1.0000
  Hf  Hf17      1.0  0.05200  0.38981  0.13295  1.0000
  Hf  Hf18      1.0  0.05535  0.38367  0.63497  1.0000
  Hf  Hf19      1.0  0.05360  0.89367  0.12692  1.0000
  Hf  Hf20      1.0  0.05415  0.88941  0.62588  1.0000
  Hf  Hf21      1.0  0.30597  0.40161  0.12405  1.0000
  Hf  Hf22      1.0  0.30631  0.38663  0.61572  1.0000
  Hf  Hf23      1.0  0.30937  0.89068  0.11955  1.0000
  Hf  Hf24      1.0  0.30479  0.88657  0.62050  1.0000
  Hf  Hf25      1.0  0.55504  0.39670  0.11637  1.0000
  Hf  Hf26      1.0  0.55062  0.39051  0.62977  1.0000
  Hf  Hf27      1.0  0.55440  0.88806  0.13126  1.0000
  Hf  Hf28      1.0  0.55147  0.89309  0.62426  1.0000
  Hf  Hf29      1.0  0.80240  0.40241  0.12045  1.0000
  Hf  Hf30      1.0  0.80278  0.39660  0.62692  1.0000
  Hf  Hf31      1.0  0.80189  0.89505  0.12498  1.0000
  Hf  Hf32      1.0  0.80724  0.90777  0.60432  1.0000
  Hf  Hf33      1.0  0.05229  0.17564  0.42696  1.0000
  Hf  Hf34      1.0  0.05472  0.18109  0.92307  1.0000
  Hf  Hf35      1.0  0.05573  0.68217  0.41956  1.0000
  Hf  Hf36      1.0  0.05788  0.68809  0.90972  1.0000
  Hf  Hf37      1.0  0.29889  0.16789  0.42873  1.0000
  Hf  Hf38      1.0  0.30076  0.17176  0.92433  1.0000
  Hf  Hf39      1.0  0.30536  0.68195  0.41886  1.0000
  Hf  Hf40      1.0  0.30644  0.67312  0.91664  1.0000
  Hf  Hf41      1.0  0.55623  0.18216  0.41567  1.0000
  Hf  Hf42      1.0  0.55654  0.18284  0.91355  1.0000
  Hf  Hf43      1.0  0.55741  0.67375  0.42782  1.0000
  Hf  Hf44      1.0  0.55394  0.68258  0.92458  1.0000
  Hf  Hf45      1.0  0.80486  0.19689  0.41172  1.0000
  Hf  Hf46      1.0  0.80663  0.18458  0.91210  1.0000
  Hf  Hf47      1.0  0.80857  0.69401  0.40080  1.0000
  Hf  Hf48      1.0  0.81076  0.69691  0.90356  1.0000
  Hf  Hf49      1.0  0.15784  0.38977  0.33573  1.0000
  Hf  Hf50      1.0  0.16122  0.38226  0.83902  1.0000
  Hf  Hf51      1.0  0.16169  0.89052  0.32587  1.0000
  Hf  Hf52      1.0  0.16300  0.88414  0.82673  1.0000
  Hf  Hf53      1.0  0.40741  0.38528  0.33302  1.0000
  Hf  Hf54      1.0  0.40576  0.38644  0.84236  1.0000
  Hf  Hf55      1.0  0.40743  0.89004  0.33191  1.0000
  Hf  Hf56      1.0  0.40710  0.88845  0.83009  1.0000
  Hf  Hf57      1.0  0.65614  0.39379  0.33774  1.0000
  Hf  Hf58      1.0  0.65644  0.39586  0.83671  1.0000
  Hf  Hf59      1.0  0.65776  0.89320  0.33394  1.0000
  Hf  Hf60      1.0  0.65972  0.89759  0.82449  1.0000
  Hf  Hf61      1.0  0.90716  0.38366  0.34207  1.0000
  Hf  Hf62      1.0  0.91060  0.38333  0.83986  1.0000
  Hf  Hf63      1.0  0.91552  0.89574  0.32298  1.0000
  Hf  Hf64      1.0  0.91008  0.89303  0.82858  1.0000
  Hf  Hf65      1.0  0.18977  0.31056  0.09098  1.0000
  Hf  Hf66      1.0  0.19302  0.31820  0.58486  1.0000
  Hf  Hf67      1.0  0.19573  0.81330  0.08032  1.0000
  Hf  Hf68      1.0  0.19431  0.80864  0.58283  1.0000
  Hf  Hf69      1.0  0.44420  0.31483  0.08163  1.0000
  Hf  Hf70      1.0  0.44259  0.30713  0.58729  1.0000
  Hf  Hf71      1.0  0.44495  0.81601  0.08109  1.0000
  Hf  Hf72      1.0  0.44716  0.80725  0.58277  1.0000
  Hf  Hf73      1.0  0.69274  0.31355  0.09139  1.0000
  Hf  Hf74      1.0  0.69177  0.32131  0.58969  1.0000
  Hf  Hf75      1.0  0.69528  0.82666  0.07584  1.0000
  Hf  Hf76      1.0  0.69400  0.82822  0.58073  1.0000
  Hf  Hf77      1.0  0.93859  0.31214  0.09413  1.0000
  Hf  Hf78      1.0  0.94178  0.32361  0.58419  1.0000
  Hf  Hf79      1.0  0.94493  0.82552  0.07397  1.0000
  Hf  Hf80      1.0  0.94621  0.82434  0.57331  1.0000
  Hf  Hf81      1.0  0.09257  0.10787  0.16473  1.0000
  Hf  Hf82      1.0  0.08913  0.11627  0.66549  1.0000
  Hf  Hf83      1.0  0.08730  0.61088  0.18279  1.0000
  Hf  Hf84      1.0  0.08998  0.60259  0.67363  1.0000
  Hf  Hf85      1.0  0.33792  0.10767  0.16526  1.0000
  Hf  Hf86      1.0  0.34190  0.10157  0.66932  1.0000
  Hf  Hf87      1.0  0.34239  0.61383  0.16765  1.0000
  Hf  Hf88      1.0  0.34612  0.60527  0.66133  1.0000
  Hf  Hf89      1.0  0.58827  0.11146  0.16605  1.0000
  Hf  Hf90      1.0  0.59175  0.11149  0.66297  1.0000
  Hf  Hf91      1.0  0.59163  0.60621  0.17364  1.0000
  Hf  Hf92      1.0  0.59229  0.61041  0.66914  1.0000
  Hf  Hf93      1.0  0.84190  0.11608  0.16545  1.0000
  Hf  Hf94      1.0  0.83914  0.11190  0.66966  1.0000
  Hf  Hf95      1.0  0.84487  0.61541  0.15741  1.0000
  Hf  Hf96      1.0  0.83929  0.62383  0.66201  1.0000
  F   F1        1.0  0.07422  0.12454  0.31648  1.0000
  F   F2        1.0  0.07859  0.13441  0.80190  1.0000
  F   F3        1.0  0.07769  0.61093  0.32567  1.0000
  F   F4        1.0  0.08841  0.63282  0.79964  1.0000
  F   F5        1.0  0.32657  0.11337  0.31430  1.0000
  F   F6        1.0  0.32927  0.10948  0.81160  1.0000
  F   F7        1.0  0.31841  0.61164  0.32698  1.0000
  F   F8        1.0  0.34234  0.62739  0.79763  1.0000
  F   F9        1.0  0.57585  0.14031  0.29684  1.0000
  F   F10       1.0  0.57885  0.13139  0.80561  1.0000
  F   F11       1.0  0.58900  0.62594  0.30129  1.0000
  F   F12       1.0  0.58170  0.63778  0.80155  1.0000
  F   F13       1.0  0.83638  0.15428  0.28777  1.0000
  F   F14       1.0  0.82727  0.12406  0.80615  1.0000
  F   F15       1.0  0.82849  0.63881  0.29449  1.0000
  F   F16       1.0  0.83180  0.61667  0.80730  1.0000
  F   F17       1.0  0.18328  0.33820  0.45133  1.0000
  F   F18       1.0  0.18844  0.34219  0.94532  1.0000
  F   F19       1.0  0.18726  0.83998  0.44598  1.0000
  F   F20       1.0  0.17777  0.82677  0.96121  1.0000
  F   F21       1.0  0.42098  0.31592  0.46173  1.0000
  F   F22       1.0  0.43767  0.34390  0.94735  1.0000
  F   F23       1.0  0.43490  0.84314  0.44494  1.0000
  F   F24       1.0  0.43037  0.83146  0.95065  1.0000
  F   F25       1.0  0.68588  0.34576  0.44703  1.0000
  F   F26       1.0  0.68107  0.35387  0.94708  1.0000
  F   F27       1.0  0.68685  0.85247  0.44426  1.0000
  F   F28       1.0  0.69160  0.85379  0.93469  1.0000
  F   F29       1.0  0.93408  0.32959  0.45524  1.0000
  F   F30       1.0  0.92969  0.33320  0.96149  1.0000
  F   F31       1.0  0.93344  0.83160  0.43828  1.0000
  F   F32       1.0  0.93477  0.85650  0.94219  1.0000
  F   F33       1.0  0.16432  0.36607  0.20426  1.0000
  F   F34       1.0  0.17446  0.36502  0.70093  1.0000
  F   F35       1.0  0.16998  0.86287  0.20599  1.0000
  F   F36       1.0  0.17391  0.87456  0.69451  1.0000
  F   F37       1.0  0.42503  0.37030  0.19868  1.0000
  F   F38       1.0  0.41917  0.35691  0.70289  1.0000
  F   F39       1.0  0.41786  0.86487  0.19636  1.0000
  F   F40       1.0  0.42837  0.86139  0.69247  1.0000
  F   F41       1.0  0.66812  0.36320  0.20788  1.0000
  F   F42       1.0  0.67359  0.39963  0.68328  1.0000
  F   F43       1.0  0.67165  0.87976  0.19601  1.0000
  F   F44       1.0  0.67237  0.90210  0.69042  1.0000
  F   F45       1.0  0.91875  0.36422  0.20481  1.0000
  F   F46       1.0  0.92136  0.37224  0.70488  1.0000
  F   F47       1.0  0.92484  0.89629  0.17647  1.0000
  F   F48       1.0  0.91245  0.84635  0.71470  1.0000
  F   F49       1.0  0.05648  0.14014  0.06837  1.0000
  F   F50       1.0  0.05808  0.15188  0.55984  1.0000
  F   F51       1.0  0.06126  0.66900  0.04899  1.0000
  F   F52       1.0  0.05381  0.64769  0.57177  1.0000
  F   F53       1.0  0.30242  0.15455  0.06642  1.0000
  F   F54       1.0  0.30631  0.13425  0.56622  1.0000
  F   F55       1.0  0.31482  0.66007  0.05229  1.0000
  F   F56       1.0  0.31732  0.64486  0.55661  1.0000
  F   F57       1.0  0.55733  0.14823  0.05687  1.0000
  F   F58       1.0  0.56120  0.14826  0.55036  1.0000
  F   F59       1.0  0.55905  0.65101  0.07283  1.0000
  F   F60       1.0  0.55815  0.66640  0.55573  1.0000
  F   F61       1.0  0.81515  0.16099  0.05416  1.0000
  F   F62       1.0  0.82411  0.17314  0.54129  1.0000
  F   F63       1.0  0.81554  0.66736  0.04806  1.0000
  F   F64       1.0  0.82518  0.67889  0.53633  1.0000
  F   F65       1.0  0.19394  0.19494  0.22149  1.0000
  F   F66       1.0  0.20096  0.20611  0.70960  1.0000
  F   F67       1.0  0.21280  0.69798  0.20860  1.0000
  F   F68       1.0  0.20966  0.70247  0.70585  1.0000
  F   F69       1.0  0.45611  0.20239  0.18802  1.0000
  F   F70       1.0  0.45382  0.20416  0.72112  1.0000
  F   F71       1.0  0.45543  0.70026  0.21903  1.0000
  F   F72       1.0  0.45068  0.69083  0.71704  1.0000
  F   F73       1.0  0.71376  0.20370  0.20317  1.0000
  F   F74       1.0  0.70316  0.21459  0.71532  1.0000
  F   F75       1.0  0.70485  0.70167  0.21712  1.0000
  F   F76       1.0  0.69814  0.70927  0.71846  1.0000
  F   F77       1.0  0.94794  0.19420  0.20866  1.0000
  F   F78       1.0  0.95685  0.21469  0.70304  1.0000
  F   F79       1.0  0.95271  0.70260  0.19097  1.0000
  F   F80       1.0  0.95267  0.69545  0.71551  1.0000
  F   F81       1.0  0.14610  0.07039  0.04673  1.0000
  F   F82       1.0  0.14439  0.10308  0.53988  1.0000
  F   F83       1.0  0.14864  0.60927  0.04772  1.0000
  F   F84       1.0  0.14279  0.59931  0.54605  1.0000
  F   F85       1.0  0.38694  0.07567  0.04754  1.0000
  F   F86       1.0  0.39797  0.11423  0.54321  1.0000
  F   F87       1.0  0.40355  0.60568  0.04569  1.0000
  F   F88       1.0  0.40499  0.55766  0.54518  1.0000
  F   F89       1.0  0.64356  0.09703  0.03556  1.0000
  F   F90       1.0  0.64902  0.09280  0.54538  1.0000
  F   F91       1.0  0.65450  0.59468  0.04175  1.0000
  F   F92       1.0  0.65100  0.60251  0.54859  1.0000
  F   F93       1.0  0.89924  0.09468  0.03195  1.0000
  F   F94       1.0  0.90485  0.07409  0.53471  1.0000
  F   F95       1.0  0.89925  0.58905  0.03819  1.0000
  F   F96       1.0  0.89975  0.59836  0.52440  1.0000
  F   F97       1.0  0.15137  0.18546  0.12036  1.0000
  F   F98       1.0  0.14529  0.19955  0.63242  1.0000
  F   F99       1.0  0.14751  0.70388  0.15328  1.0000
  F   F100      1.0  0.16083  0.68743  0.62460  1.0000
  F   F101      1.0  0.39548  0.19497  0.10325  1.0000
  F   F102      1.0  0.40570  0.17883  0.65414  1.0000
  F   F103      1.0  0.39859  0.69943  0.14435  1.0000
  F   F104      1.0  0.41252  0.66862  0.60644  1.0000
  F   F105      1.0  0.66194  0.20056  0.11693  1.0000
  F   F106      1.0  0.65589  0.19511  0.62338  1.0000
  F   F107      1.0  0.65750  0.71234  0.11388  1.0000
  F   F108      1.0  0.65276  0.69886  0.63279  1.0000
  F   F109      1.0  0.90265  0.19122  0.11951  1.0000
  F   F110      1.0  0.89975  0.18635  0.62545  1.0000
  F   F111      1.0  0.90154  0.68956  0.11654  1.0000
  F   F112      1.0  0.89634  0.70993  0.63238  1.0000
  F   F113      1.0  0.09353  0.29617  0.38824  1.0000
  F   F114      1.0  0.10363  0.29589  0.87071  1.0000
  F   F115      1.0  0.09316  0.80614  0.36710  1.0000
  F   F116      1.0  0.09823  0.80902  0.85866  1.0000
  F   F117      1.0  0.34950  0.29683  0.39201  1.0000
  F   F118      1.0  0.34880  0.29977  0.89298  1.0000
  F   F119      1.0  0.35267  0.81001  0.37784  1.0000
  F   F120      1.0  0.35158  0.80875  0.86610  1.0000
  F   F121      1.0  0.59265  0.32277  0.39004  1.0000
  F   F122      1.0  0.59869  0.30111  0.86839  1.0000
  F   F123      1.0  0.59988  0.80070  0.38782  1.0000
  F   F124      1.0  0.59244  0.78107  0.90479  1.0000
  F   F125      1.0  0.84612  0.29931  0.37644  1.0000
  F   F126      1.0  0.85299  0.31283  0.87994  1.0000
  F   F127      1.0  0.85969  0.81821  0.34455  1.0000
  F   F128      1.0  0.84558  0.81347  0.90599  1.0000
  F   F129      1.0  0.06753  0.24526  0.13724  1.0000
  F   F130      1.0  0.06375  0.24914  0.64161  1.0000
  F   F131      1.0  0.05752  0.75199  0.14751  1.0000
  F   F132      1.0  0.07296  0.74423  0.63266  1.0000
  F   F133      1.0  0.30368  0.25268  0.14829  1.0000
  F   F134      1.0  0.33044  0.23969  0.62541  1.0000
  F   F135      1.0  0.32557  0.75968  0.12533  1.0000
  F   F136      1.0  0.32475  0.75159  0.62162  1.0000
  F   F137      1.0  0.56609  0.25174  0.13429  1.0000
  F   F138      1.0  0.56598  0.25351  0.63028  1.0000
  F   F139      1.0  0.56629  0.75119  0.15312  1.0000
  F   F140      1.0  0.56987  0.74479  0.64204  1.0000
  F   F141      1.0  0.80680  0.24530  0.15877  1.0000
  F   F142      1.0  0.81323  0.26642  0.63926  1.0000
  F   F143      1.0  0.81294  0.75042  0.14855  1.0000
  F   F144      1.0  0.80932  0.76065  0.64994  1.0000
  F   F145      1.0  0.12440  0.36984  0.09368  1.0000
  F   F146      1.0  0.12274  0.36535  0.62244  1.0000
  F   F147      1.0  0.12349  0.86084  0.12259  1.0000
  F   F148      1.0  0.12351  0.86200  0.61408  1.0000
  F   F149      1.0  0.36828  0.33930  0.13547  1.0000
  F   F150      1.0  0.37850  0.36982  0.59965  1.0000
  F   F151      1.0  0.37581  0.88598  0.09411  1.0000
  F   F152      1.0  0.38068  0.84754  0.61828  1.0000
  F   F153      1.0  0.62435  0.37821  0.10058  1.0000
  F   F154      1.0  0.62125  0.35883  0.63301  1.0000
  F   F155      1.0  0.62594  0.87812  0.09358  1.0000
  F   F156      1.0  0.62371  0.87269  0.62535  1.0000
  F   F157      1.0  0.87057  0.35995  0.11776  1.0000
  F   F158      1.0  0.87446  0.38795  0.58829  1.0000
  F   F159      1.0  0.87427  0.85740  0.11840  1.0000
  F   F160      1.0  0.87938  0.89646  0.57524  1.0000
  F   F161      1.0  0.18684  0.25130  0.34853  1.0000
  F   F162      1.0  0.17769  0.23402  0.86960  1.0000
  F   F163      1.0  0.19048  0.75305  0.34608  1.0000
  F   F164      1.0  0.19149  0.74836  0.84678  1.0000
  F   F165      1.0  0.44304  0.24159  0.34412  1.0000
  F   F166      1.0  0.43568  0.24641  0.86570  1.0000
  F   F167      1.0  0.43925  0.75010  0.35888  1.0000
  F   F168      1.0  0.43937  0.74937  0.84284  1.0000
  F   F169      1.0  0.68643  0.25277  0.35690  1.0000
  F   F170      1.0  0.67662  0.25287  0.86293  1.0000
  F   F171      1.0  0.68926  0.76149  0.35148  1.0000
  F   F172      1.0  0.67636  0.74645  0.87563  1.0000
  F   F173      1.0  0.93952  0.25351  0.34967  1.0000
  F   F174      1.0  0.93971  0.24470  0.86353  1.0000
  F   F175      1.0  0.94823  0.74599  0.33281  1.0000
  F   F176      1.0  0.94105  0.75370  0.85824  1.0000
  F   F177      1.0  0.12067  0.11481  0.40298  1.0000
  F   F178      1.0  0.12306  0.12504  0.89180  1.0000
  F   F179      1.0  0.12953  0.63691  0.39032  1.0000
  F   F180      1.0  0.12938  0.62976  0.90329  1.0000
  F   F181      1.0  0.37575  0.13444  0.39819  1.0000
  F   F182      1.0  0.36648  0.13224  0.89692  1.0000
  F   F183      1.0  0.37672  0.63657  0.38730  1.0000
  F   F184      1.0  0.37392  0.62577  0.91010  1.0000
  F   F185      1.0  0.62524  0.13893  0.37709  1.0000
  F   F186      1.0  0.62494  0.12532  0.89722  1.0000
  F   F187      1.0  0.62455  0.62372  0.41530  1.0000
  F   F188      1.0  0.62165  0.61013  0.91959  1.0000
  F   F189      1.0  0.87559  0.13370  0.39146  1.0000
  F   F190      1.0  0.87490  0.14491  0.88716  1.0000
  F   F191      1.0  0.88025  0.62779  0.38302  1.0000
  F   F192      1.0  0.88093  0.64699  0.88192  1.0000
  F   F193      1.0  0.00702  0.35040  0.08802  1.0000
  F   F194      1.0  0.01176  0.36583  0.57392  1.0000
  F   F195      1.0  0.00611  0.87318  0.06636  1.0000
  F   F196      1.0  0.00804  0.85615  0.58176  1.0000
  F   F197      1.0  0.25152  0.37189  0.05476  1.0000
  F   F198      1.0  0.26507  0.34432  0.56529  1.0000
  F   F199      1.0  0.26108  0.85495  0.07376  1.0000
  F   F200      1.0  0.25957  0.85702  0.57497  1.0000
  F   F201      1.0  0.50789  0.36166  0.05931  1.0000
  F   F202      1.0  0.50990  0.35796  0.57848  1.0000
  F   F203      1.0  0.50765  0.85422  0.08357  1.0000
  F   F204      1.0  0.51158  0.84564  0.56481  1.0000
  F   F205      1.0  0.75577  0.36345  0.07753  1.0000
  F   F206      1.0  0.75483  0.37776  0.57113  1.0000
  F   F207      1.0  0.75797  0.86610  0.06317  1.0000
  F   F208      1.0  0.75695  0.86784  0.56418  1.0000
  F   F209      1.0  0.06539  0.48764  0.18093  1.0000
  F   F210      1.0  0.06605  0.47359  0.70661  1.0000
  F   F211      1.0  0.06650  0.97609  0.19071  1.0000
  F   F212      1.0  0.06755  0.98568  0.66173  1.0000
  F   F213      1.0  0.32656  0.48105  0.16722  1.0000
  F   F214      1.0  0.31348  0.47383  0.68139  1.0000
  F   F215      1.0  0.30802  0.97701  0.19737  1.0000
  F   F216      1.0  0.32911  0.97612  0.65300  1.0000
  F   F217      1.0  0.57423  0.49146  0.15455  1.0000
  F   F218      1.0  0.56599  0.49079  0.67053  1.0000
  F   F219      1.0  0.56962  0.98366  0.17934  1.0000
  F   F220      1.0  0.56935  0.98674  0.66765  1.0000
  F   F221      1.0  0.82016  0.47630  0.18810  1.0000
  F   F222      1.0  0.81121  0.49661  0.66867  1.0000
  F   F223      1.0  0.82179  0.98587  0.16904  1.0000
  F   F224      1.0  0.81703  0.99336  0.66461  1.0000
  F   F225      1.0  0.23577  0.13163  0.43836  1.0000
  F   F226      1.0  0.24075  0.13165  0.92512  1.0000
  F   F227      1.0  0.24133  0.62717  0.42747  1.0000
  F   F228      1.0  0.24817  0.63483  0.91427  1.0000
  F   F229      1.0  0.49339  0.14440  0.43011  1.0000
  F   F230      1.0  0.49004  0.13537  0.92064  1.0000
  F   F231      1.0  0.49826  0.62369  0.41006  1.0000
  F   F232      1.0  0.49774  0.62614  0.92755  1.0000
  F   F233      1.0  0.74192  0.13664  0.43355  1.0000
  F   F234      1.0  0.74013  0.16276  0.91250  1.0000
  F   F235      1.0  0.74494  0.64675  0.42041  1.0000
  F   F236      1.0  0.74853  0.65288  0.89878  1.0000
  F   F237      1.0  0.99137  0.15508  0.42772  1.0000
  F   F238      1.0  0.99983  0.13567  0.92922  1.0000
  F   F239      1.0  0.99115  0.62584  0.44884  1.0000
  F   F240      1.0  0.99300  0.63813  0.92866  1.0000
  F   F241      1.0  0.18486  0.00834  0.32356  1.0000
  F   F242      1.0  0.18057  0.00927  0.82656  1.0000
  F   F243      1.0  0.18133  0.50494  0.33146  1.0000
  F   F244      1.0  0.18982  0.52685  0.79569  1.0000
  F   F245      1.0  0.43482  0.02502  0.31377  1.0000
  F   F246      1.0  0.43485  0.01424  0.82638  1.0000
  F   F247      1.0  0.43584  0.50943  0.32889  1.0000
  F   F248      1.0  0.43086  0.51606  0.82990  1.0000
  F   F249      1.0  0.67664  0.01676  0.33640  1.0000
  F   F250      1.0  0.68519  0.00902  0.81482  1.0000
  F   F251      1.0  0.67775  0.52751  0.31916  1.0000
  F   F252      1.0  0.67530  0.51540  0.81725  1.0000
  F   F253      1.0  0.93297  0.00840  0.33154  1.0000
  F   F254      1.0  0.93394  0.01877  0.81225  1.0000
  F   F255      1.0  0.92619  0.49655  0.35031  1.0000
  F   F256      1.0  0.93288  0.51304  0.83805  1.0000
  F   F257      1.0  0.00111  0.25852  0.99929  1.0000
  F   F258      1.0  0.99900  0.26840  0.49351  1.0000
  F   F259      1.0  0.00342  0.76729  0.97256  1.0000
  F   F260      1.0  0.99650  0.76588  0.48944  1.0000
  F   F261      1.0  0.24598  0.24172  0.00356  1.0000
  F   F262      1.0  0.24415  0.24072  0.50198  1.0000
  F   F263      1.0  0.25219  0.75523  0.97944  1.0000
  F   F264      1.0  0.25096  0.73984  0.49663  1.0000
  F   F265      1.0  0.50027  0.25219  0.98882  1.0000
  F   F266      1.0  0.50043  0.25047  0.49883  1.0000
  F   F267      1.0  0.50096  0.75220  0.00732  1.0000
  F   F268      1.0  0.49825  0.74219  0.49511  1.0000
  F   F269      1.0  0.75334  0.26645  0.99590  1.0000
  F   F270      1.0  0.74914  0.26448  0.49485  1.0000
  F   F271      1.0  0.75351  0.74844  0.99872  1.0000
  F   F272      1.0  0.75005  0.75628  0.48952  1.0000
  F   F273      1.0  0.12163  0.99633  0.26183  1.0000
  F   F274      1.0  0.12399  0.99571  0.74690  1.0000
  F   F275      1.0  0.12615  0.50706  0.24709  1.0000
  F   F276      1.0  0.12902  0.49608  0.74272  1.0000
  F   F277      1.0  0.37731  0.99558  0.24429  1.0000
  F   F278      1.0  0.38488  0.99856  0.72811  1.0000
  F   F279      1.0  0.37857  0.50663  0.24550  1.0000
  F   F280      1.0  0.37086  0.48506  0.75324  1.0000
  F   F281      1.0  0.62128  0.00591  0.25374  1.0000
  F   F282      1.0  0.60935  0.98433  0.76832  1.0000
  F   F283      1.0  0.62649  0.50523  0.24550  1.0000
  F   F284      1.0  0.61095  0.49896  0.76860  1.0000
  F   F285      1.0  0.87243  0.01022  0.25366  1.0000
  F   F286      1.0  0.87307  0.98981  0.74706  1.0000
  F   F287      1.0  0.87872  0.50325  0.24899  1.0000
  F   F288      1.0  0.87202  0.50486  0.74380  1.0000
  F   F289      1.0  0.04825  0.02620  0.01412  1.0000
  F   F290      1.0  0.04050  0.02270  0.52338  1.0000
  F   F291      1.0  0.05005  0.53350  0.01053  1.0000
  F   F292      1.0  0.05467  0.52137  0.53079  1.0000
  F   F293      1.0  0.29521  0.02618  0.02580  1.0000
  F   F294      1.0  0.28608  0.01237  0.52966  1.0000
  F   F295      1.0  0.28734  0.52752  0.02667  1.0000
  F   F296      1.0  0.28613  0.52503  0.53231  1.0000
  F   F297      1.0  0.53376  0.02623  0.03218  1.0000
  F   F298      1.0  0.55180  0.03221  0.49823  1.0000
  F   F299      1.0  0.53932  0.52714  0.02434  1.0000
  F   F300      1.0  0.53746  0.52789  0.51576  1.0000
  F   F301      1.0  0.78921  0.03577  0.02595  1.0000
  F   F302      1.0  0.79966  0.03795  0.50593  1.0000
  F   F303      1.0  0.80266  0.54283  0.01054  1.0000
  F   F304      1.0  0.79582  0.54362  0.52394  1.0000
  F   F305      1.0  0.23791  0.42185  0.20809  1.0000
  F   F306      1.0  0.23870  0.39583  0.73225  1.0000
  F   F307      1.0  0.23354  0.91756  0.23399  1.0000
  F   F308      1.0  0.23470  0.91085  0.73154  1.0000
  F   F309      1.0  0.48776  0.40818  0.23097  1.0000
  F   F310      1.0  0.47762  0.42192  0.72808  1.0000
  F   F311      1.0  0.48445  0.90998  0.23843  1.0000
  F   F312      1.0  0.48603  0.93020  0.71214  1.0000
  F   F313      1.0  0.73261  0.42808  0.21535  1.0000
  F   F314      1.0  0.73906  0.38829  0.74573  1.0000
  F   F315      1.0  0.73115  0.92951  0.22523  1.0000
  F   F316      1.0  0.73969  0.90233  0.72296  1.0000
  F   F317      1.0  0.98145  0.43528  0.22007  1.0000
  F   F318      1.0  0.98789  0.41080  0.73291  1.0000
  F   F319      1.0  0.98960  0.92173  0.21631  1.0000
  F   F320      1.0  0.98086  0.92240  0.72323  1.0000
  F   F321      1.0  0.20428  0.46879  0.48451  1.0000
  F   F322      1.0  0.19926  0.47617  0.97362  1.0000
  F   F323      1.0  0.20518  0.96338  0.48246  1.0000
  F   F324      1.0  0.20530  0.95259  0.98134  1.0000
  F   F325      1.0  0.45990  0.44624  0.47145  1.0000
  F   F326      1.0  0.44519  0.46697  0.99340  1.0000
  F   F327      1.0  0.45042  0.97416  0.49182  1.0000
  F   F328      1.0  0.46383  0.95524  0.97588  1.0000
  F   F329      1.0  0.69969  0.47619  0.48056  1.0000
  F   F330      1.0  0.70591  0.46964  0.97919  1.0000
  F   F331      1.0  0.69768  0.97873  0.48034  1.0000
  F   F332      1.0  0.70764  0.97943  0.96787  1.0000
  F   F333      1.0  0.96431  0.46159  0.47214  1.0000
  F   F334      1.0  0.95782  0.45934  0.98061  1.0000
  F   F335      1.0  0.96244  0.96494  0.46665  1.0000
  F   F336      1.0  0.95806  0.98286  0.97395  1.0000
  F   F337      1.0  0.00844  0.07741  0.28196  1.0000
  F   F338      1.0  0.01554  0.09235  0.77347  1.0000
  F   F339      1.0  0.01023  0.59307  0.26770  1.0000
  F   F340      1.0  0.01185  0.59611  0.77765  1.0000
  F   F341      1.0  0.25747  0.09603  0.27101  1.0000
  F   F342      1.0  0.26388  0.07272  0.77917  1.0000
  F   F343      1.0  0.26440  0.58187  0.26310  1.0000
  F   F344      1.0  0.27462  0.57314  0.77332  1.0000
  F   F345      1.0  0.51295  0.09728  0.26783  1.0000
  F   F346      1.0  0.52017  0.09180  0.76274  1.0000
  F   F347      1.0  0.52447  0.55764  0.28379  1.0000
  F   F348      1.0  0.51526  0.57105  0.78725  1.0000
  F   F349      1.0  0.76694  0.07045  0.28669  1.0000
  F   F350      1.0  0.76591  0.10192  0.77051  1.0000
  F   F351      1.0  0.76301  0.57570  0.27839  1.0000
  F   F352      1.0  0.76706  0.59142  0.76469  1.0000
  F   F353      1.0  0.10421  0.40403  0.45123  1.0000
  F   F354      1.0  0.10385  0.41431  0.94275  1.0000
  F   F355      1.0  0.09979  0.88972  0.46872  1.0000
  F   F356      1.0  0.10375  0.89926  0.95936  1.0000
  F   F357      1.0  0.35007  0.42847  0.45009  1.0000
  F   F358      1.0  0.34912  0.42949  0.96971  1.0000
  F   F359      1.0  0.35411  0.91487  0.47053  1.0000
  F   F360      1.0  0.35308  0.91493  0.95310  1.0000
  F   F361      1.0  0.60203  0.41533  0.46686  1.0000
  F   F362      1.0  0.59669  0.40612  0.96796  1.0000
  F   F363      1.0  0.60221  0.91355  0.46423  1.0000
  F   F364      1.0  0.60716  0.90896  0.95592  1.0000
  F   F365      1.0  0.84089  0.40463  0.45995  1.0000
  F   F366      1.0  0.85470  0.40903  0.96348  1.0000
  F   F367      1.0  0.84977  0.89904  0.44995  1.0000
  F   F368      1.0  0.84922  0.93247  0.96939  1.0000
  F   F369      1.0  0.04111  0.30318  0.28830  1.0000
  F   F370      1.0  0.04390  0.29625  0.79892  1.0000
  F   F371      1.0  0.04325  0.78679  0.30225  1.0000
  F   F372      1.0  0.04734  0.79677  0.77627  1.0000
  F   F373      1.0  0.29538  0.28858  0.29935  1.0000
  F   F374      1.0  0.30618  0.28283  0.78454  1.0000
  F   F375      1.0  0.30236  0.78618  0.27910  1.0000
  F   F376      1.0  0.29758  0.78672  0.77338  1.0000
  F   F377      1.0  0.55184  0.30378  0.29408  1.0000
  F   F378      1.0  0.54006  0.28993  0.78728  1.0000
  F   F379      1.0  0.54742  0.80226  0.28701  1.0000
  F   F380      1.0  0.53520  0.80372  0.78620  1.0000
  F   F381      1.0  0.78996  0.30064  0.29487  1.0000
  F   F382      1.0  0.80680  0.30635  0.78370  1.0000
  F   F383      1.0  0.79052  0.81257  0.28713  1.0000
  F   F384      1.0  0.81034  0.81471  0.77736  1.0000
