data_image0
_chemical_formula_structural       Hf96F384
_chemical_formula_sum              "Hf96 F384"
_cell_length_a       31.0277
_cell_length_b       15.512
_cell_length_c       15.5071
_cell_angle_alpha    63.342
_cell_angle_beta     63.342
_cell_angle_gamma    80.1625

_space_group_name_H-M_alt    "P 1"
_space_group_IT_number       1

loop_
  _space_group_symop_operation_xyz
  'x, y, z'

loop_
  _atom_site_type_symbol
  _atom_site_label
  _atom_site_symmetry_multiplicity
  _atom_site_fract_x
  _atom_site_fract_y
  _atom_site_fract_z
  _atom_site_occupancy
  Hf  Hf1       1.0  0.19651  0.11669  0.36739  1.0000
  Hf  Hf2       1.0  0.19781  0.11009  0.87255  1.0000
  Hf  Hf3       1.0  0.19749  0.60369  0.37493  1.0000
  Hf  Hf4       1.0  0.19892  0.61299  0.86646  1.0000
  Hf  Hf5       1.0  0.44588  0.10685  0.37937  1.0000
  Hf  Hf6       1.0  0.44463  0.10820  0.87642  1.0000
  Hf  Hf7       1.0  0.44751  0.61377  0.37214  1.0000
  Hf  Hf8       1.0  0.44413  0.60450  0.88767  1.0000
  Hf  Hf9       1.0  0.69871  0.09963  0.37729  1.0000
  Hf  Hf10      1.0  0.69589  0.11153  0.87301  1.0000
  Hf  Hf11      1.0  0.69681  0.60193  0.37463  1.0000
  Hf  Hf12      1.0  0.69433  0.60833  0.87601  1.0000
  Hf  Hf13      1.0  0.94668  0.11100  0.36592  1.0000
  Hf  Hf14      1.0  0.94556  0.09840  0.88471  1.0000
  Hf  Hf15      1.0  0.94514  0.59784  0.37742  1.0000
  Hf  Hf16      1.0  0.94624  0.60011  0.88440  1.0000
  Hf  Hf17      1.0  0.05291  0.38289  0.13094  1.0000
  Hf  Hf18      1.0  0.05414  0.39141  0.62938  1.0000
  Hf  Hf19      1.0  0.05194  0.88133  0.12985  1.0000
  Hf  Hf20      1.0  0.05281  0.88478  0.62804  1.0000
  Hf  Hf21      1.0  0.30384  0.40122  0.11781  1.0000
  Hf  Hf22      1.0  0.30469  0.38372  0.63983  1.0000
  Hf  Hf23      1.0  0.30647  0.88746  0.12026  1.0000
  Hf  Hf24      1.0  0.29973  0.89729  0.62769  1.0000
  Hf  Hf25      1.0  0.55655  0.39720  0.11601  1.0000
  Hf  Hf26      1.0  0.55373  0.39593  0.62491  1.0000
  Hf  Hf27      1.0  0.55280  0.89687  0.12964  1.0000
  Hf  Hf28      1.0  0.55577  0.89961  0.62437  1.0000
  Hf  Hf29      1.0  0.80435  0.39147  0.13194  1.0000
  Hf  Hf30      1.0  0.80400  0.39057  0.62033  1.0000
  Hf  Hf31      1.0  0.80603  0.89527  0.11855  1.0000
  Hf  Hf32      1.0  0.80330  0.89473  0.62224  1.0000
  Hf  Hf33      1.0  0.05442  0.17689  0.42059  1.0000
  Hf  Hf34      1.0  0.05839  0.18611  0.90586  1.0000
  Hf  Hf35      1.0  0.05417  0.67464  0.42634  1.0000
  Hf  Hf36      1.0  0.05722  0.68586  0.91582  1.0000
  Hf  Hf37      1.0  0.30644  0.18912  0.41283  1.0000
  Hf  Hf38      1.0  0.30347  0.17557  0.92357  1.0000
  Hf  Hf39      1.0  0.30536  0.67289  0.42563  1.0000
  Hf  Hf40      1.0  0.30567  0.69262  0.91229  1.0000
  Hf  Hf41      1.0  0.55838  0.18625  0.40744  1.0000
  Hf  Hf42      1.0  0.55371  0.18574  0.91677  1.0000
  Hf  Hf43      1.0  0.55812  0.69711  0.40842  1.0000
  Hf  Hf44      1.0  0.55415  0.68296  0.91860  1.0000
  Hf  Hf45      1.0  0.80370  0.18211  0.42344  1.0000
  Hf  Hf46      1.0  0.80421  0.18130  0.91391  1.0000
  Hf  Hf47      1.0  0.80011  0.67478  0.43024  1.0000
  Hf  Hf48      1.0  0.80776  0.68039  0.91464  1.0000
  Hf  Hf49      1.0  0.16054  0.38467  0.33905  1.0000
  Hf  Hf50      1.0  0.15982  0.38308  0.83570  1.0000
  Hf  Hf51      1.0  0.15792  0.88922  0.33579  1.0000
  Hf  Hf52      1.0  0.15783  0.89589  0.83091  1.0000
  Hf  Hf53      1.0  0.41319  0.38877  0.33122  1.0000
  Hf  Hf54      1.0  0.40609  0.39198  0.83572  1.0000
  Hf  Hf55      1.0  0.40719  0.88719  0.33715  1.0000
  Hf  Hf56      1.0  0.41025  0.89322  0.82574  1.0000
  Hf  Hf57      1.0  0.65970  0.37683  0.33851  1.0000
  Hf  Hf58      1.0  0.65989  0.39257  0.83146  1.0000
  Hf  Hf59      1.0  0.66005  0.88692  0.33087  1.0000
  Hf  Hf60      1.0  0.65558  0.88488  0.84055  1.0000
  Hf  Hf61      1.0  0.90776  0.38914  0.33368  1.0000
  Hf  Hf62      1.0  0.90742  0.38893  0.83264  1.0000
  Hf  Hf63      1.0  0.91071  0.88684  0.32724  1.0000
  Hf  Hf64      1.0  0.90872  0.88552  0.82926  1.0000
  Hf  Hf65      1.0  0.19613  0.33008  0.06843  1.0000
  Hf  Hf66      1.0  0.19479  0.31268  0.59419  1.0000
  Hf  Hf67      1.0  0.19534  0.81760  0.08339  1.0000
  Hf  Hf68      1.0  0.19319  0.81677  0.58463  1.0000
  Hf  Hf69      1.0  0.44554  0.31662  0.08633  1.0000
  Hf  Hf70      1.0  0.44715  0.31824  0.58132  1.0000
  Hf  Hf71      1.0  0.44058  0.81577  0.09017  1.0000
  Hf  Hf72      1.0  0.44648  0.81663  0.58315  1.0000
  Hf  Hf73      1.0  0.69338  0.32446  0.07514  1.0000
  Hf  Hf74      1.0  0.69218  0.31913  0.58874  1.0000
  Hf  Hf75      1.0  0.69701  0.82460  0.07150  1.0000
  Hf  Hf76      1.0  0.69528  0.81717  0.58632  1.0000
  Hf  Hf77      1.0  0.94385  0.31917  0.08096  1.0000
  Hf  Hf78      1.0  0.94229  0.30603  0.59344  1.0000
  Hf  Hf79      1.0  0.94261  0.81080  0.08644  1.0000
  Hf  Hf80      1.0  0.94228  0.81508  0.57790  1.0000
  Hf  Hf81      1.0  0.09216  0.10779  0.16319  1.0000
  Hf  Hf82      1.0  0.08789  0.10983  0.66518  1.0000
  Hf  Hf83      1.0  0.09093  0.60128  0.17742  1.0000
  Hf  Hf84      1.0  0.09020  0.60665  0.67283  1.0000
  Hf  Hf85      1.0  0.33844  0.11123  0.16657  1.0000
  Hf  Hf86      1.0  0.34181  0.11448  0.66404  1.0000
  Hf  Hf87      1.0  0.33811  0.60721  0.17669  1.0000
  Hf  Hf88      1.0  0.34312  0.62116  0.66653  1.0000
  Hf  Hf89      1.0  0.59405  0.12118  0.16143  1.0000
  Hf  Hf90      1.0  0.59136  0.11504  0.66647  1.0000
  Hf  Hf91      1.0  0.59412  0.62186  0.16213  1.0000
  Hf  Hf92      1.0  0.58913  0.61446  0.66402  1.0000
  Hf  Hf93      1.0  0.84139  0.11440  0.16448  1.0000
  Hf  Hf94      1.0  0.84324  0.11098  0.66313  1.0000
  Hf  Hf95      1.0  0.84368  0.61740  0.16069  1.0000
  Hf  Hf96      1.0  0.83791  0.60909  0.67059  1.0000
  F   F1        1.0  0.08030  0.12692  0.30795  1.0000
  F   F2        1.0  0.07904  0.12648  0.79984  1.0000
  F   F3        1.0  0.08122  0.62625  0.30874  1.0000
  F   F4        1.0  0.07895  0.64448  0.79367  1.0000
  F   F5        1.0  0.32769  0.13053  0.30497  1.0000
  F   F6        1.0  0.32891  0.13057  0.80676  1.0000
  F   F7        1.0  0.32332  0.59878  0.32671  1.0000
  F   F8        1.0  0.33380  0.64486  0.79397  1.0000
  F   F9        1.0  0.58493  0.14797  0.28993  1.0000
  F   F10       1.0  0.57121  0.11527  0.81146  1.0000
  F   F11       1.0  0.58164  0.64028  0.28670  1.0000
  F   F12       1.0  0.57329  0.61928  0.80747  1.0000
  F   F13       1.0  0.82615  0.12412  0.30215  1.0000
  F   F14       1.0  0.83225  0.12370  0.79966  1.0000
  F   F15       1.0  0.83279  0.65845  0.28952  1.0000
  F   F16       1.0  0.83054  0.61980  0.80411  1.0000
  F   F17       1.0  0.18085  0.32660  0.45999  1.0000
  F   F18       1.0  0.19116  0.34895  0.93407  1.0000
  F   F19       1.0  0.19056  0.83653  0.44679  1.0000
  F   F20       1.0  0.18429  0.85566  0.94615  1.0000
  F   F21       1.0  0.43637  0.32786  0.45489  1.0000
  F   F22       1.0  0.43741  0.34205  0.94799  1.0000
  F   F23       1.0  0.42904  0.82794  0.45947  1.0000
  F   F24       1.0  0.43087  0.84328  0.95131  1.0000
  F   F25       1.0  0.68163  0.33668  0.45491  1.0000
  F   F26       1.0  0.68732  0.34122  0.94599  1.0000
  F   F27       1.0  0.68422  0.84346  0.44204  1.0000
  F   F28       1.0  0.69024  0.85443  0.93672  1.0000
  F   F29       1.0  0.93512  0.34473  0.44474  1.0000
  F   F30       1.0  0.93475  0.34377  0.94927  1.0000
  F   F31       1.0  0.94924  0.84069  0.42660  1.0000
  F   F32       1.0  0.92983  0.84546  0.94445  1.0000
  F   F33       1.0  0.17399  0.37352  0.18108  1.0000
  F   F34       1.0  0.17209  0.37285  0.70371  1.0000
  F   F35       1.0  0.16587  0.87146  0.20304  1.0000
  F   F36       1.0  0.17425  0.86144  0.70209  1.0000
  F   F37       1.0  0.41762  0.35209  0.20851  1.0000
  F   F38       1.0  0.42205  0.37472  0.69400  1.0000
  F   F39       1.0  0.41934  0.88025  0.19964  1.0000
  F   F40       1.0  0.42406  0.86632  0.69834  1.0000
  F   F41       1.0  0.67277  0.38069  0.19164  1.0000
  F   F42       1.0  0.66838  0.37824  0.68882  1.0000
  F   F43       1.0  0.67149  0.86905  0.19554  1.0000
  F   F44       1.0  0.67455  0.87173  0.69574  1.0000
  F   F45       1.0  0.91777  0.37710  0.19883  1.0000
  F   F46       1.0  0.91556  0.36639  0.69862  1.0000
  F   F47       1.0  0.92558  0.87757  0.19202  1.0000
  F   F48       1.0  0.90916  0.86674  0.69641  1.0000
  F   F49       1.0  0.06165  0.16097  0.05556  1.0000
  F   F50       1.0  0.06190  0.16495  0.55114  1.0000
  F   F51       1.0  0.06609  0.66035  0.05104  1.0000
  F   F52       1.0  0.06310  0.64449  0.56528  1.0000
  F   F53       1.0  0.30637  0.15088  0.06391  1.0000
  F   F54       1.0  0.32491  0.16608  0.53773  1.0000
  F   F55       1.0  0.31896  0.67183  0.04418  1.0000
  F   F56       1.0  0.30571  0.64352  0.57560  1.0000
  F   F57       1.0  0.56844  0.16062  0.05240  1.0000
  F   F58       1.0  0.56513  0.16802  0.55272  1.0000
  F   F59       1.0  0.56663  0.65746  0.04690  1.0000
  F   F60       1.0  0.56179  0.66350  0.54893  1.0000
  F   F61       1.0  0.81034  0.17749  0.05787  1.0000
  F   F62       1.0  0.81739  0.16276  0.54929  1.0000
  F   F63       1.0  0.80618  0.65686  0.06588  1.0000
  F   F64       1.0  0.80881  0.66136  0.55334  1.0000
  F   F65       1.0  0.20767  0.20016  0.20424  1.0000
  F   F66       1.0  0.21358  0.19732  0.70913  1.0000
  F   F67       1.0  0.20066  0.70339  0.21179  1.0000
  F   F68       1.0  0.20547  0.71053  0.71760  1.0000
  F   F69       1.0  0.46343  0.19615  0.21005  1.0000
  F   F70       1.0  0.45222  0.20147  0.71666  1.0000
  F   F71       1.0  0.45470  0.70968  0.20466  1.0000
  F   F72       1.0  0.45240  0.70877  0.71402  1.0000
  F   F73       1.0  0.69902  0.20387  0.20345  1.0000
  F   F74       1.0  0.70564  0.20250  0.71208  1.0000
  F   F75       1.0  0.70364  0.71033  0.18921  1.0000
  F   F76       1.0  0.70936  0.70133  0.71086  1.0000
  F   F77       1.0  0.95882  0.20299  0.19788  1.0000
  F   F78       1.0  0.94944  0.19636  0.71991  1.0000
  F   F79       1.0  0.94579  0.69641  0.22416  1.0000
  F   F80       1.0  0.95375  0.70977  0.70843  1.0000
  F   F81       1.0  0.14132  0.08810  0.03618  1.0000
  F   F82       1.0  0.14634  0.11326  0.53541  1.0000
  F   F83       1.0  0.15434  0.58005  0.04017  1.0000
  F   F84       1.0  0.14509  0.58693  0.55343  1.0000
  F   F85       1.0  0.39866  0.09158  0.04715  1.0000
  F   F86       1.0  0.39769  0.06788  0.53696  1.0000
  F   F87       1.0  0.39241  0.58389  0.05796  1.0000
  F   F88       1.0  0.40137  0.61732  0.52678  1.0000
  F   F89       1.0  0.64632  0.09445  0.03018  1.0000
  F   F90       1.0  0.65334  0.09970  0.53582  1.0000
  F   F91       1.0  0.64663  0.59012  0.03567  1.0000
  F   F92       1.0  0.64486  0.58265  0.53197  1.0000
  F   F93       1.0  0.89701  0.09050  0.03998  1.0000
  F   F94       1.0  0.89969  0.09041  0.52264  1.0000
  F   F95       1.0  0.89908  0.57677  0.04233  1.0000
  F   F96       1.0  0.89487  0.57832  0.55417  1.0000
  F   F97       1.0  0.15249  0.19865  0.11750  1.0000
  F   F98       1.0  0.15735  0.19345  0.63739  1.0000
  F   F99       1.0  0.15203  0.68323  0.12937  1.0000
  F   F100      1.0  0.15520  0.69789  0.62071  1.0000
  F   F101      1.0  0.40845  0.20262  0.12462  1.0000
  F   F102      1.0  0.39766  0.19629  0.61905  1.0000
  F   F103      1.0  0.39528  0.69372  0.13736  1.0000
  F   F104      1.0  0.40695  0.69063  0.62683  1.0000
  F   F105      1.0  0.65343  0.21015  0.10279  1.0000
  F   F106      1.0  0.64451  0.21203  0.64334  1.0000
  F   F107      1.0  0.65139  0.71068  0.11031  1.0000
  F   F108      1.0  0.65344  0.68964  0.62876  1.0000
  F   F109      1.0  0.90261  0.18705  0.12521  1.0000
  F   F110      1.0  0.90641  0.19343  0.60506  1.0000
  F   F111      1.0  0.90865  0.68681  0.10816  1.0000
  F   F112      1.0  0.89419  0.70493  0.62050  1.0000
  F   F113      1.0  0.09779  0.29612  0.37833  1.0000
  F   F114      1.0  0.09870  0.29963  0.86944  1.0000
  F   F115      1.0  0.09020  0.79215  0.39468  1.0000
  F   F116      1.0  0.09614  0.80830  0.86248  1.0000
  F   F117      1.0  0.34881  0.30962  0.37816  1.0000
  F   F118      1.0  0.34685  0.30169  0.87161  1.0000
  F   F119      1.0  0.35202  0.78982  0.38734  1.0000
  F   F120      1.0  0.35092  0.81063  0.85150  1.0000
  F   F121      1.0  0.60159  0.29967  0.34384  1.0000
  F   F122      1.0  0.59544  0.31891  0.87689  1.0000
  F   F123      1.0  0.59748  0.81365  0.37019  1.0000
  F   F124      1.0  0.59456  0.80597  0.87265  1.0000
  F   F125      1.0  0.84942  0.30632  0.37725  1.0000
  F   F126      1.0  0.84992  0.30676  0.87636  1.0000
  F   F127      1.0  0.84887  0.78928  0.35454  1.0000
  F   F128      1.0  0.84989  0.79098  0.88493  1.0000
  F   F129      1.0  0.05678  0.24596  0.15674  1.0000
  F   F130      1.0  0.07058  0.25279  0.63535  1.0000
  F   F131      1.0  0.06400  0.74045  0.14852  1.0000
  F   F132      1.0  0.06978  0.74809  0.63181  1.0000
  F   F133      1.0  0.32079  0.25708  0.12235  1.0000
  F   F134      1.0  0.30020  0.23964  0.66213  1.0000
  F   F135      1.0  0.30606  0.74005  0.16093  1.0000
  F   F136      1.0  0.31468  0.75448  0.64745  1.0000
  F   F137      1.0  0.56897  0.25900  0.12664  1.0000
  F   F138      1.0  0.56421  0.25421  0.65074  1.0000
  F   F139      1.0  0.56293  0.75885  0.12763  1.0000
  F   F140      1.0  0.58178  0.76099  0.60611  1.0000
  F   F141      1.0  0.81415  0.25230  0.15977  1.0000
  F   F142      1.0  0.82258  0.24943  0.63820  1.0000
  F   F143      1.0  0.82990  0.76384  0.10674  1.0000
  F   F144      1.0  0.80878  0.75054  0.64024  1.0000
  F   F145      1.0  0.12504  0.38257  0.10394  1.0000
  F   F146      1.0  0.12452  0.36807  0.61597  1.0000
  F   F147      1.0  0.12255  0.86437  0.10754  1.0000
  F   F148      1.0  0.12483  0.86177  0.61307  1.0000
  F   F149      1.0  0.37098  0.38021  0.10446  1.0000
  F   F150      1.0  0.37305  0.34203  0.63552  1.0000
  F   F151      1.0  0.37605  0.86733  0.10113  1.0000
  F   F152      1.0  0.37367  0.85950  0.62120  1.0000
  F   F153      1.0  0.62313  0.37337  0.11743  1.0000
  F   F154      1.0  0.62604  0.39314  0.59104  1.0000
  F   F155      1.0  0.62297  0.87800  0.10485  1.0000
  F   F156      1.0  0.62668  0.86443  0.61279  1.0000
  F   F157      1.0  0.87284  0.37869  0.10974  1.0000
  F   F158      1.0  0.87518  0.36763  0.60658  1.0000
  F   F159      1.0  0.87501  0.86854  0.11249  1.0000
  F   F160      1.0  0.87611  0.88850  0.57734  1.0000
  F   F161      1.0  0.18826  0.26173  0.34167  1.0000
  F   F162      1.0  0.18203  0.24475  0.86585  1.0000
  F   F163      1.0  0.17624  0.74141  0.37201  1.0000
  F   F164      1.0  0.17782  0.74516  0.87902  1.0000
  F   F165      1.0  0.44043  0.25109  0.35370  1.0000
  F   F166      1.0  0.43102  0.25131  0.85568  1.0000
  F   F167      1.0  0.44455  0.74930  0.35024  1.0000
  F   F168      1.0  0.43208  0.74649  0.86774  1.0000
  F   F169      1.0  0.69149  0.25435  0.34064  1.0000
  F   F170      1.0  0.68504  0.25468  0.84786  1.0000
  F   F171      1.0  0.68436  0.74292  0.35690  1.0000
  F   F172      1.0  0.67451  0.74465  0.88059  1.0000
  F   F173      1.0  0.94407  0.25977  0.33713  1.0000
  F   F174      1.0  0.93843  0.24259  0.86558  1.0000
  F   F175      1.0  0.93027  0.74113  0.36914  1.0000
  F   F176      1.0  0.93861  0.74645  0.85847  1.0000
  F   F177      1.0  0.12361  0.12286  0.40247  1.0000
  F   F178      1.0  0.12772  0.14135  0.87170  1.0000
  F   F179      1.0  0.12582  0.60672  0.40617  1.0000
  F   F180      1.0  0.12736  0.63173  0.89022  1.0000
  F   F181      1.0  0.38048  0.15443  0.36187  1.0000
  F   F182      1.0  0.36953  0.11798  0.91374  1.0000
  F   F183      1.0  0.37788  0.62590  0.39040  1.0000
  F   F184      1.0  0.37639  0.63127  0.89179  1.0000
  F   F185      1.0  0.62637  0.12842  0.40575  1.0000
  F   F186      1.0  0.62489  0.15482  0.86651  1.0000
  F   F187      1.0  0.62614  0.64345  0.38369  1.0000
  F   F188      1.0  0.62686  0.63745  0.87190  1.0000
  F   F189      1.0  0.87960  0.15479  0.36698  1.0000
  F   F190      1.0  0.87448  0.12141  0.90153  1.0000
  F   F191      1.0  0.86930  0.60883  0.41355  1.0000
  F   F192      1.0  0.87655  0.63565  0.88439  1.0000
  F   F193      1.0  0.00372  0.36461  0.07343  1.0000
  F   F194      1.0  0.00120  0.35628  0.58355  1.0000
  F   F195      1.0  0.00977  0.83818  0.07535  1.0000
  F   F196      1.0  0.01235  0.84737  0.57022  1.0000
  F   F197      1.0  0.26359  0.35946  0.05994  1.0000
  F   F198      1.0  0.25588  0.36653  0.58947  1.0000
  F   F199      1.0  0.25714  0.88246  0.06276  1.0000
  F   F200      1.0  0.26028  0.86451  0.56368  1.0000
  F   F201      1.0  0.50856  0.37164  0.06340  1.0000
  F   F202      1.0  0.51007  0.36212  0.56655  1.0000
  F   F203      1.0  0.50526  0.86463  0.07957  1.0000
  F   F204      1.0  0.50990  0.87104  0.58100  1.0000
  F   F205      1.0  0.75889  0.37523  0.07617  1.0000
  F   F206      1.0  0.75540  0.34343  0.58783  1.0000
  F   F207      1.0  0.76129  0.86577  0.07132  1.0000
  F   F208      1.0  0.76186  0.87590  0.56611  1.0000
  F   F209      1.0  0.06809  0.47874  0.18205  1.0000
  F   F210      1.0  0.06409  0.47711  0.68761  1.0000
  F   F211      1.0  0.06446  0.98373  0.16519  1.0000
  F   F212      1.0  0.06712  0.98640  0.67449  1.0000
  F   F213      1.0  0.30960  0.49514  0.17101  1.0000
  F   F214      1.0  0.32909  0.48793  0.65938  1.0000
  F   F215      1.0  0.32260  0.99338  0.16114  1.0000
  F   F216      1.0  0.31700  0.98396  0.68069  1.0000
  F   F217      1.0  0.56871  0.49267  0.16043  1.0000
  F   F218      1.0  0.56698  0.48063  0.68971  1.0000
  F   F219      1.0  0.57124  0.99953  0.17403  1.0000
  F   F220      1.0  0.56869  0.98483  0.68599  1.0000
  F   F221      1.0  0.81314  0.48655  0.19023  1.0000
  F   F222      1.0  0.81832  0.47977  0.66990  1.0000
  F   F223      1.0  0.81771  0.99520  0.16088  1.0000
  F   F224      1.0  0.82467  0.97369  0.68011  1.0000
  F   F225      1.0  0.23846  0.15166  0.42764  1.0000
  F   F226      1.0  0.24200  0.14488  0.93315  1.0000
  F   F227      1.0  0.23450  0.64335  0.43384  1.0000
  F   F228      1.0  0.24627  0.63626  0.91570  1.0000
  F   F229      1.0  0.49229  0.13121  0.43925  1.0000
  F   F230      1.0  0.48879  0.14373  0.92380  1.0000
  F   F231      1.0  0.49770  0.63481  0.42684  1.0000
  F   F232      1.0  0.48843  0.63890  0.93256  1.0000
  F   F233      1.0  0.74300  0.11763  0.43467  1.0000
  F   F234      1.0  0.74301  0.15113  0.92103  1.0000
  F   F235      1.0  0.73839  0.63679  0.42462  1.0000
  F   F236      1.0  0.74051  0.64173  0.91324  1.0000
  F   F237      1.0  0.99404  0.13236  0.42328  1.0000
  F   F238      1.0  0.99181  0.12897  0.92593  1.0000
  F   F239      1.0  0.99295  0.63941  0.42039  1.0000
  F   F240      1.0  0.99149  0.62608  0.94035  1.0000
  F   F241      1.0  0.18667  0.01867  0.32501  1.0000
  F   F242      1.0  0.18030  0.02277  0.81627  1.0000
  F   F243      1.0  0.18786  0.51310  0.31759  1.0000
  F   F244      1.0  0.18084  0.52171  0.82358  1.0000
  F   F245      1.0  0.43353  0.00510  0.33508  1.0000
  F   F246      1.0  0.42153  0.01601  0.84095  1.0000
  F   F247      1.0  0.43474  0.51046  0.32232  1.0000
  F   F248      1.0  0.43175  0.51510  0.82405  1.0000
  F   F249      1.0  0.68150  0.02126  0.32514  1.0000
  F   F250      1.0  0.67932  0.01497  0.83904  1.0000
  F   F251      1.0  0.67325  0.50754  0.34116  1.0000
  F   F252      1.0  0.68307  0.51173  0.82951  1.0000
  F   F253      1.0  0.92409  0.02011  0.31899  1.0000
  F   F254      1.0  0.93389  0.00573  0.82827  1.0000
  F   F255      1.0  0.93669  0.51197  0.31057  1.0000
  F   F256      1.0  0.93574  0.51742  0.81798  1.0000
  F   F257      1.0  0.00153  0.24768  0.99822  1.0000
  F   F258      1.0  0.99976  0.25100  0.50433  1.0000
  F   F259      1.0  0.99679  0.75187  0.98896  1.0000
  F   F260      1.0  0.99333  0.70517  0.53580  1.0000
  F   F261      1.0  0.25138  0.25822  0.99469  1.0000
  F   F262      1.0  0.25139  0.24954  0.50774  1.0000
  F   F263      1.0  0.25104  0.74778  0.00319  1.0000
  F   F264      1.0  0.24835  0.73349  0.51461  1.0000
  F   F265      1.0  0.50251  0.24217  0.00985  1.0000
  F   F266      1.0  0.50334  0.25310  0.50016  1.0000
  F   F267      1.0  0.49856  0.74485  0.99862  1.0000
  F   F268      1.0  0.50378  0.76591  0.49636  1.0000
  F   F269      1.0  0.75597  0.26927  0.98693  1.0000
  F   F270      1.0  0.74557  0.23022  0.51060  1.0000
  F   F271      1.0  0.75074  0.76441  0.98690  1.0000
  F   F272      1.0  0.74397  0.74412  0.50368  1.0000
  F   F273      1.0  0.12297  0.99802  0.24719  1.0000
  F   F274      1.0  0.12412  0.99361  0.74192  1.0000
  F   F275      1.0  0.12551  0.49147  0.24912  1.0000
  F   F276      1.0  0.11994  0.49349  0.76168  1.0000
  F   F277      1.0  0.36642  0.99924  0.25924  1.0000
  F   F278      1.0  0.37730  0.99618  0.74619  1.0000
  F   F279      1.0  0.37882  0.48722  0.24549  1.0000
  F   F280      1.0  0.37563  0.50510  0.74985  1.0000
  F   F281      1.0  0.63276  0.01388  0.23347  1.0000
  F   F282      1.0  0.63129  0.00774  0.74921  1.0000
  F   F283      1.0  0.62378  0.50218  0.24204  1.0000
  F   F284      1.0  0.62741  0.50678  0.74619  1.0000
  F   F285      1.0  0.86579  0.99142  0.26264  1.0000
  F   F286      1.0  0.88050  0.00688  0.73796  1.0000
  F   F287      1.0  0.87531  0.50332  0.24932  1.0000
  F   F288      1.0  0.87827  0.50393  0.75006  1.0000
  F   F289      1.0  0.05017  0.02365  0.01430  1.0000
  F   F290      1.0  0.04558  0.02334  0.52740  1.0000
  F   F291      1.0  0.04999  0.52941  0.02399  1.0000
  F   F292      1.0  0.04320  0.52971  0.51424  1.0000
  F   F293      1.0  0.29226  0.02750  0.02171  1.0000
  F   F294      1.0  0.29708  0.04315  0.51674  1.0000
  F   F295      1.0  0.29050  0.54676  0.02236  1.0000
  F   F296      1.0  0.29870  0.52674  0.51927  1.0000
  F   F297      1.0  0.53686  0.04221  0.02461  1.0000
  F   F298      1.0  0.54868  0.03345  0.51906  1.0000
  F   F299      1.0  0.54135  0.53737  0.02500  1.0000
  F   F300      1.0  0.55139  0.53215  0.51930  1.0000
  F   F301      1.0  0.78482  0.03480  0.03118  1.0000
  F   F302      1.0  0.80152  0.02615  0.51767  1.0000
  F   F303      1.0  0.79056  0.53495  0.01740  1.0000
  F   F304      1.0  0.78512  0.53330  0.52263  1.0000
  F   F305      1.0  0.23364  0.40683  0.22532  1.0000
  F   F306      1.0  0.23316  0.43207  0.72627  1.0000
  F   F307      1.0  0.23461  0.90500  0.22710  1.0000
  F   F308      1.0  0.23514  0.92792  0.71785  1.0000
  F   F309      1.0  0.48450  0.42342  0.22272  1.0000
  F   F310      1.0  0.48462  0.42333  0.71580  1.0000
  F   F311      1.0  0.48871  0.91644  0.22965  1.0000
  F   F312      1.0  0.48366  0.91691  0.73001  1.0000
  F   F313      1.0  0.74039  0.39891  0.23812  1.0000
  F   F314      1.0  0.73101  0.41710  0.73135  1.0000
  F   F315      1.0  0.73550  0.92488  0.22214  1.0000
  F   F316      1.0  0.72982  0.91149  0.74054  1.0000
  F   F317      1.0  0.98645  0.41703  0.22037  1.0000
  F   F318      1.0  0.98161  0.41453  0.72135  1.0000
  F   F319      1.0  0.98698  0.91414  0.21495  1.0000
  F   F320      1.0  0.98383  0.90304  0.72157  1.0000
  F   F321      1.0  0.20717  0.45650  0.48321  1.0000
  F   F322      1.0  0.21528  0.46889  0.95167  1.0000
  F   F323      1.0  0.19988  0.97710  0.48850  1.0000
  F   F324      1.0  0.20440  0.97708  0.98114  1.0000
  F   F325      1.0  0.45005  0.47626  0.48632  1.0000
  F   F326      1.0  0.44910  0.46689  0.98404  1.0000
  F   F327      1.0  0.46092  0.96433  0.46773  1.0000
  F   F328      1.0  0.45655  0.97589  0.97130  1.0000
  F   F329      1.0  0.71527  0.46043  0.47093  1.0000
  F   F330      1.0  0.70557  0.47942  0.97764  1.0000
  F   F331      1.0  0.70889  0.96188  0.47814  1.0000
  F   F332      1.0  0.70667  0.97582  0.97867  1.0000
  F   F333      1.0  0.95454  0.46992  0.47590  1.0000
  F   F334      1.0  0.95555  0.46226  0.97863  1.0000
  F   F335      1.0  0.95788  0.96758  0.47141  1.0000
  F   F336      1.0  0.95896  0.96760  0.98110  1.0000
  F   F337      1.0  0.01448  0.08021  0.26290  1.0000
  F   F338      1.0  0.01368  0.07793  0.77654  1.0000
  F   F339      1.0  0.01519  0.58236  0.27043  1.0000
  F   F340      1.0  0.01407  0.58835  0.77340  1.0000
  F   F341      1.0  0.26636  0.08385  0.28115  1.0000
  F   F342      1.0  0.26619  0.07469  0.78123  1.0000
  F   F343      1.0  0.26551  0.58018  0.26937  1.0000
  F   F344      1.0  0.27078  0.56878  0.77168  1.0000
  F   F345      1.0  0.52060  0.08829  0.28065  1.0000
  F   F346      1.0  0.51194  0.09069  0.76972  1.0000
  F   F347      1.0  0.51394  0.59942  0.27043  1.0000
  F   F348      1.0  0.51186  0.60085  0.76758  1.0000
  F   F349      1.0  0.76060  0.07034  0.28378  1.0000
  F   F350      1.0  0.76755  0.09969  0.76086  1.0000
  F   F351      1.0  0.76773  0.59678  0.27559  1.0000
  F   F352      1.0  0.76984  0.55978  0.78226  1.0000
  F   F353      1.0  0.10372  0.42282  0.45205  1.0000
  F   F354      1.0  0.10134  0.38901  0.96678  1.0000
  F   F355      1.0  0.10516  0.91464  0.45606  1.0000
  F   F356      1.0  0.10124  0.89491  0.95800  1.0000
  F   F357      1.0  0.35485  0.39309  0.48603  1.0000
  F   F358      1.0  0.35121  0.41859  0.95187  1.0000
  F   F359      1.0  0.34789  0.91159  0.46723  1.0000
  F   F360      1.0  0.34565  0.89202  0.96749  1.0000
  F   F361      1.0  0.59977  0.39199  0.45111  1.0000
  F   F362      1.0  0.60025  0.41368  0.96179  1.0000
  F   F363      1.0  0.60313  0.90607  0.45445  1.0000
  F   F364      1.0  0.59696  0.90302  0.96811  1.0000
  F   F365      1.0  0.84837  0.42523  0.45683  1.0000
  F   F366      1.0  0.85141  0.40678  0.96516  1.0000
  F   F367      1.0  0.85085  0.89282  0.44536  1.0000
  F   F368      1.0  0.85512  0.92957  0.94204  1.0000
  F   F369      1.0  0.04288  0.29122  0.30091  1.0000
  F   F370      1.0  0.04047  0.30278  0.79305  1.0000
  F   F371      1.0  0.04226  0.79547  0.28627  1.0000
  F   F372      1.0  0.04215  0.80707  0.78831  1.0000
  F   F373      1.0  0.29726  0.30969  0.27454  1.0000
  F   F374      1.0  0.29060  0.30632  0.79606  1.0000
  F   F375      1.0  0.30686  0.78741  0.28534  1.0000
  F   F376      1.0  0.28996  0.80046  0.79733  1.0000
  F   F377      1.0  0.54197  0.29551  0.27968  1.0000
  F   F378      1.0  0.55391  0.29992  0.77892  1.0000
  F   F379      1.0  0.54858  0.79927  0.27766  1.0000
  F   F380      1.0  0.54972  0.79762  0.78537  1.0000
  F   F381      1.0  0.80317  0.29747  0.29284  1.0000
  F   F382      1.0  0.79740  0.29897  0.78291  1.0000
  F   F383      1.0  0.78838  0.79721  0.27075  1.0000
  F   F384      1.0  0.80448  0.79125  0.78367  1.0000
