data_image0
_chemical_formula_structural       Hf96F384
_chemical_formula_sum              "Hf96 F384"
_cell_length_a       31.0612
_cell_length_b       15.525
_cell_length_c       15.5228
_cell_angle_alpha    63.342
_cell_angle_beta     63.342
_cell_angle_gamma    80.1625

_space_group_name_H-M_alt    "P 1"
_space_group_IT_number       1

loop_
  _space_group_symop_operation_xyz
  'x, y, z'

loop_
  _atom_site_type_symbol
  _atom_site_label
  _atom_site_symmetry_multiplicity
  _atom_site_fract_x
  _atom_site_fract_y
  _atom_site_fract_z
  _atom_site_occupancy
  Hf  Hf1       1.0  0.19185  0.10975  0.38815  1.0000
  Hf  Hf2       1.0  0.20093  0.10758  0.87062  1.0000
  Hf  Hf3       1.0  0.19562  0.60614  0.37697  1.0000
  Hf  Hf4       1.0  0.19642  0.60480  0.87829  1.0000
  Hf  Hf5       1.0  0.44769  0.10810  0.37866  1.0000
  Hf  Hf6       1.0  0.44748  0.11769  0.86571  1.0000
  Hf  Hf7       1.0  0.44462  0.61031  0.36918  1.0000
  Hf  Hf8       1.0  0.44722  0.60497  0.87172  1.0000
  Hf  Hf9       1.0  0.69584  0.11141  0.36722  1.0000
  Hf  Hf10      1.0  0.69758  0.10781  0.87332  1.0000
  Hf  Hf11      1.0  0.69293  0.59537  0.39127  1.0000
  Hf  Hf12      1.0  0.69867  0.61672  0.86465  1.0000
  Hf  Hf13      1.0  0.94471  0.10672  0.37383  1.0000
  Hf  Hf14      1.0  0.94515  0.11152  0.87712  1.0000
  Hf  Hf15      1.0  0.94493  0.60418  0.37853  1.0000
  Hf  Hf16      1.0  0.95162  0.61454  0.85910  1.0000
  Hf  Hf17      1.0  0.05267  0.39754  0.12227  1.0000
  Hf  Hf18      1.0  0.05409  0.38724  0.62191  1.0000
  Hf  Hf19      1.0  0.05202  0.89193  0.11763  1.0000
  Hf  Hf20      1.0  0.05238  0.89402  0.62366  1.0000
  Hf  Hf21      1.0  0.30337  0.38623  0.13257  1.0000
  Hf  Hf22      1.0  0.30704  0.38953  0.62828  1.0000
  Hf  Hf23      1.0  0.30503  0.89850  0.13084  1.0000
  Hf  Hf24      1.0  0.30734  0.89576  0.62057  1.0000
  Hf  Hf25      1.0  0.55301  0.39169  0.12633  1.0000
  Hf  Hf26      1.0  0.55410  0.38818  0.62863  1.0000
  Hf  Hf27      1.0  0.55023  0.89345  0.12213  1.0000
  Hf  Hf28      1.0  0.55395  0.88991  0.63650  1.0000
  Hf  Hf29      1.0  0.79764  0.38267  0.13093  1.0000
  Hf  Hf30      1.0  0.80363  0.39586  0.62719  1.0000
  Hf  Hf31      1.0  0.80376  0.88224  0.12333  1.0000
  Hf  Hf32      1.0  0.80196  0.88437  0.63327  1.0000
  Hf  Hf33      1.0  0.05534  0.18449  0.41710  1.0000
  Hf  Hf34      1.0  0.05643  0.18147  0.91384  1.0000
  Hf  Hf35      1.0  0.05315  0.67717  0.41488  1.0000
  Hf  Hf36      1.0  0.05957  0.68444  0.90654  1.0000
  Hf  Hf37      1.0  0.30893  0.18243  0.41435  1.0000
  Hf  Hf38      1.0  0.30353  0.18677  0.91984  1.0000
  Hf  Hf39      1.0  0.30622  0.68770  0.41243  1.0000
  Hf  Hf40      1.0  0.30753  0.67868  0.91688  1.0000
  Hf  Hf41      1.0  0.55411  0.18619  0.41735  1.0000
  Hf  Hf42      1.0  0.55792  0.18499  0.90989  1.0000
  Hf  Hf43      1.0  0.55398  0.67454  0.42631  1.0000
  Hf  Hf44      1.0  0.55359  0.68196  0.92130  1.0000
  Hf  Hf45      1.0  0.79923  0.17809  0.42161  1.0000
  Hf  Hf46      1.0  0.80499  0.18079  0.91653  1.0000
  Hf  Hf47      1.0  0.80497  0.67106  0.42443  1.0000
  Hf  Hf48      1.0  0.80331  0.67802  0.92162  1.0000
  Hf  Hf49      1.0  0.16044  0.39191  0.33392  1.0000
  Hf  Hf50      1.0  0.16482  0.38649  0.82416  1.0000
  Hf  Hf51      1.0  0.16256  0.88659  0.33687  1.0000
  Hf  Hf52      1.0  0.15927  0.88653  0.83209  1.0000
  Hf  Hf53      1.0  0.41063  0.39280  0.32863  1.0000
  Hf  Hf54      1.0  0.40574  0.38582  0.83420  1.0000
  Hf  Hf55      1.0  0.40853  0.88691  0.33429  1.0000
  Hf  Hf56      1.0  0.40774  0.88795  0.83885  1.0000
  Hf  Hf57      1.0  0.65804  0.38345  0.33829  1.0000
  Hf  Hf58      1.0  0.66387  0.38747  0.82951  1.0000
  Hf  Hf59      1.0  0.66353  0.89607  0.32031  1.0000
  Hf  Hf60      1.0  0.65507  0.88544  0.84011  1.0000
  Hf  Hf61      1.0  0.90763  0.38883  0.33112  1.0000
  Hf  Hf62      1.0  0.90539  0.38457  0.84394  1.0000
  Hf  Hf63      1.0  0.90425  0.88143  0.33504  1.0000
  Hf  Hf64      1.0  0.91004  0.89337  0.82499  1.0000
  Hf  Hf65      1.0  0.19153  0.31458  0.09132  1.0000
  Hf  Hf66      1.0  0.19967  0.31678  0.58392  1.0000
  Hf  Hf67      1.0  0.19568  0.82286  0.07976  1.0000
  Hf  Hf68      1.0  0.19575  0.80819  0.58174  1.0000
  Hf  Hf69      1.0  0.44294  0.31604  0.08462  1.0000
  Hf  Hf70      1.0  0.44624  0.32956  0.57644  1.0000
  Hf  Hf71      1.0  0.44343  0.82289  0.08567  1.0000
  Hf  Hf72      1.0  0.44656  0.82461  0.57579  1.0000
  Hf  Hf73      1.0  0.69545  0.31958  0.07566  1.0000
  Hf  Hf74      1.0  0.69443  0.30886  0.58796  1.0000
  Hf  Hf75      1.0  0.69103  0.81069  0.09191  1.0000
  Hf  Hf76      1.0  0.69654  0.81915  0.58350  1.0000
  Hf  Hf77      1.0  0.94525  0.32578  0.08216  1.0000
  Hf  Hf78      1.0  0.94396  0.32006  0.58291  1.0000
  Hf  Hf79      1.0  0.94543  0.82540  0.07555  1.0000
  Hf  Hf80      1.0  0.94438  0.82081  0.57811  1.0000
  Hf  Hf81      1.0  0.09246  0.11129  0.15875  1.0000
  Hf  Hf82      1.0  0.08571  0.10872  0.67483  1.0000
  Hf  Hf83      1.0  0.09210  0.61593  0.16184  1.0000
  Hf  Hf84      1.0  0.09138  0.60779  0.66510  1.0000
  Hf  Hf85      1.0  0.34322  0.10914  0.16331  1.0000
  Hf  Hf86      1.0  0.34349  0.11265  0.67033  1.0000
  Hf  Hf87      1.0  0.34273  0.61528  0.16468  1.0000
  Hf  Hf88      1.0  0.33981  0.62126  0.66939  1.0000
  Hf  Hf89      1.0  0.59151  0.10835  0.16236  1.0000
  Hf  Hf90      1.0  0.59419  0.11105  0.66368  1.0000
  Hf  Hf91      1.0  0.58977  0.61337  0.16758  1.0000
  Hf  Hf92      1.0  0.59124  0.61109  0.66854  1.0000
  Hf  Hf93      1.0  0.84283  0.10450  0.16101  1.0000
  Hf  Hf94      1.0  0.83962  0.11073  0.66785  1.0000
  Hf  Hf95      1.0  0.83113  0.60074  0.18380  1.0000
  Hf  Hf96      1.0  0.84611  0.61347  0.66257  1.0000
  F   F1        1.0  0.08154  0.13163  0.29652  1.0000
  F   F2        1.0  0.07914  0.11977  0.81244  1.0000
  F   F3        1.0  0.08465  0.62664  0.30606  1.0000
  F   F4        1.0  0.08370  0.62479  0.79340  1.0000
  F   F5        1.0  0.32735  0.11982  0.30768  1.0000
  F   F6        1.0  0.33025  0.13207  0.80825  1.0000
  F   F7        1.0  0.32704  0.61837  0.31237  1.0000
  F   F8        1.0  0.32841  0.62902  0.80842  1.0000
  F   F9        1.0  0.58429  0.14345  0.29014  1.0000
  F   F10       1.0  0.57901  0.13402  0.79520  1.0000
  F   F11       1.0  0.58459  0.63200  0.29639  1.0000
  F   F12       1.0  0.57377  0.62984  0.80119  1.0000
  F   F13       1.0  0.82950  0.10980  0.31010  1.0000
  F   F14       1.0  0.82757  0.12708  0.81290  1.0000
  F   F15       1.0  0.82893  0.60941  0.31447  1.0000
  F   F16       1.0  0.83847  0.66170  0.78706  1.0000
  F   F17       1.0  0.18405  0.34150  0.45121  1.0000
  F   F18       1.0  0.18811  0.33923  0.94469  1.0000
  F   F19       1.0  0.19322  0.84648  0.44021  1.0000
  F   F20       1.0  0.18580  0.84271  0.94772  1.0000
  F   F21       1.0  0.43598  0.35008  0.43938  1.0000
  F   F22       1.0  0.43713  0.35083  0.93671  1.0000
  F   F23       1.0  0.43614  0.84125  0.44575  1.0000
  F   F24       1.0  0.43105  0.83726  0.95789  1.0000
  F   F25       1.0  0.67755  0.32878  0.45828  1.0000
  F   F26       1.0  0.68769  0.32755  0.94786  1.0000
  F   F27       1.0  0.68714  0.83099  0.44378  1.0000
  F   F28       1.0  0.67979  0.82953  0.95831  1.0000
  F   F29       1.0  0.94227  0.34972  0.43121  1.0000
  F   F30       1.0  0.93449  0.35823  0.95201  1.0000
  F   F31       1.0  0.93537  0.84585  0.45061  1.0000
  F   F32       1.0  0.94019  0.85724  0.93711  1.0000
  F   F33       1.0  0.16108  0.36635  0.20889  1.0000
  F   F34       1.0  0.17361  0.37037  0.69612  1.0000
  F   F35       1.0  0.16967  0.86325  0.21333  1.0000
  F   F36       1.0  0.17004  0.86687  0.69876  1.0000
  F   F37       1.0  0.42066  0.38745  0.18234  1.0000
  F   F38       1.0  0.42497  0.38103  0.69091  1.0000
  F   F39       1.0  0.41642  0.86069  0.20726  1.0000
  F   F40       1.0  0.42119  0.86716  0.70747  1.0000
  F   F41       1.0  0.67065  0.36176  0.19525  1.0000
  F   F42       1.0  0.67736  0.37957  0.68892  1.0000
  F   F43       1.0  0.67334  0.87633  0.19062  1.0000
  F   F44       1.0  0.66573  0.86343  0.70183  1.0000
  F   F45       1.0  0.92242  0.37401  0.19396  1.0000
  F   F46       1.0  0.91934  0.37518  0.69418  1.0000
  F   F47       1.0  0.91822  0.87152  0.19445  1.0000
  F   F48       1.0  0.92121  0.88775  0.68561  1.0000
  F   F49       1.0  0.06118  0.14929  0.05305  1.0000
  F   F50       1.0  0.05995  0.16275  0.55901  1.0000
  F   F51       1.0  0.06157  0.65991  0.04789  1.0000
  F   F52       1.0  0.06040  0.66228  0.55517  1.0000
  F   F53       1.0  0.31508  0.14758  0.06039  1.0000
  F   F54       1.0  0.31755  0.16863  0.55561  1.0000
  F   F55       1.0  0.31616  0.66401  0.05695  1.0000
  F   F56       1.0  0.32181  0.68292  0.53734  1.0000
  F   F57       1.0  0.56068  0.15092  0.04818  1.0000
  F   F58       1.0  0.55988  0.14709  0.55362  1.0000
  F   F59       1.0  0.55991  0.64539  0.05637  1.0000
  F   F60       1.0  0.56314  0.65673  0.55773  1.0000
  F   F61       1.0  0.81398  0.15294  0.05896  1.0000
  F   F62       1.0  0.81017  0.16068  0.55648  1.0000
  F   F63       1.0  0.80821  0.65412  0.06392  1.0000
  F   F64       1.0  0.81246  0.67305  0.54945  1.0000
  F   F65       1.0  0.20092  0.21113  0.21565  1.0000
  F   F66       1.0  0.21533  0.19917  0.70782  1.0000
  F   F67       1.0  0.21137  0.69793  0.21494  1.0000
  F   F68       1.0  0.20707  0.70764  0.71858  1.0000
  F   F69       1.0  0.44622  0.21182  0.21760  1.0000
  F   F70       1.0  0.44887  0.20715  0.71877  1.0000
  F   F71       1.0  0.45549  0.70055  0.19966  1.0000
  F   F72       1.0  0.45606  0.69452  0.72178  1.0000
  F   F73       1.0  0.71078  0.20024  0.19677  1.0000
  F   F74       1.0  0.70677  0.20251  0.70900  1.0000
  F   F75       1.0  0.69450  0.69269  0.21807  1.0000
  F   F76       1.0  0.71128  0.70246  0.70975  1.0000
  F   F77       1.0  0.95127  0.20722  0.21445  1.0000
  F   F78       1.0  0.95473  0.20803  0.71630  1.0000
  F   F79       1.0  0.95662  0.70070  0.21686  1.0000
  F   F80       1.0  0.95547  0.71687  0.70629  1.0000
  F   F81       1.0  0.15177  0.10187  0.03634  1.0000
  F   F82       1.0  0.14407  0.11782  0.53667  1.0000
  F   F83       1.0  0.14706  0.57480  0.03674  1.0000
  F   F84       1.0  0.15400  0.60049  0.53653  1.0000
  F   F85       1.0  0.39783  0.09306  0.03526  1.0000
  F   F86       1.0  0.39798  0.07566  0.54778  1.0000
  F   F87       1.0  0.40227  0.59852  0.03677  1.0000
  F   F88       1.0  0.39982  0.60046  0.51547  1.0000
  F   F89       1.0  0.64984  0.09737  0.03467  1.0000
  F   F90       1.0  0.64906  0.09691  0.52690  1.0000
  F   F91       1.0  0.64553  0.59697  0.02479  1.0000
  F   F92       1.0  0.65718  0.59526  0.53761  1.0000
  F   F93       1.0  0.90115  0.09654  0.03711  1.0000
  F   F94       1.0  0.89808  0.09047  0.55123  1.0000
  F   F95       1.0  0.89501  0.61503  0.07264  1.0000
  F   F96       1.0  0.90275  0.57067  0.56024  1.0000
  F   F97       1.0  0.14791  0.19572  0.13449  1.0000
  F   F98       1.0  0.15898  0.19520  0.63120  1.0000
  F   F99       1.0  0.15106  0.70915  0.11907  1.0000
  F   F100      1.0  0.15170  0.69851  0.62353  1.0000
  F   F101      1.0  0.39771  0.20392  0.12358  1.0000
  F   F102      1.0  0.40024  0.18925  0.62327  1.0000
  F   F103      1.0  0.39638  0.69961  0.13529  1.0000
  F   F104      1.0  0.39268  0.70645  0.62282  1.0000
  F   F105      1.0  0.65056  0.20312  0.12706  1.0000
  F   F106      1.0  0.65892  0.17464  0.63813  1.0000
  F   F107      1.0  0.65038  0.69668  0.11236  1.0000
  F   F108      1.0  0.64948  0.69167  0.63588  1.0000
  F   F109      1.0  0.89987  0.19777  0.12489  1.0000
  F   F110      1.0  0.90309  0.21257  0.62106  1.0000
  F   F111      1.0  0.89952  0.71406  0.15229  1.0000
  F   F112      1.0  0.90368  0.69739  0.61939  1.0000
  F   F113      1.0  0.09820  0.30044  0.39499  1.0000
  F   F114      1.0  0.10258  0.29696  0.88804  1.0000
  F   F115      1.0  0.10165  0.80504  0.38754  1.0000
  F   F116      1.0  0.09582  0.80237  0.87934  1.0000
  F   F117      1.0  0.34680  0.29741  0.37551  1.0000
  F   F118      1.0  0.33886  0.31053  0.87312  1.0000
  F   F119      1.0  0.34667  0.81504  0.36805  1.0000
  F   F120      1.0  0.34957  0.80334  0.88556  1.0000
  F   F121      1.0  0.59048  0.30025  0.39075  1.0000
  F   F122      1.0  0.60398  0.30378  0.85865  1.0000
  F   F123      1.0  0.59521  0.79693  0.36617  1.0000
  F   F124      1.0  0.59543  0.78958  0.91295  1.0000
  F   F125      1.0  0.83882  0.29451  0.36937  1.0000
  F   F126      1.0  0.85059  0.29493  0.86904  1.0000
  F   F127      1.0  0.84757  0.80318  0.36266  1.0000
  F   F128      1.0  0.84935  0.79146  0.87144  1.0000
  F   F129      1.0  0.05962  0.25551  0.13910  1.0000
  F   F130      1.0  0.05695  0.24108  0.66286  1.0000
  F   F131      1.0  0.06702  0.75376  0.13213  1.0000
  F   F132      1.0  0.06030  0.75657  0.63782  1.0000
  F   F133      1.0  0.30877  0.24867  0.14375  1.0000
  F   F134      1.0  0.31428  0.24814  0.65167  1.0000
  F   F135      1.0  0.32327  0.75797  0.13573  1.0000
  F   F136      1.0  0.31016  0.75230  0.65255  1.0000
  F   F137      1.0  0.57218  0.25900  0.11159  1.0000
  F   F138      1.0  0.58100  0.25582  0.60884  1.0000
  F   F139      1.0  0.56345  0.74561  0.13944  1.0000
  F   F140      1.0  0.56446  0.74934  0.64997  1.0000
  F   F141      1.0  0.81492  0.24954  0.14325  1.0000
  F   F142      1.0  0.81573  0.25121  0.64259  1.0000
  F   F143      1.0  0.81792  0.74577  0.14032  1.0000
  F   F144      1.0  0.81419  0.74884  0.64707  1.0000
  F   F145      1.0  0.12286  0.36716  0.11271  1.0000
  F   F146      1.0  0.12667  0.36519  0.61461  1.0000
  F   F147      1.0  0.12239  0.88324  0.10452  1.0000
  F   F148      1.0  0.12710  0.87334  0.61557  1.0000
  F   F149      1.0  0.37351  0.36029  0.11987  1.0000
  F   F150      1.0  0.37155  0.35389  0.63708  1.0000
  F   F151      1.0  0.37807  0.89472  0.09985  1.0000
  F   F152      1.0  0.38212  0.88795  0.59507  1.0000
  F   F153      1.0  0.62491  0.39297  0.08598  1.0000
  F   F154      1.0  0.62463  0.36095  0.61644  1.0000
  F   F155      1.0  0.62116  0.86861  0.11909  1.0000
  F   F156      1.0  0.62217  0.87140  0.60201  1.0000
  F   F157      1.0  0.86852  0.37511  0.12250  1.0000
  F   F158      1.0  0.87712  0.39285  0.58801  1.0000
  F   F159      1.0  0.87143  0.87471  0.09909  1.0000
  F   F160      1.0  0.87104  0.87372  0.61036  1.0000
  F   F161      1.0  0.18879  0.25550  0.35940  1.0000
  F   F162      1.0  0.19689  0.25159  0.84360  1.0000
  F   F163      1.0  0.19155  0.74797  0.35937  1.0000
  F   F164      1.0  0.18064  0.75781  0.86771  1.0000
  F   F165      1.0  0.43981  0.24816  0.36563  1.0000
  F   F166      1.0  0.42971  0.24826  0.87318  1.0000
  F   F167      1.0  0.43812  0.74505  0.35074  1.0000
  F   F168      1.0  0.43798  0.75535  0.85615  1.0000
  F   F169      1.0  0.68744  0.25677  0.34095  1.0000
  F   F170      1.0  0.69359  0.25788  0.83616  1.0000
  F   F171      1.0  0.68203  0.73972  0.35884  1.0000
  F   F172      1.0  0.69011  0.75586  0.84242  1.0000
  F   F173      1.0  0.92008  0.24495  0.37182  1.0000
  F   F174      1.0  0.92881  0.25184  0.86893  1.0000
  F   F175      1.0  0.92397  0.74085  0.38798  1.0000
  F   F176      1.0  0.92820  0.74132  0.88058  1.0000
  F   F177      1.0  0.12223  0.13559  0.39638  1.0000
  F   F178      1.0  0.12713  0.12654  0.89239  1.0000
  F   F179      1.0  0.12629  0.64907  0.38983  1.0000
  F   F180      1.0  0.13161  0.64958  0.86969  1.0000
  F   F181      1.0  0.37923  0.12848  0.38849  1.0000
  F   F182      1.0  0.37556  0.13494  0.90118  1.0000
  F   F183      1.0  0.37916  0.65376  0.36102  1.0000
  F   F184      1.0  0.37682  0.62270  0.89900  1.0000
  F   F185      1.0  0.62841  0.15159  0.37119  1.0000
  F   F186      1.0  0.62903  0.14301  0.87610  1.0000
  F   F187      1.0  0.62061  0.61728  0.41107  1.0000
  F   F188      1.0  0.62547  0.65158  0.86389  1.0000
  F   F189      1.0  0.87062  0.12412  0.41141  1.0000
  F   F190      1.0  0.87559  0.12064  0.89803  1.0000
  F   F191      1.0  0.87158  0.62494  0.41045  1.0000
  F   F192      1.0  0.87926  0.61267  0.89991  1.0000
  F   F193      1.0  0.00736  0.35677  0.07993  1.0000
  F   F194      1.0  0.00656  0.35910  0.57952  1.0000
  F   F195      1.0  0.00944  0.85865  0.06211  1.0000
  F   F196      1.0  0.00568  0.86854  0.55999  1.0000
  F   F197      1.0  0.25634  0.37539  0.07048  1.0000
  F   F198      1.0  0.26449  0.36528  0.57264  1.0000
  F   F199      1.0  0.25584  0.85630  0.08954  1.0000
  F   F200      1.0  0.25812  0.85879  0.55425  1.0000
  F   F201      1.0  0.50494  0.36346  0.08199  1.0000
  F   F202      1.0  0.50833  0.36160  0.56160  1.0000
  F   F203      1.0  0.51192  0.86921  0.06469  1.0000
  F   F204      1.0  0.50927  0.86038  0.57394  1.0000
  F   F205      1.0  0.75718  0.37078  0.07377  1.0000
  F   F206      1.0  0.75631  0.35425  0.59081  1.0000
  F   F207      1.0  0.75871  0.84705  0.08809  1.0000
  F   F208      1.0  0.75864  0.86399  0.56574  1.0000
  F   F209      1.0  0.06810  0.47781  0.18350  1.0000
  F   F210      1.0  0.07044  0.48450  0.67223  1.0000
  F   F211      1.0  0.07141  0.98658  0.17980  1.0000
  F   F212      1.0  0.06843  0.99018  0.67051  1.0000
  F   F213      1.0  0.32573  0.48078  0.16586  1.0000
  F   F214      1.0  0.32734  0.49407  0.65808  1.0000
  F   F215      1.0  0.31742  0.97168  0.20004  1.0000
  F   F216      1.0  0.31317  0.98093  0.67688  1.0000
  F   F217      1.0  0.56673  0.47716  0.18595  1.0000
  F   F218      1.0  0.57690  0.47335  0.66964  1.0000
  F   F219      1.0  0.56624  0.98196  0.18182  1.0000
  F   F220      1.0  0.56404  0.97820  0.69774  1.0000
  F   F221      1.0  0.80970  0.48409  0.18555  1.0000
  F   F222      1.0  0.81018  0.48442  0.68595  1.0000
  F   F223      1.0  0.81846  0.97858  0.16638  1.0000
  F   F224      1.0  0.81775  0.99122  0.66665  1.0000
  F   F225      1.0  0.24351  0.13615  0.43384  1.0000
  F   F226      1.0  0.24569  0.13670  0.93590  1.0000
  F   F227      1.0  0.24615  0.62952  0.42483  1.0000
  F   F228      1.0  0.24075  0.64181  0.92789  1.0000
  F   F229      1.0  0.48594  0.12666  0.45384  1.0000
  F   F230      1.0  0.49205  0.14635  0.92019  1.0000
  F   F231      1.0  0.49559  0.63797  0.43034  1.0000
  F   F232      1.0  0.49144  0.62667  0.93102  1.0000
  F   F233      1.0  0.73977  0.12893  0.42316  1.0000
  F   F234      1.0  0.74311  0.14000  0.91647  1.0000
  F   F235      1.0  0.74479  0.62955  0.42515  1.0000
  F   F236      1.0  0.73998  0.62413  0.94533  1.0000
  F   F237      1.0  0.99269  0.13957  0.41660  1.0000
  F   F238      1.0  0.99278  0.15561  0.90408  1.0000
  F   F239      1.0  0.99206  0.65064  0.41087  1.0000
  F   F240      1.0  0.99895  0.65281  0.90326  1.0000
  F   F241      1.0  0.17978  0.01822  0.33727  1.0000
  F   F242      1.0  0.18520  0.01693  0.82038  1.0000
  F   F243      1.0  0.17809  0.51619  0.33299  1.0000
  F   F244      1.0  0.18504  0.50501  0.83235  1.0000
  F   F245      1.0  0.43343  0.01560  0.33611  1.0000
  F   F246      1.0  0.43430  0.01150  0.82844  1.0000
  F   F247      1.0  0.42571  0.51536  0.33512  1.0000
  F   F248      1.0  0.42521  0.51114  0.82028  1.0000
  F   F249      1.0  0.68430  0.01857  0.32503  1.0000
  F   F250      1.0  0.67838  0.00849  0.83940  1.0000
  F   F251      1.0  0.67875  0.51533  0.32536  1.0000
  F   F252      1.0  0.68073  0.52446  0.82419  1.0000
  F   F253      1.0  0.92852  0.01595  0.32346  1.0000
  F   F254      1.0  0.93773  0.01648  0.81550  1.0000
  F   F255      1.0  0.92255  0.52192  0.32576  1.0000
  F   F256      1.0  0.93715  0.52093  0.80911  1.0000
  F   F257      1.0  0.99442  0.24325  0.00660  1.0000
  F   F258      1.0  0.99729  0.24692  0.50538  1.0000
  F   F259      1.0  0.99607  0.74394  0.00406  1.0000
  F   F260      1.0  0.99783  0.74220  0.49325  1.0000
  F   F261      1.0  0.25146  0.25456  0.00799  1.0000
  F   F262      1.0  0.25537  0.26453  0.48222  1.0000
  F   F263      1.0  0.25411  0.75501  0.99691  1.0000
  F   F264      1.0  0.24568  0.73038  0.51259  1.0000
  F   F265      1.0  0.50320  0.25691  0.00330  1.0000
  F   F266      1.0  0.49426  0.24739  0.50672  1.0000
  F   F267      1.0  0.49814  0.75325  0.99764  1.0000
  F   F268      1.0  0.49499  0.74554  0.51380  1.0000
  F   F269      1.0  0.75564  0.25867  0.99536  1.0000
  F   F270      1.0  0.74608  0.26518  0.48221  1.0000
  F   F271      1.0  0.75294  0.75820  0.99898  1.0000
  F   F272      1.0  0.74567  0.74868  0.49389  1.0000
  F   F273      1.0  0.13535  0.00655  0.24704  1.0000
  F   F274      1.0  0.12451  0.99840  0.74536  1.0000
  F   F275      1.0  0.13586  0.51291  0.23089  1.0000
  F   F276      1.0  0.12936  0.49661  0.75001  1.0000
  F   F277      1.0  0.37956  0.00109  0.25328  1.0000
  F   F278      1.0  0.37884  0.00655  0.73988  1.0000
  F   F279      1.0  0.37872  0.50237  0.24530  1.0000
  F   F280      1.0  0.37027  0.49575  0.75358  1.0000
  F   F281      1.0  0.63323  0.01556  0.23386  1.0000
  F   F282      1.0  0.62532  0.99974  0.75634  1.0000
  F   F283      1.0  0.62322  0.49073  0.25118  1.0000
  F   F284      1.0  0.62620  0.50309  0.73911  1.0000
  F   F285      1.0  0.86896  0.98696  0.25130  1.0000
  F   F286      1.0  0.87795  0.01252  0.74603  1.0000
  F   F287      1.0  0.87053  0.48297  0.26000  1.0000
  F   F288      1.0  0.86859  0.49456  0.76511  1.0000
  F   F289      1.0  0.03117  0.01967  0.03820  1.0000
  F   F290      1.0  0.03458  0.04634  0.52264  1.0000
  F   F291      1.0  0.04521  0.53525  0.01283  1.0000
  F   F292      1.0  0.04809  0.52772  0.51757  1.0000
  F   F293      1.0  0.29144  0.03081  0.02385  1.0000
  F   F294      1.0  0.29616  0.03192  0.52783  1.0000
  F   F295      1.0  0.29704  0.53635  0.01813  1.0000
  F   F296      1.0  0.29357  0.54193  0.51729  1.0000
  F   F297      1.0  0.54462  0.03657  0.01233  1.0000
  F   F298      1.0  0.55749  0.01869  0.51087  1.0000
  F   F299      1.0  0.54652  0.52058  0.02075  1.0000
  F   F300      1.0  0.54620  0.52311  0.53325  1.0000
  F   F301      1.0  0.79020  0.03092  0.01829  1.0000
  F   F302      1.0  0.78816  0.02299  0.51768  1.0000
  F   F303      1.0  0.80336  0.52953  0.99893  1.0000
  F   F304      1.0  0.78721  0.53466  0.53131  1.0000
  F   F305      1.0  0.23117  0.42724  0.21750  1.0000
  F   F306      1.0  0.23655  0.42746  0.71279  1.0000
  F   F307      1.0  0.23233  0.93031  0.22404  1.0000
  F   F308      1.0  0.23424  0.90582  0.72918  1.0000
  F   F309      1.0  0.48507  0.42172  0.22885  1.0000
  F   F310      1.0  0.48747  0.41193  0.73239  1.0000
  F   F311      1.0  0.47570  0.92974  0.20975  1.0000
  F   F312      1.0  0.48454  0.91479  0.73750  1.0000
  F   F313      1.0  0.72959  0.42607  0.22237  1.0000
  F   F314      1.0  0.73438  0.42025  0.73316  1.0000
  F   F315      1.0  0.73245  0.93208  0.22087  1.0000
  F   F316      1.0  0.72958  0.92362  0.72237  1.0000
  F   F317      1.0  0.98058  0.41867  0.22760  1.0000
  F   F318      1.0  0.99199  0.39050  0.73641  1.0000
  F   F319      1.0  0.98604  0.88735  0.23124  1.0000
  F   F320      1.0  0.98389  0.90827  0.71640  1.0000
  F   F321      1.0  0.20394  0.46140  0.49834  1.0000
  F   F322      1.0  0.20591  0.46765  0.97733  1.0000
  F   F323      1.0  0.20399  0.97922  0.49977  1.0000
  F   F324      1.0  0.20258  0.97415  0.98775  1.0000
  F   F325      1.0  0.45891  0.47801  0.48069  1.0000
  F   F326      1.0  0.45071  0.46597  0.97893  1.0000
  F   F327      1.0  0.46707  0.97005  0.47472  1.0000
  F   F328      1.0  0.46406  0.96412  0.96942  1.0000
  F   F329      1.0  0.71556  0.46498  0.46677  1.0000
  F   F330      1.0  0.70664  0.46666  0.97360  1.0000
  F   F331      1.0  0.71156  0.95924  0.47686  1.0000
  F   F332      1.0  0.70402  0.96082  0.99194  1.0000
  F   F333      1.0  0.96194  0.47739  0.47101  1.0000
  F   F334      1.0  0.95248  0.49341  0.98256  1.0000
  F   F335      1.0  0.95404  0.97403  0.47217  1.0000
  F   F336      1.0  0.95423  0.97993  0.97203  1.0000
  F   F337      1.0  0.00862  0.07941  0.27869  1.0000
  F   F338      1.0  0.01737  0.07179  0.78007  1.0000
  F   F339      1.0  0.01972  0.59163  0.26702  1.0000
  F   F340      1.0  0.01712  0.57731  0.76283  1.0000
  F   F341      1.0  0.26254  0.07886  0.28094  1.0000
  F   F342      1.0  0.26867  0.08087  0.78364  1.0000
  F   F343      1.0  0.26462  0.56936  0.27564  1.0000
  F   F344      1.0  0.26393  0.58073  0.77442  1.0000
  F   F345      1.0  0.51814  0.09808  0.26429  1.0000
  F   F346      1.0  0.52023  0.10596  0.75027  1.0000
  F   F347      1.0  0.51313  0.58175  0.27337  1.0000
  F   F348      1.0  0.51320  0.56751  0.77928  1.0000
  F   F349      1.0  0.76755  0.08363  0.26857  1.0000
  F   F350      1.0  0.76504  0.09201  0.77021  1.0000
  F   F351      1.0  0.75821  0.59724  0.27019  1.0000
  F   F352      1.0  0.76868  0.58610  0.78803  1.0000
  F   F353      1.0  0.10567  0.41146  0.46643  1.0000
  F   F354      1.0  0.09543  0.41125  0.96081  1.0000
  F   F355      1.0  0.10380  0.91813  0.46780  1.0000
  F   F356      1.0  0.10131  0.91493  0.95071  1.0000
  F   F357      1.0  0.35289  0.40018  0.46917  1.0000
  F   F358      1.0  0.35501  0.38959  0.97246  1.0000
  F   F359      1.0  0.35269  0.90438  0.46577  1.0000
  F   F360      1.0  0.34898  0.91589  0.95242  1.0000
  F   F361      1.0  0.60412  0.41270  0.45458  1.0000
  F   F362      1.0  0.60190  0.41343  0.94347  1.0000
  F   F363      1.0  0.60749  0.91034  0.43627  1.0000
  F   F364      1.0  0.60285  0.90774  0.97115  1.0000
  F   F365      1.0  0.84507  0.40487  0.46226  1.0000
  F   F366      1.0  0.84905  0.38841  0.96740  1.0000
  F   F367      1.0  0.85086  0.89913  0.45563  1.0000
  F   F368      1.0  0.85192  0.89735  0.94946  1.0000
  F   F369      1.0  0.04883  0.30035  0.28566  1.0000
  F   F370      1.0  0.05058  0.29708  0.79283  1.0000
  F   F371      1.0  0.05718  0.80213  0.27707  1.0000
  F   F372      1.0  0.04799  0.80849  0.78095  1.0000
  F   F373      1.0  0.29641  0.29120  0.29124  1.0000
  F   F374      1.0  0.29157  0.30497  0.79130  1.0000
  F   F375      1.0  0.28738  0.80145  0.29031  1.0000
  F   F376      1.0  0.30455  0.79633  0.77904  1.0000
  F   F377      1.0  0.53769  0.28428  0.29672  1.0000
  F   F378      1.0  0.54711  0.28981  0.77610  1.0000
  F   F379      1.0  0.53145  0.80738  0.28640  1.0000
  F   F380      1.0  0.54688  0.80657  0.80243  1.0000
  F   F381      1.0  0.78561  0.29738  0.28387  1.0000
  F   F382      1.0  0.79472  0.30187  0.78577  1.0000
  F   F383      1.0  0.79212  0.78653  0.29163  1.0000
  F   F384      1.0  0.78764  0.80874  0.78604  1.0000
