data_image0
_chemical_formula_structural       Hf96F384
_chemical_formula_sum              "Hf96 F384"
_cell_length_a       31.0324
_cell_length_b       15.5129
_cell_length_c       15.5019
_cell_angle_alpha    63.342
_cell_angle_beta     63.342
_cell_angle_gamma    80.1625

_space_group_name_H-M_alt    "P 1"
_space_group_IT_number       1

loop_
  _space_group_symop_operation_xyz
  'x, y, z'

loop_
  _atom_site_type_symbol
  _atom_site_label
  _atom_site_symmetry_multiplicity
  _atom_site_fract_x
  _atom_site_fract_y
  _atom_site_fract_z
  _atom_site_occupancy
  Hf  Hf1       1.0  0.19724  0.10199  0.36414  1.0000
  Hf  Hf2       1.0  0.20075  0.10912  0.87374  1.0000
  Hf  Hf3       1.0  0.20148  0.60998  0.35954  1.0000
  Hf  Hf4       1.0  0.19750  0.61128  0.87395  1.0000
  Hf  Hf5       1.0  0.44352  0.10602  0.37977  1.0000
  Hf  Hf6       1.0  0.44873  0.10727  0.86863  1.0000
  Hf  Hf7       1.0  0.44468  0.60638  0.37583  1.0000
  Hf  Hf8       1.0  0.44456  0.61094  0.87005  1.0000
  Hf  Hf9       1.0  0.69479  0.10239  0.37462  1.0000
  Hf  Hf10      1.0  0.69891  0.10648  0.87870  1.0000
  Hf  Hf11      1.0  0.69586  0.59726  0.38489  1.0000
  Hf  Hf12      1.0  0.69836  0.61290  0.86907  1.0000
  Hf  Hf13      1.0  0.94667  0.11062  0.37091  1.0000
  Hf  Hf14      1.0  0.94514  0.10541  0.87651  1.0000
  Hf  Hf15      1.0  0.94535  0.60438  0.37670  1.0000
  Hf  Hf16      1.0  0.94478  0.61676  0.87741  1.0000
  Hf  Hf17      1.0  0.05272  0.39497  0.12146  1.0000
  Hf  Hf18      1.0  0.05345  0.39695  0.63221  1.0000
  Hf  Hf19      1.0  0.05387  0.89082  0.12055  1.0000
  Hf  Hf20      1.0  0.05214  0.90074  0.62262  1.0000
  Hf  Hf21      1.0  0.30588  0.38553  0.12541  1.0000
  Hf  Hf22      1.0  0.30538  0.39321  0.62529  1.0000
  Hf  Hf23      1.0  0.30378  0.89460  0.11949  1.0000
  Hf  Hf24      1.0  0.30533  0.89838  0.62129  1.0000
  Hf  Hf25      1.0  0.55370  0.39441  0.13333  1.0000
  Hf  Hf26      1.0  0.55692  0.38902  0.62612  1.0000
  Hf  Hf27      1.0  0.55237  0.89279  0.12905  1.0000
  Hf  Hf28      1.0  0.55243  0.88421  0.62973  1.0000
  Hf  Hf29      1.0  0.80259  0.39402  0.12301  1.0000
  Hf  Hf30      1.0  0.80397  0.39542  0.62367  1.0000
  Hf  Hf31      1.0  0.79981  0.88340  0.14118  1.0000
  Hf  Hf32      1.0  0.80270  0.89576  0.62663  1.0000
  Hf  Hf33      1.0  0.05498  0.18417  0.40960  1.0000
  Hf  Hf34      1.0  0.05406  0.18196  0.91670  1.0000
  Hf  Hf35      1.0  0.05707  0.67525  0.42049  1.0000
  Hf  Hf36      1.0  0.05602  0.68335  0.92077  1.0000
  Hf  Hf37      1.0  0.30257  0.18607  0.41450  1.0000
  Hf  Hf38      1.0  0.31030  0.18912  0.90658  1.0000
  Hf  Hf39      1.0  0.30354  0.68180  0.42190  1.0000
  Hf  Hf40      1.0  0.30635  0.68710  0.91722  1.0000
  Hf  Hf41      1.0  0.55547  0.17606  0.41836  1.0000
  Hf  Hf42      1.0  0.55824  0.18265  0.91651  1.0000
  Hf  Hf43      1.0  0.55742  0.68225  0.41785  1.0000
  Hf  Hf44      1.0  0.55492  0.67928  0.92604  1.0000
  Hf  Hf45      1.0  0.80720  0.17946  0.41540  1.0000
  Hf  Hf46      1.0  0.80664  0.18554  0.91304  1.0000
  Hf  Hf47      1.0  0.80633  0.68972  0.42298  1.0000
  Hf  Hf48      1.0  0.80428  0.68070  0.91890  1.0000
  Hf  Hf49      1.0  0.15818  0.38358  0.33082  1.0000
  Hf  Hf50      1.0  0.15531  0.39667  0.82877  1.0000
  Hf  Hf51      1.0  0.15852  0.88523  0.32740  1.0000
  Hf  Hf52      1.0  0.15767  0.88982  0.83409  1.0000
  Hf  Hf53      1.0  0.40944  0.39408  0.32161  1.0000
  Hf  Hf54      1.0  0.41213  0.38724  0.82735  1.0000
  Hf  Hf55      1.0  0.40828  0.88888  0.33837  1.0000
  Hf  Hf56      1.0  0.40795  0.88659  0.83715  1.0000
  Hf  Hf57      1.0  0.65980  0.38319  0.33230  1.0000
  Hf  Hf58      1.0  0.66105  0.39255  0.82446  1.0000
  Hf  Hf59      1.0  0.65547  0.88354  0.34047  1.0000
  Hf  Hf60      1.0  0.65913  0.88072  0.83491  1.0000
  Hf  Hf61      1.0  0.90582  0.38700  0.34003  1.0000
  Hf  Hf62      1.0  0.91244  0.39322  0.82963  1.0000
  Hf  Hf63      1.0  0.90854  0.88870  0.33763  1.0000
  Hf  Hf64      1.0  0.90490  0.88712  0.84257  1.0000
  Hf  Hf65      1.0  0.19604  0.31474  0.07396  1.0000
  Hf  Hf66      1.0  0.19487  0.31805  0.57930  1.0000
  Hf  Hf67      1.0  0.19492  0.81979  0.07485  1.0000
  Hf  Hf68      1.0  0.19397  0.82463  0.58185  1.0000
  Hf  Hf69      1.0  0.44687  0.32264  0.07584  1.0000
  Hf  Hf70      1.0  0.44134  0.31319  0.58791  1.0000
  Hf  Hf71      1.0  0.44265  0.82504  0.08231  1.0000
  Hf  Hf72      1.0  0.44535  0.81244  0.58636  1.0000
  Hf  Hf73      1.0  0.69108  0.31890  0.08213  1.0000
  Hf  Hf74      1.0  0.69292  0.30930  0.58221  1.0000
  Hf  Hf75      1.0  0.69569  0.81523  0.08547  1.0000
  Hf  Hf76      1.0  0.69360  0.81565  0.58884  1.0000
  Hf  Hf77      1.0  0.94226  0.32048  0.08149  1.0000
  Hf  Hf78      1.0  0.94590  0.31202  0.58471  1.0000
  Hf  Hf79      1.0  0.94161  0.81742  0.08637  1.0000
  Hf  Hf80      1.0  0.94234  0.81525  0.58711  1.0000
  Hf  Hf81      1.0  0.08832  0.11333  0.16093  1.0000
  Hf  Hf82      1.0  0.09299  0.11819  0.65497  1.0000
  Hf  Hf83      1.0  0.09285  0.61091  0.16664  1.0000
  Hf  Hf84      1.0  0.09035  0.62528  0.66171  1.0000
  Hf  Hf85      1.0  0.34138  0.10304  0.16871  1.0000
  Hf  Hf86      1.0  0.34117  0.10949  0.66147  1.0000
  Hf  Hf87      1.0  0.34006  0.61018  0.16948  1.0000
  Hf  Hf88      1.0  0.34208  0.61303  0.66516  1.0000
  Hf  Hf89      1.0  0.58982  0.11470  0.16250  1.0000
  Hf  Hf90      1.0  0.59104  0.10562  0.67311  1.0000
  Hf  Hf91      1.0  0.59318  0.61617  0.16642  1.0000
  Hf  Hf92      1.0  0.59110  0.60747  0.67197  1.0000
  Hf  Hf93      1.0  0.84008  0.10367  0.16712  1.0000
  Hf  Hf94      1.0  0.84613  0.11256  0.66175  1.0000
  Hf  Hf95      1.0  0.83666  0.60847  0.17610  1.0000
  Hf  Hf96      1.0  0.84254  0.61126  0.67371  1.0000
  F   F1        1.0  0.07836  0.13496  0.29880  1.0000
  F   F2        1.0  0.08069  0.13582  0.80016  1.0000
  F   F3        1.0  0.08235  0.63492  0.29642  1.0000
  F   F4        1.0  0.08114  0.62680  0.80546  1.0000
  F   F5        1.0  0.33149  0.12930  0.29891  1.0000
  F   F6        1.0  0.32403  0.11986  0.81148  1.0000
  F   F7        1.0  0.32139  0.61827  0.31645  1.0000
  F   F8        1.0  0.33585  0.62875  0.79795  1.0000
  F   F9        1.0  0.57372  0.12027  0.30884  1.0000
  F   F10       1.0  0.57472  0.11994  0.81526  1.0000
  F   F11       1.0  0.58021  0.62898  0.30918  1.0000
  F   F12       1.0  0.57400  0.61430  0.82447  1.0000
  F   F13       1.0  0.82905  0.12639  0.29843  1.0000
  F   F14       1.0  0.83186  0.12723  0.80093  1.0000
  F   F15       1.0  0.82722  0.64132  0.30827  1.0000
  F   F16       1.0  0.82894  0.62458  0.80822  1.0000
  F   F17       1.0  0.18369  0.33442  0.44202  1.0000
  F   F18       1.0  0.18174  0.34422  0.94814  1.0000
  F   F19       1.0  0.18685  0.82552  0.43894  1.0000
  F   F20       1.0  0.19077  0.85655  0.93586  1.0000
  F   F21       1.0  0.42623  0.33847  0.45126  1.0000
  F   F22       1.0  0.44450  0.35512  0.93368  1.0000
  F   F23       1.0  0.43867  0.85138  0.44315  1.0000
  F   F24       1.0  0.43873  0.83532  0.95034  1.0000
  F   F25       1.0  0.67737  0.31569  0.45646  1.0000
  F   F26       1.0  0.68427  0.33393  0.94396  1.0000
  F   F27       1.0  0.68502  0.83976  0.45421  1.0000
  F   F28       1.0  0.68469  0.83902  0.95497  1.0000
  F   F29       1.0  0.93287  0.34670  0.44800  1.0000
  F   F30       1.0  0.94446  0.35287  0.93966  1.0000
  F   F31       1.0  0.93623  0.84325  0.45050  1.0000
  F   F32       1.0  0.93869  0.84798  0.94595  1.0000
  F   F33       1.0  0.17713  0.37671  0.18088  1.0000
  F   F34       1.0  0.16809  0.37314  0.69927  1.0000
  F   F35       1.0  0.16584  0.87631  0.19727  1.0000
  F   F36       1.0  0.16570  0.85931  0.70649  1.0000
  F   F37       1.0  0.42200  0.37466  0.19526  1.0000
  F   F38       1.0  0.42492  0.39006  0.67786  1.0000
  F   F39       1.0  0.42334  0.86645  0.19999  1.0000
  F   F40       1.0  0.42160  0.88254  0.68555  1.0000
  F   F41       1.0  0.66838  0.37638  0.19276  1.0000
  F   F42       1.0  0.67533  0.38131  0.69037  1.0000
  F   F43       1.0  0.66755  0.86736  0.19908  1.0000
  F   F44       1.0  0.67473  0.87183  0.69339  1.0000
  F   F45       1.0  0.91860  0.37692  0.19492  1.0000
  F   F46       1.0  0.92462  0.37116  0.69482  1.0000
  F   F47       1.0  0.91820  0.87596  0.20262  1.0000
  F   F48       1.0  0.91601  0.85768  0.70845  1.0000
  F   F49       1.0  0.06631  0.15928  0.04593  1.0000
  F   F50       1.0  0.06396  0.16411  0.54427  1.0000
  F   F51       1.0  0.06505  0.65115  0.05345  1.0000
  F   F52       1.0  0.06129  0.65446  0.55595  1.0000
  F   F53       1.0  0.32388  0.17369  0.04333  1.0000
  F   F54       1.0  0.31008  0.16471  0.55469  1.0000
  F   F55       1.0  0.30864  0.66494  0.06667  1.0000
  F   F56       1.0  0.31798  0.67125  0.54177  1.0000
  F   F57       1.0  0.55877  0.16215  0.05796  1.0000
  F   F58       1.0  0.56367  0.15070  0.55108  1.0000
  F   F59       1.0  0.56175  0.65537  0.06706  1.0000
  F   F60       1.0  0.56819  0.65847  0.55405  1.0000
  F   F61       1.0  0.81337  0.17198  0.05508  1.0000
  F   F62       1.0  0.81789  0.15737  0.54886  1.0000
  F   F63       1.0  0.81623  0.65619  0.05289  1.0000
  F   F64       1.0  0.81653  0.66780  0.56388  1.0000
  F   F65       1.0  0.20526  0.19691  0.19152  1.0000
  F   F66       1.0  0.20567  0.20635  0.70726  1.0000
  F   F67       1.0  0.20761  0.71167  0.20067  1.0000
  F   F68       1.0  0.20846  0.70821  0.71381  1.0000
  F   F69       1.0  0.45168  0.20479  0.20267  1.0000
  F   F70       1.0  0.45333  0.21244  0.70564  1.0000
  F   F71       1.0  0.45564  0.70543  0.21585  1.0000
  F   F72       1.0  0.46402  0.70520  0.70401  1.0000
  F   F73       1.0  0.69654  0.20041  0.20355  1.0000
  F   F74       1.0  0.71275  0.20679  0.69814  1.0000
  F   F75       1.0  0.70365  0.69404  0.22380  1.0000
  F   F76       1.0  0.69963  0.70685  0.71575  1.0000
  F   F77       1.0  0.96143  0.20099  0.21126  1.0000
  F   F78       1.0  0.95493  0.20065  0.71125  1.0000
  F   F79       1.0  0.95549  0.70366  0.20755  1.0000
  F   F80       1.0  0.94787  0.70984  0.71653  1.0000
  F   F81       1.0  0.14901  0.09984  0.03265  1.0000
  F   F82       1.0  0.15277  0.10568  0.52833  1.0000
  F   F83       1.0  0.15058  0.57517  0.04509  1.0000
  F   F84       1.0  0.14594  0.60102  0.54620  1.0000
  F   F85       1.0  0.39730  0.08000  0.03477  1.0000
  F   F86       1.0  0.39358  0.06853  0.55003  1.0000
  F   F87       1.0  0.39920  0.58839  0.04502  1.0000
  F   F88       1.0  0.39452  0.58718  0.53857  1.0000
  F   F89       1.0  0.64387  0.09619  0.03865  1.0000
  F   F90       1.0  0.64368  0.10301  0.53281  1.0000
  F   F91       1.0  0.65447  0.60237  0.04004  1.0000
  F   F92       1.0  0.64451  0.56926  0.55965  1.0000
  F   F93       1.0  0.90167  0.09012  0.03929  1.0000
  F   F94       1.0  0.90110  0.10312  0.52945  1.0000
  F   F95       1.0  0.89757  0.60163  0.03876  1.0000
  F   F96       1.0  0.90336  0.58068  0.53200  1.0000
  F   F97       1.0  0.14867  0.19528  0.13229  1.0000
  F   F98       1.0  0.15268  0.20391  0.61991  1.0000
  F   F99       1.0  0.15490  0.69997  0.12013  1.0000
  F   F100      1.0  0.15113  0.70797  0.63787  1.0000
  F   F101      1.0  0.39921  0.19183  0.10406  1.0000
  F   F102      1.0  0.40248  0.19415  0.62238  1.0000
  F   F103      1.0  0.39969  0.69432  0.13419  1.0000
  F   F104      1.0  0.40457  0.70433  0.60517  1.0000
  F   F105      1.0  0.64797  0.19552  0.11514  1.0000
  F   F106      1.0  0.65226  0.17973  0.64401  1.0000
  F   F107      1.0  0.64651  0.69523  0.13792  1.0000
  F   F108      1.0  0.64692  0.69641  0.63350  1.0000
  F   F109      1.0  0.89806  0.20264  0.11684  1.0000
  F   F110      1.0  0.90506  0.19793  0.62122  1.0000
  F   F111      1.0  0.90050  0.70229  0.12368  1.0000
  F   F112      1.0  0.89885  0.69298  0.63280  1.0000
  F   F113      1.0  0.10007  0.29421  0.36816  1.0000
  F   F114      1.0  0.09162  0.31078  0.87626  1.0000
  F   F115      1.0  0.10092  0.78857  0.37720  1.0000
  F   F116      1.0  0.09383  0.81214  0.89302  1.0000
  F   F117      1.0  0.35475  0.29903  0.36894  1.0000
  F   F118      1.0  0.35456  0.30772  0.85447  1.0000
  F   F119      1.0  0.35102  0.80957  0.37232  1.0000
  F   F120      1.0  0.35257  0.79899  0.87050  1.0000
  F   F121      1.0  0.59579  0.30753  0.38517  1.0000
  F   F122      1.0  0.60376  0.30310  0.87020  1.0000
  F   F123      1.0  0.59418  0.81791  0.37676  1.0000
  F   F124      1.0  0.60108  0.79074  0.86912  1.0000
  F   F125      1.0  0.84834  0.31099  0.38192  1.0000
  F   F126      1.0  0.85199  0.29439  0.86699  1.0000
  F   F127      1.0  0.84507  0.81338  0.37794  1.0000
  F   F128      1.0  0.84364  0.79996  0.89317  1.0000
  F   F129      1.0  0.06736  0.25151  0.13256  1.0000
  F   F130      1.0  0.06174  0.25127  0.64676  1.0000
  F   F131      1.0  0.07260  0.75546  0.12506  1.0000
  F   F132      1.0  0.06624  0.76604  0.63456  1.0000
  F   F133      1.0  0.30835  0.24393  0.16115  1.0000
  F   F134      1.0  0.31315  0.25151  0.65517  1.0000
  F   F135      1.0  0.31056  0.75224  0.14712  1.0000
  F   F136      1.0  0.31698  0.75053  0.64321  1.0000
  F   F137      1.0  0.55694  0.24601  0.16079  1.0000
  F   F138      1.0  0.57159  0.24655  0.64487  1.0000
  F   F139      1.0  0.56161  0.74974  0.15386  1.0000
  F   F140      1.0  0.56192  0.74437  0.65710  1.0000
  F   F141      1.0  0.80936  0.25513  0.15188  1.0000
  F   F142      1.0  0.81308  0.24468  0.65325  1.0000
  F   F143      1.0  0.81068  0.74332  0.15952  1.0000
  F   F144      1.0  0.81331  0.75722  0.65807  1.0000
  F   F145      1.0  0.12123  0.36976  0.10323  1.0000
  F   F146      1.0  0.12618  0.38667  0.59211  1.0000
  F   F147      1.0  0.12421  0.87250  0.10316  1.0000
  F   F148      1.0  0.12655  0.87797  0.60260  1.0000
  F   F149      1.0  0.37682  0.36004  0.10599  1.0000
  F   F150      1.0  0.37196  0.35964  0.63223  1.0000
  F   F151      1.0  0.37930  0.88622  0.09960  1.0000
  F   F152      1.0  0.37193  0.86757  0.61677  1.0000
  F   F153      1.0  0.62383  0.36610  0.10802  1.0000
  F   F154      1.0  0.62479  0.34366  0.63291  1.0000
  F   F155      1.0  0.62135  0.87199  0.11470  1.0000
  F   F156      1.0  0.62290  0.87661  0.61185  1.0000
  F   F157      1.0  0.87326  0.38941  0.09116  1.0000
  F   F158      1.0  0.87440  0.36042  0.61806  1.0000
  F   F159      1.0  0.86979  0.85992  0.13041  1.0000
  F   F160      1.0  0.87690  0.89072  0.59430  1.0000
  F   F161      1.0  0.19364  0.24401  0.33616  1.0000
  F   F162      1.0  0.18682  0.25721  0.84766  1.0000
  F   F163      1.0  0.19166  0.75199  0.33673  1.0000
  F   F164      1.0  0.17930  0.75139  0.87708  1.0000
  F   F165      1.0  0.43284  0.24268  0.36351  1.0000
  F   F166      1.0  0.44242  0.25093  0.84428  1.0000
  F   F167      1.0  0.43253  0.74312  0.37610  1.0000
  F   F168      1.0  0.43649  0.75070  0.85445  1.0000
  F   F169      1.0  0.68368  0.23708  0.34927  1.0000
  F   F170      1.0  0.68745  0.24992  0.84949  1.0000
  F   F171      1.0  0.67864  0.73711  0.38032  1.0000
  F   F172      1.0  0.68778  0.75566  0.85421  1.0000
  F   F173      1.0  0.93877  0.25091  0.35982  1.0000
  F   F174      1.0  0.93774  0.25608  0.85915  1.0000
  F   F175      1.0  0.93310  0.74648  0.38148  1.0000
  F   F176      1.0  0.94247  0.75945  0.85254  1.0000
  F   F177      1.0  0.12987  0.12120  0.37326  1.0000
  F   F178      1.0  0.12694  0.12695  0.89603  1.0000
  F   F179      1.0  0.12740  0.61373  0.40731  1.0000
  F   F180      1.0  0.12998  0.63758  0.88418  1.0000
  F   F181      1.0  0.36854  0.11680  0.40978  1.0000
  F   F182      1.0  0.37909  0.13540  0.87385  1.0000
  F   F183      1.0  0.37491  0.63544  0.38614  1.0000
  F   F184      1.0  0.37450  0.63048  0.89522  1.0000
  F   F185      1.0  0.62284  0.10938  0.39618  1.0000
  F   F186      1.0  0.62822  0.13720  0.88712  1.0000
  F   F187      1.0  0.62962  0.62355  0.39117  1.0000
  F   F188      1.0  0.62349  0.61896  0.90835  1.0000
  F   F189      1.0  0.87611  0.14328  0.37484  1.0000
  F   F190      1.0  0.87542  0.12391  0.89579  1.0000
  F   F191      1.0  0.87341  0.65560  0.38266  1.0000
  F   F192      1.0  0.87523  0.63749  0.90002  1.0000
  F   F193      1.0  0.00535  0.35762  0.07449  1.0000
  F   F194      1.0  0.01183  0.36471  0.56597  1.0000
  F   F195      1.0  0.00749  0.85630  0.07634  1.0000
  F   F196      1.0  0.00434  0.86763  0.57978  1.0000
  F   F197      1.0  0.26300  0.37286  0.06296  1.0000
  F   F198      1.0  0.26019  0.36596  0.56480  1.0000
  F   F199      1.0  0.25925  0.86550  0.07036  1.0000
  F   F200      1.0  0.25686  0.85900  0.57870  1.0000
  F   F201      1.0  0.50576  0.37675  0.06982  1.0000
  F   F202      1.0  0.50878  0.35949  0.58477  1.0000
  F   F203      1.0  0.50760  0.86499  0.07506  1.0000
  F   F204      1.0  0.50902  0.85588  0.57180  1.0000
  F   F205      1.0  0.75485  0.36633  0.07174  1.0000
  F   F206      1.0  0.76037  0.37206  0.56508  1.0000
  F   F207      1.0  0.75539  0.86356  0.08046  1.0000
  F   F208      1.0  0.76268  0.86133  0.57374  1.0000
  F   F209      1.0  0.06354  0.49030  0.18057  1.0000
  F   F210      1.0  0.06958  0.49366  0.67952  1.0000
  F   F211      1.0  0.07095  0.98324  0.16375  1.0000
  F   F212      1.0  0.07173  0.99176  0.67588  1.0000
  F   F213      1.0  0.32304  0.48075  0.16962  1.0000
  F   F214      1.0  0.32474  0.48365  0.66684  1.0000
  F   F215      1.0  0.31597  0.98410  0.17712  1.0000
  F   F216      1.0  0.31500  0.97874  0.68679  1.0000
  F   F217      1.0  0.57799  0.48709  0.17300  1.0000
  F   F218      1.0  0.56819  0.46941  0.68858  1.0000
  F   F219      1.0  0.56882  0.98648  0.17431  1.0000
  F   F220      1.0  0.56899  0.98832  0.67681  1.0000
  F   F221      1.0  0.81314  0.47945  0.18523  1.0000
  F   F222      1.0  0.81390  0.48656  0.68963  1.0000
  F   F223      1.0  0.82166  0.98528  0.17053  1.0000
  F   F224      1.0  0.81571  0.98760  0.67805  1.0000
  F   F225      1.0  0.24321  0.13877  0.42021  1.0000
  F   F226      1.0  0.24374  0.13470  0.93717  1.0000
  F   F227      1.0  0.24074  0.63731  0.42174  1.0000
  F   F228      1.0  0.24143  0.63337  0.92557  1.0000
  F   F229      1.0  0.48885  0.13159  0.44137  1.0000
  F   F230      1.0  0.49205  0.12900  0.95147  1.0000
  F   F231      1.0  0.49712  0.61893  0.43161  1.0000
  F   F232      1.0  0.49287  0.63671  0.93691  1.0000
  F   F233      1.0  0.74523  0.14879  0.41210  1.0000
  F   F234      1.0  0.74339  0.13260  0.92997  1.0000
  F   F235      1.0  0.73896  0.63001  0.43423  1.0000
  F   F236      1.0  0.74456  0.63979  0.92213  1.0000
  F   F237      1.0  0.99044  0.14767  0.43459  1.0000
  F   F238      1.0  0.99281  0.14600  0.92785  1.0000
  F   F239      1.0  0.99365  0.63134  0.42697  1.0000
  F   F240      1.0  0.99074  0.64376  0.93066  1.0000
  F   F241      1.0  0.18350  0.01477  0.29986  1.0000
  F   F242      1.0  0.18576  0.02284  0.81880  1.0000
  F   F243      1.0  0.18374  0.50910  0.31646  1.0000
  F   F244      1.0  0.18112  0.51787  0.81731  1.0000
  F   F245      1.0  0.43338  0.01776  0.31612  1.0000
  F   F246      1.0  0.43773  0.01969  0.81643  1.0000
  F   F247      1.0  0.42747  0.51827  0.32158  1.0000
  F   F248      1.0  0.43068  0.51722  0.81978  1.0000
  F   F249      1.0  0.68398  0.00709  0.31954  1.0000
  F   F250      1.0  0.68070  0.01237  0.82887  1.0000
  F   F251      1.0  0.68308  0.50564  0.33092  1.0000
  F   F252      1.0  0.68798  0.51485  0.82654  1.0000
  F   F253      1.0  0.92166  0.01526  0.33665  1.0000
  F   F254      1.0  0.92964  0.01619  0.83160  1.0000
  F   F255      1.0  0.92476  0.53220  0.32088  1.0000
  F   F256      1.0  0.92687  0.52862  0.82797  1.0000
  F   F257      1.0  0.99647  0.24541  0.00976  1.0000
  F   F258      1.0  0.00425  0.25903  0.49090  1.0000
  F   F259      1.0  0.00042  0.74628  0.01408  1.0000
  F   F260      1.0  0.99999  0.73965  0.50543  1.0000
  F   F261      1.0  0.25468  0.25739  0.99338  1.0000
  F   F262      1.0  0.24953  0.26338  0.48459  1.0000
  F   F263      1.0  0.25389  0.76252  0.98830  1.0000
  F   F264      1.0  0.24556  0.72798  0.52082  1.0000
  F   F265      1.0  0.50448  0.25710  0.99220  1.0000
  F   F266      1.0  0.49800  0.26774  0.47946  1.0000
  F   F267      1.0  0.49963  0.74862  0.01114  1.0000
  F   F268      1.0  0.50020  0.73913  0.50810  1.0000
  F   F269      1.0  0.75391  0.26689  0.98800  1.0000
  F   F270      1.0  0.74762  0.23891  0.49644  1.0000
  F   F271      1.0  0.74083  0.73193  0.01798  1.0000
  F   F272      1.0  0.74916  0.74870  0.51179  1.0000
  F   F273      1.0  0.11647  0.00187  0.25641  1.0000
  F   F274      1.0  0.13643  0.00248  0.72081  1.0000
  F   F275      1.0  0.12047  0.49449  0.25806  1.0000
  F   F276      1.0  0.12276  0.50890  0.74521  1.0000
  F   F277      1.0  0.37494  0.99488  0.26229  1.0000
  F   F278      1.0  0.37587  0.00729  0.75701  1.0000
  F   F279      1.0  0.37084  0.49360  0.25068  1.0000
  F   F280      1.0  0.38021  0.50993  0.73825  1.0000
  F   F281      1.0  0.63001  0.00348  0.23965  1.0000
  F   F282      1.0  0.62178  0.98918  0.75211  1.0000
  F   F283      1.0  0.62789  0.49799  0.25055  1.0000
  F   F284      1.0  0.62448  0.49773  0.75512  1.0000
  F   F285      1.0  0.87202  0.00377  0.25515  1.0000
  F   F286      1.0  0.88261  0.01124  0.73301  1.0000
  F   F287      1.0  0.86848  0.50520  0.25851  1.0000
  F   F288      1.0  0.88067  0.49893  0.73623  1.0000
  F   F289      1.0  0.03912  0.02755  0.01992  1.0000
  F   F290      1.0  0.04634  0.03493  0.52103  1.0000
  F   F291      1.0  0.04312  0.53713  0.01282  1.0000
  F   F292      1.0  0.05083  0.52578  0.51378  1.0000
  F   F293      1.0  0.30449  0.04293  0.01622  1.0000
  F   F294      1.0  0.28748  0.02565  0.52528  1.0000
  F   F295      1.0  0.29437  0.54107  0.01731  1.0000
  F   F296      1.0  0.29162  0.53335  0.52704  1.0000
  F   F297      1.0  0.55079  0.02735  0.01908  1.0000
  F   F298      1.0  0.54272  0.01922  0.52601  1.0000
  F   F299      1.0  0.54410  0.53070  0.03526  1.0000
  F   F300      1.0  0.55183  0.53119  0.51942  1.0000
  F   F301      1.0  0.78856  0.02745  0.03273  1.0000
  F   F302      1.0  0.79319  0.02571  0.52049  1.0000
  F   F303      1.0  0.79360  0.52953  0.01707  1.0000
  F   F304      1.0  0.80177  0.52415  0.52613  1.0000
  F   F305      1.0  0.23987  0.39942  0.22895  1.0000
  F   F306      1.0  0.23345  0.42104  0.72519  1.0000
  F   F307      1.0  0.23620  0.90804  0.21823  1.0000
  F   F308      1.0  0.22823  0.90514  0.73219  1.0000
  F   F309      1.0  0.48624  0.42053  0.22734  1.0000
  F   F310      1.0  0.48779  0.42350  0.72215  1.0000
  F   F311      1.0  0.48292  0.90828  0.23139  1.0000
  F   F312      1.0  0.48412  0.90411  0.72777  1.0000
  F   F313      1.0  0.73655  0.40238  0.23105  1.0000
  F   F314      1.0  0.73707  0.41990  0.72476  1.0000
  F   F315      1.0  0.72975  0.90441  0.23356  1.0000
  F   F316      1.0  0.73299  0.91356  0.73562  1.0000
  F   F317      1.0  0.97983  0.41545  0.23496  1.0000
  F   F318      1.0  0.98302  0.44063  0.71569  1.0000
  F   F319      1.0  0.98538  0.91107  0.22960  1.0000
  F   F320      1.0  0.97994  0.92128  0.73222  1.0000
  F   F321      1.0  0.20983  0.46953  0.46932  1.0000
  F   F322      1.0  0.19922  0.46875  0.97111  1.0000
  F   F323      1.0  0.20287  0.96923  0.47110  1.0000
  F   F324      1.0  0.20437  0.97005  0.98384  1.0000
  F   F325      1.0  0.45315  0.45780  0.47731  1.0000
  F   F326      1.0  0.45888  0.48395  0.96859  1.0000
  F   F327      1.0  0.45365  0.96470  0.49003  1.0000
  F   F328      1.0  0.46411  0.96626  0.96456  1.0000
  F   F329      1.0  0.70679  0.45785  0.48060  1.0000
  F   F330      1.0  0.70543  0.46431  0.97449  1.0000
  F   F331      1.0  0.71107  0.96928  0.47779  1.0000
  F   F332      1.0  0.70916  0.96208  0.98207  1.0000
  F   F333      1.0  0.95544  0.45893  0.48148  1.0000
  F   F334      1.0  0.95411  0.48005  0.98000  1.0000
  F   F335      1.0  0.96330  0.97824  0.46613  1.0000
  F   F336      1.0  0.95364  0.96775  0.98197  1.0000
  F   F337      1.0  0.01369  0.07658  0.27706  1.0000
  F   F338      1.0  0.01388  0.09205  0.77533  1.0000
  F   F339      1.0  0.01639  0.59517  0.27080  1.0000
  F   F340      1.0  0.01474  0.60189  0.76203  1.0000
  F   F341      1.0  0.26669  0.08286  0.27200  1.0000
  F   F342      1.0  0.26705  0.08624  0.77859  1.0000
  F   F343      1.0  0.26428  0.57843  0.26292  1.0000
  F   F344      1.0  0.26680  0.57770  0.76631  1.0000
  F   F345      1.0  0.51181  0.08831  0.27436  1.0000
  F   F346      1.0  0.51716  0.09626  0.76571  1.0000
  F   F347      1.0  0.51480  0.57147  0.28028  1.0000
  F   F348      1.0  0.51378  0.59456  0.76675  1.0000
  F   F349      1.0  0.76148  0.07804  0.26885  1.0000
  F   F350      1.0  0.76713  0.08422  0.77860  1.0000
  F   F351      1.0  0.76548  0.57569  0.27764  1.0000
  F   F352      1.0  0.76864  0.58466  0.78270  1.0000
  F   F353      1.0  0.09953  0.39009  0.45721  1.0000
  F   F354      1.0  0.09745  0.40494  0.96161  1.0000
  F   F355      1.0  0.09949  0.91678  0.45186  1.0000
  F   F356      1.0  0.10975  0.92330  0.95530  1.0000
  F   F357      1.0  0.34659  0.40778  0.46523  1.0000
  F   F358      1.0  0.35768  0.39316  0.95656  1.0000
  F   F359      1.0  0.35066  0.91481  0.46955  1.0000
  F   F360      1.0  0.35408  0.89556  0.96927  1.0000
  F   F361      1.0  0.60372  0.40718  0.47208  1.0000
  F   F362      1.0  0.60298  0.40070  0.95923  1.0000
  F   F363      1.0  0.59836  0.91028  0.45874  1.0000
  F   F364      1.0  0.60066  0.90088  0.95633  1.0000
  F   F365      1.0  0.85161  0.40456  0.46645  1.0000
  F   F366      1.0  0.85048  0.40545  0.95093  1.0000
  F   F367      1.0  0.85149  0.90513  0.46279  1.0000
  F   F368      1.0  0.84921  0.89989  0.97280  1.0000
  F   F369      1.0  0.04007  0.30239  0.28558  1.0000
  F   F370      1.0  0.04462  0.30006  0.78533  1.0000
  F   F371      1.0  0.04943  0.79048  0.29761  1.0000
  F   F372      1.0  0.04033  0.79885  0.79744  1.0000
  F   F373      1.0  0.30114  0.30219  0.28347  1.0000
  F   F374      1.0  0.28885  0.30057  0.79683  1.0000
  F   F375      1.0  0.29525  0.79498  0.29164  1.0000
  F   F376      1.0  0.29043  0.78899  0.78772  1.0000
  F   F377      1.0  0.54954  0.30485  0.28788  1.0000
  F   F378      1.0  0.54206  0.29240  0.80510  1.0000
  F   F379      1.0  0.54535  0.79774  0.29536  1.0000
  F   F380      1.0  0.55244  0.79416  0.78300  1.0000
  F   F381      1.0  0.80352  0.30361  0.28545  1.0000
  F   F382      1.0  0.79258  0.29129  0.79187  1.0000
  F   F383      1.0  0.78938  0.80174  0.30718  1.0000
  F   F384      1.0  0.79860  0.80254  0.79806  1.0000
