data_image0
_chemical_formula_structural       Hf96F384
_chemical_formula_sum              "Hf96 F384"
_cell_length_a       31.0453
_cell_length_b       15.5212
_cell_length_c       15.5104
_cell_angle_alpha    63.342
_cell_angle_beta     63.342
_cell_angle_gamma    80.1625

_space_group_name_H-M_alt    "P 1"
_space_group_IT_number       1

loop_
  _space_group_symop_operation_xyz
  'x, y, z'

loop_
  _atom_site_type_symbol
  _atom_site_label
  _atom_site_symmetry_multiplicity
  _atom_site_fract_x
  _atom_site_fract_y
  _atom_site_fract_z
  _atom_site_occupancy
  Hf  Hf1       1.0  0.19568  0.10641  0.37538  1.0000
  Hf  Hf2       1.0  0.20143  0.10063  0.87853  1.0000
  Hf  Hf3       1.0  0.19369  0.60279  0.39158  1.0000
  Hf  Hf4       1.0  0.19543  0.60199  0.87852  1.0000
  Hf  Hf5       1.0  0.44412  0.10942  0.37225  1.0000
  Hf  Hf6       1.0  0.44157  0.10045  0.88394  1.0000
  Hf  Hf7       1.0  0.44862  0.61370  0.36881  1.0000
  Hf  Hf8       1.0  0.44677  0.61438  0.87419  1.0000
  Hf  Hf9       1.0  0.69904  0.10544  0.37029  1.0000
  Hf  Hf10      1.0  0.69677  0.10120  0.87674  1.0000
  Hf  Hf11      1.0  0.69772  0.60652  0.37123  1.0000
  Hf  Hf12      1.0  0.70074  0.61007  0.87203  1.0000
  Hf  Hf13      1.0  0.94760  0.10816  0.36892  1.0000
  Hf  Hf14      1.0  0.94616  0.09609  0.87764  1.0000
  Hf  Hf15      1.0  0.93996  0.60198  0.39147  1.0000
  Hf  Hf16      1.0  0.94477  0.60864  0.87496  1.0000
  Hf  Hf17      1.0  0.04995  0.39121  0.13524  1.0000
  Hf  Hf18      1.0  0.05403  0.38820  0.63155  1.0000
  Hf  Hf19      1.0  0.05242  0.89358  0.12166  1.0000
  Hf  Hf20      1.0  0.05119  0.88931  0.63249  1.0000
  Hf  Hf21      1.0  0.30608  0.39586  0.11353  1.0000
  Hf  Hf22      1.0  0.30045  0.39394  0.62755  1.0000
  Hf  Hf23      1.0  0.30137  0.89773  0.12602  1.0000
  Hf  Hf24      1.0  0.30325  0.89273  0.62344  1.0000
  Hf  Hf25      1.0  0.55531  0.39539  0.12472  1.0000
  Hf  Hf26      1.0  0.55551  0.38938  0.61624  1.0000
  Hf  Hf27      1.0  0.55439  0.88838  0.12669  1.0000
  Hf  Hf28      1.0  0.55459  0.88471  0.62801  1.0000
  Hf  Hf29      1.0  0.80414  0.39618  0.11807  1.0000
  Hf  Hf30      1.0  0.80141  0.40181  0.62182  1.0000
  Hf  Hf31      1.0  0.80278  0.88944  0.12393  1.0000
  Hf  Hf32      1.0  0.80424  0.89544  0.62418  1.0000
  Hf  Hf33      1.0  0.05636  0.18203  0.41441  1.0000
  Hf  Hf34      1.0  0.05772  0.19011  0.91335  1.0000
  Hf  Hf35      1.0  0.05350  0.67276  0.43282  1.0000
  Hf  Hf36      1.0  0.05343  0.67873  0.92821  1.0000
  Hf  Hf37      1.0  0.30775  0.18702  0.40761  1.0000
  Hf  Hf38      1.0  0.30765  0.18784  0.92047  1.0000
  Hf  Hf39      1.0  0.30541  0.68658  0.41567  1.0000
  Hf  Hf40      1.0  0.30459  0.68064  0.92333  1.0000
  Hf  Hf41      1.0  0.55380  0.17568  0.42370  1.0000
  Hf  Hf42      1.0  0.55383  0.17562  0.91593  1.0000
  Hf  Hf43      1.0  0.55682  0.67941  0.41061  1.0000
  Hf  Hf44      1.0  0.56106  0.68324  0.91506  1.0000
  Hf  Hf45      1.0  0.80323  0.18389  0.42071  1.0000
  Hf  Hf46      1.0  0.80707  0.17981  0.91579  1.0000
  Hf  Hf47      1.0  0.80577  0.68295  0.41672  1.0000
  Hf  Hf48      1.0  0.80910  0.68787  0.91152  1.0000
  Hf  Hf49      1.0  0.16103  0.39039  0.33419  1.0000
  Hf  Hf50      1.0  0.16124  0.38504  0.83621  1.0000
  Hf  Hf51      1.0  0.15335  0.88396  0.34044  1.0000
  Hf  Hf52      1.0  0.16166  0.88783  0.83228  1.0000
  Hf  Hf53      1.0  0.40915  0.39297  0.32640  1.0000
  Hf  Hf54      1.0  0.41172  0.40068  0.81903  1.0000
  Hf  Hf55      1.0  0.41220  0.89186  0.32775  1.0000
  Hf  Hf56      1.0  0.40648  0.88968  0.82759  1.0000
  Hf  Hf57      1.0  0.65623  0.37929  0.34053  1.0000
  Hf  Hf58      1.0  0.65457  0.38256  0.84404  1.0000
  Hf  Hf59      1.0  0.66043  0.88358  0.33215  1.0000
  Hf  Hf60      1.0  0.66208  0.88908  0.82815  1.0000
  Hf  Hf61      1.0  0.90381  0.38773  0.34291  1.0000
  Hf  Hf62      1.0  0.91037  0.38448  0.82900  1.0000
  Hf  Hf63      1.0  0.90701  0.89172  0.33683  1.0000
  Hf  Hf64      1.0  0.90364  0.88938  0.83547  1.0000
  Hf  Hf65      1.0  0.19380  0.32339  0.07964  1.0000
  Hf  Hf66      1.0  0.19272  0.31099  0.59093  1.0000
  Hf  Hf67      1.0  0.18997  0.81563  0.09609  1.0000
  Hf  Hf68      1.0  0.19250  0.82313  0.57979  1.0000
  Hf  Hf69      1.0  0.44846  0.31791  0.07403  1.0000
  Hf  Hf70      1.0  0.44325  0.32221  0.57775  1.0000
  Hf  Hf71      1.0  0.44288  0.82612  0.07954  1.0000
  Hf  Hf72      1.0  0.44687  0.81601  0.57951  1.0000
  Hf  Hf73      1.0  0.69596  0.31381  0.08293  1.0000
  Hf  Hf74      1.0  0.69243  0.31357  0.59159  1.0000
  Hf  Hf75      1.0  0.69342  0.80849  0.09144  1.0000
  Hf  Hf76      1.0  0.69567  0.81500  0.58316  1.0000
  Hf  Hf77      1.0  0.94459  0.32347  0.08123  1.0000
  Hf  Hf78      1.0  0.94646  0.31234  0.58402  1.0000
  Hf  Hf79      1.0  0.94139  0.81688  0.09034  1.0000
  Hf  Hf80      1.0  0.94638  0.82042  0.57980  1.0000
  Hf  Hf81      1.0  0.09242  0.11715  0.15524  1.0000
  Hf  Hf82      1.0  0.09002  0.10279  0.67128  1.0000
  Hf  Hf83      1.0  0.08870  0.61204  0.17336  1.0000
  Hf  Hf84      1.0  0.08866  0.60773  0.68350  1.0000
  Hf  Hf85      1.0  0.34297  0.11296  0.16182  1.0000
  Hf  Hf86      1.0  0.34755  0.11656  0.65482  1.0000
  Hf  Hf87      1.0  0.33890  0.60865  0.17433  1.0000
  Hf  Hf88      1.0  0.33852  0.61312  0.66240  1.0000
  Hf  Hf89      1.0  0.59116  0.10735  0.16862  1.0000
  Hf  Hf90      1.0  0.59416  0.11135  0.66050  1.0000
  Hf  Hf91      1.0  0.59221  0.60933  0.16572  1.0000
  Hf  Hf92      1.0  0.59261  0.60520  0.66679  1.0000
  Hf  Hf93      1.0  0.84278  0.11292  0.16195  1.0000
  Hf  Hf94      1.0  0.84380  0.12059  0.65804  1.0000
  Hf  Hf95      1.0  0.83910  0.61295  0.16810  1.0000
  Hf  Hf96      1.0  0.84183  0.61532  0.66978  1.0000
  F   F1        1.0  0.08547  0.12267  0.29946  1.0000
  F   F2        1.0  0.07934  0.12422  0.80199  1.0000
  F   F3        1.0  0.08217  0.65752  0.29475  1.0000
  F   F4        1.0  0.07802  0.61382  0.81525  1.0000
  F   F5        1.0  0.32463  0.12421  0.30379  1.0000
  F   F6        1.0  0.33564  0.15662  0.78288  1.0000
  F   F7        1.0  0.32932  0.62252  0.31109  1.0000
  F   F8        1.0  0.32932  0.64804  0.79423  1.0000
  F   F9        1.0  0.57466  0.11742  0.31186  1.0000
  F   F10       1.0  0.57262  0.11802  0.81243  1.0000
  F   F11       1.0  0.58142  0.63142  0.28999  1.0000
  F   F12       1.0  0.57819  0.62629  0.81192  1.0000
  F   F13       1.0  0.82036  0.12996  0.30609  1.0000
  F   F14       1.0  0.83257  0.14075  0.79629  1.0000
  F   F15       1.0  0.82955  0.61776  0.29896  1.0000
  F   F16       1.0  0.83326  0.63990  0.79504  1.0000
  F   F17       1.0  0.18022  0.33841  0.45778  1.0000
  F   F18       1.0  0.19110  0.35179  0.94154  1.0000
  F   F19       1.0  0.18235  0.85005  0.44938  1.0000
  F   F20       1.0  0.18794  0.83872  0.94622  1.0000
  F   F21       1.0  0.43747  0.36129  0.43765  1.0000
  F   F22       1.0  0.43486  0.33648  0.94079  1.0000
  F   F23       1.0  0.44569  0.84931  0.43159  1.0000
  F   F24       1.0  0.42741  0.84663  0.94868  1.0000
  F   F25       1.0  0.67423  0.33195  0.46101  1.0000
  F   F26       1.0  0.68414  0.33302  0.94413  1.0000
  F   F27       1.0  0.70058  0.84614  0.43332  1.0000
  F   F28       1.0  0.69335  0.85817  0.93603  1.0000
  F   F29       1.0  0.93276  0.35198  0.44225  1.0000
  F   F30       1.0  0.93380  0.34470  0.94826  1.0000
  F   F31       1.0  0.93590  0.84696  0.44924  1.0000
  F   F32       1.0  0.93247  0.84199  0.95022  1.0000
  F   F33       1.0  0.17350  0.39493  0.18432  1.0000
  F   F34       1.0  0.17066  0.35923  0.70442  1.0000
  F   F35       1.0  0.17372  0.87904  0.19530  1.0000
  F   F36       1.0  0.16758  0.87233  0.69277  1.0000
  F   F37       1.0  0.42052  0.37483  0.19093  1.0000
  F   F38       1.0  0.42476  0.39190  0.67702  1.0000
  F   F39       1.0  0.42058  0.87475  0.19530  1.0000
  F   F40       1.0  0.42132  0.87716  0.69502  1.0000
  F   F41       1.0  0.66796  0.36313  0.19890  1.0000
  F   F42       1.0  0.66976  0.36957  0.69472  1.0000
  F   F43       1.0  0.67320  0.85853  0.20657  1.0000
  F   F44       1.0  0.66557  0.86823  0.70219  1.0000
  F   F45       1.0  0.92306  0.38367  0.18753  1.0000
  F   F46       1.0  0.92255  0.36977  0.70018  1.0000
  F   F47       1.0  0.92017  0.87267  0.19746  1.0000
  F   F48       1.0  0.92145  0.89588  0.68647  1.0000
  F   F49       1.0  0.05450  0.16581  0.06468  1.0000
  F   F50       1.0  0.06841  0.16732  0.53638  1.0000
  F   F51       1.0  0.06272  0.64892  0.06015  1.0000
  F   F52       1.0  0.06741  0.66438  0.55789  1.0000
  F   F53       1.0  0.32205  0.18234  0.03973  1.0000
  F   F54       1.0  0.31937  0.16041  0.54737  1.0000
  F   F55       1.0  0.32226  0.67096  0.04584  1.0000
  F   F56       1.0  0.30493  0.64479  0.56110  1.0000
  F   F57       1.0  0.56993  0.17134  0.03928  1.0000
  F   F58       1.0  0.55751  0.15631  0.55447  1.0000
  F   F59       1.0  0.56487  0.66206  0.04981  1.0000
  F   F60       1.0  0.57941  0.66648  0.53650  1.0000
  F   F61       1.0  0.81598  0.16328  0.05235  1.0000
  F   F62       1.0  0.81873  0.15368  0.54851  1.0000
  F   F63       1.0  0.81306  0.66469  0.04967  1.0000
  F   F64       1.0  0.82639  0.67028  0.54368  1.0000
  F   F65       1.0  0.20569  0.21058  0.20535  1.0000
  F   F66       1.0  0.20725  0.19699  0.70618  1.0000
  F   F67       1.0  0.20098  0.69859  0.23448  1.0000
  F   F68       1.0  0.20600  0.70086  0.70543  1.0000
  F   F69       1.0  0.45654  0.19875  0.19419  1.0000
  F   F70       1.0  0.44910  0.20706  0.70396  1.0000
  F   F71       1.0  0.46474  0.70450  0.20111  1.0000
  F   F72       1.0  0.45497  0.70648  0.71627  1.0000
  F   F73       1.0  0.69837  0.19229  0.21257  1.0000
  F   F74       1.0  0.71487  0.21118  0.69677  1.0000
  F   F75       1.0  0.69364  0.69341  0.23795  1.0000
  F   F76       1.0  0.70481  0.70022  0.71848  1.0000
  F   F77       1.0  0.95771  0.20260  0.20648  1.0000
  F   F78       1.0  0.95227  0.19099  0.71620  1.0000
  F   F79       1.0  0.95055  0.70293  0.20944  1.0000
  F   F80       1.0  0.95176  0.70877  0.71315  1.0000
  F   F81       1.0  0.15191  0.09050  0.04009  1.0000
  F   F82       1.0  0.14486  0.08247  0.54448  1.0000
  F   F83       1.0  0.14450  0.59146  0.04447  1.0000
  F   F84       1.0  0.14561  0.59152  0.56035  1.0000
  F   F85       1.0  0.39518  0.08272  0.03890  1.0000
  F   F86       1.0  0.40045  0.08162  0.53082  1.0000
  F   F87       1.0  0.39875  0.58970  0.03151  1.0000
  F   F88       1.0  0.39819  0.59624  0.53681  1.0000
  F   F89       1.0  0.65170  0.07079  0.04226  1.0000
  F   F90       1.0  0.64628  0.10926  0.53176  1.0000
  F   F91       1.0  0.64787  0.58839  0.02654  1.0000
  F   F92       1.0  0.65242  0.57138  0.54584  1.0000
  F   F93       1.0  0.90698  0.10027  0.03707  1.0000
  F   F94       1.0  0.89748  0.08717  0.54132  1.0000
  F   F95       1.0  0.90125  0.60249  0.02968  1.0000
  F   F96       1.0  0.90057  0.58523  0.54614  1.0000
  F   F97       1.0  0.14995  0.20571  0.11336  1.0000
  F   F98       1.0  0.14629  0.19983  0.62501  1.0000
  F   F99       1.0  0.15172  0.70092  0.12718  1.0000
  F   F100      1.0  0.14641  0.71529  0.63394  1.0000
  F   F101      1.0  0.39775  0.18483  0.13634  1.0000
  F   F102      1.0  0.40399  0.21280  0.58890  1.0000
  F   F103      1.0  0.40417  0.69270  0.12457  1.0000
  F   F104      1.0  0.39731  0.69121  0.63603  1.0000
  F   F105      1.0  0.65118  0.19241  0.11467  1.0000
  F   F106      1.0  0.65141  0.20043  0.63325  1.0000
  F   F107      1.0  0.65584  0.68745  0.11552  1.0000
  F   F108      1.0  0.65128  0.68868  0.62891  1.0000
  F   F109      1.0  0.89678  0.20979  0.12489  1.0000
  F   F110      1.0  0.90049  0.19836  0.62422  1.0000
  F   F111      1.0  0.89926  0.69896  0.13765  1.0000
  F   F112      1.0  0.89998  0.70596  0.62782  1.0000
  F   F113      1.0  0.09969  0.31360  0.36522  1.0000
  F   F114      1.0  0.10308  0.29828  0.88154  1.0000
  F   F115      1.0  0.09686  0.79610  0.35979  1.0000
  F   F116      1.0  0.10193  0.79438  0.89574  1.0000
  F   F117      1.0  0.35490  0.29829  0.37993  1.0000
  F   F118      1.0  0.35941  0.29884  0.86348  1.0000
  F   F119      1.0  0.34471  0.80623  0.36267  1.0000
  F   F120      1.0  0.34634  0.80967  0.86638  1.0000
  F   F121      1.0  0.59726  0.29638  0.39676  1.0000
  F   F122      1.0  0.59618  0.30183  0.86631  1.0000
  F   F123      1.0  0.59214  0.80105  0.36835  1.0000
  F   F124      1.0  0.60587  0.80241  0.87878  1.0000
  F   F125      1.0  0.84427  0.31396  0.38935  1.0000
  F   F126      1.0  0.85024  0.29643  0.86469  1.0000
  F   F127      1.0  0.85254  0.80562  0.35288  1.0000
  F   F128      1.0  0.84731  0.81951  0.85535  1.0000
  F   F129      1.0  0.06135  0.25477  0.14531  1.0000
  F   F130      1.0  0.05996  0.24818  0.64776  1.0000
  F   F131      1.0  0.07155  0.75378  0.12688  1.0000
  F   F132      1.0  0.05651  0.75318  0.66452  1.0000
  F   F133      1.0  0.30723  0.25130  0.15811  1.0000
  F   F134      1.0  0.31387  0.25798  0.63785  1.0000
  F   F135      1.0  0.31343  0.75061  0.14934  1.0000
  F   F136      1.0  0.31562  0.75489  0.61807  1.0000
  F   F137      1.0  0.56304  0.24869  0.14858  1.0000
  F   F138      1.0  0.57372  0.24981  0.61606  1.0000
  F   F139      1.0  0.56289  0.75468  0.13787  1.0000
  F   F140      1.0  0.56532  0.74794  0.64339  1.0000
  F   F141      1.0  0.81205  0.24914  0.15642  1.0000
  F   F142      1.0  0.81595  0.26893  0.62261  1.0000
  F   F143      1.0  0.81928  0.75074  0.13426  1.0000
  F   F144      1.0  0.80613  0.75294  0.65154  1.0000
  F   F145      1.0  0.12400  0.37838  0.11107  1.0000
  F   F146      1.0  0.11988  0.36647  0.62971  1.0000
  F   F147      1.0  0.12506  0.87581  0.10843  1.0000
  F   F148      1.0  0.12125  0.88949  0.58840  1.0000
  F   F149      1.0  0.37339  0.36357  0.10913  1.0000
  F   F150      1.0  0.37621  0.37901  0.60583  1.0000
  F   F151      1.0  0.37252  0.87940  0.09865  1.0000
  F   F152      1.0  0.37949  0.85821  0.61052  1.0000
  F   F153      1.0  0.62280  0.37285  0.09768  1.0000
  F   F154      1.0  0.62427  0.37066  0.60935  1.0000
  F   F155      1.0  0.62578  0.84863  0.12252  1.0000
  F   F156      1.0  0.62552  0.86663  0.60670  1.0000
  F   F157      1.0  0.86969  0.36801  0.11744  1.0000
  F   F158      1.0  0.87355  0.37346  0.61538  1.0000
  F   F159      1.0  0.87363  0.88489  0.10467  1.0000
  F   F160      1.0  0.87462  0.87310  0.61677  1.0000
  F   F161      1.0  0.18903  0.25251  0.34771  1.0000
  F   F162      1.0  0.19150  0.23978  0.86382  1.0000
  F   F163      1.0  0.17384  0.74944  0.37165  1.0000
  F   F164      1.0  0.18523  0.74365  0.85822  1.0000
  F   F165      1.0  0.44311  0.24977  0.34352  1.0000
  F   F166      1.0  0.44228  0.23840  0.85641  1.0000
  F   F167      1.0  0.43607  0.75536  0.35110  1.0000
  F   F168      1.0  0.43288  0.75834  0.86136  1.0000
  F   F169      1.0  0.68709  0.24661  0.35219  1.0000
  F   F170      1.0  0.68483  0.24871  0.84615  1.0000
  F   F171      1.0  0.67245  0.74179  0.39251  1.0000
  F   F172      1.0  0.69048  0.75688  0.85804  1.0000
  F   F173      1.0  0.93424  0.25115  0.36342  1.0000
  F   F174      1.0  0.93450  0.24425  0.86162  1.0000
  F   F175      1.0  0.92330  0.75033  0.37300  1.0000
  F   F176      1.0  0.93079  0.74826  0.85641  1.0000
  F   F177      1.0  0.12993  0.14678  0.38145  1.0000
  F   F178      1.0  0.12816  0.12421  0.89363  1.0000
  F   F179      1.0  0.12072  0.61612  0.40815  1.0000
  F   F180      1.0  0.12165  0.62057  0.90795  1.0000
  F   F181      1.0  0.37688  0.13795  0.36580  1.0000
  F   F182      1.0  0.36871  0.11343  0.90452  1.0000
  F   F183      1.0  0.37852  0.64209  0.38324  1.0000
  F   F184      1.0  0.37815  0.63487  0.87939  1.0000
  F   F185      1.0  0.62395  0.12662  0.39086  1.0000
  F   F186      1.0  0.62271  0.12392  0.88587  1.0000
  F   F187      1.0  0.62297  0.62988  0.39239  1.0000
  F   F188      1.0  0.62938  0.64203  0.88171  1.0000
  F   F189      1.0  0.87406  0.16175  0.36944  1.0000
  F   F190      1.0  0.87462  0.12535  0.90231  1.0000
  F   F191      1.0  0.86975  0.62251  0.39534  1.0000
  F   F192      1.0  0.87682  0.63193  0.89083  1.0000
  F   F193      1.0  0.00520  0.36920  0.07242  1.0000
  F   F194      1.0  0.00848  0.36206  0.55887  1.0000
  F   F195      1.0  0.00887  0.87577  0.06465  1.0000
  F   F196      1.0  0.00697  0.85835  0.57654  1.0000
  F   F197      1.0  0.25976  0.36227  0.06838  1.0000
  F   F198      1.0  0.26103  0.37215  0.55729  1.0000
  F   F199      1.0  0.25820  0.86018  0.07651  1.0000
  F   F200      1.0  0.25504  0.86365  0.58702  1.0000
  F   F201      1.0  0.50302  0.35878  0.08399  1.0000
  F   F202      1.0  0.51064  0.35596  0.57068  1.0000
  F   F203      1.0  0.50266  0.88085  0.07550  1.0000
  F   F204      1.0  0.51283  0.85766  0.56779  1.0000
  F   F205      1.0  0.76030  0.35730  0.06346  1.0000
  F   F206      1.0  0.76096  0.37338  0.56190  1.0000
  F   F207      1.0  0.76014  0.83962  0.08361  1.0000
  F   F208      1.0  0.75428  0.87481  0.56411  1.0000
  F   F209      1.0  0.06888  0.48410  0.18432  1.0000
  F   F210      1.0  0.06695  0.48614  0.68463  1.0000
  F   F211      1.0  0.07149  0.98930  0.15378  1.0000
  F   F212      1.0  0.05968  0.99543  0.67559  1.0000
  F   F213      1.0  0.31853  0.49054  0.16981  1.0000
  F   F214      1.0  0.32071  0.48191  0.68123  1.0000
  F   F215      1.0  0.31467  0.98949  0.18385  1.0000
  F   F216      1.0  0.32576  0.98305  0.66219  1.0000
  F   F217      1.0  0.57031  0.48077  0.18240  1.0000
  F   F218      1.0  0.56220  0.48895  0.67444  1.0000
  F   F219      1.0  0.57290  0.97937  0.17510  1.0000
  F   F220      1.0  0.57699  0.98212  0.67112  1.0000
  F   F221      1.0  0.82074  0.48823  0.16643  1.0000
  F   F222      1.0  0.81527  0.49508  0.66166  1.0000
  F   F223      1.0  0.82058  0.99321  0.17151  1.0000
  F   F224      1.0  0.82001  0.98246  0.67385  1.0000
  F   F225      1.0  0.24034  0.14567  0.42296  1.0000
  F   F226      1.0  0.24706  0.12119  0.94029  1.0000
  F   F227      1.0  0.23733  0.63929  0.43515  1.0000
  F   F228      1.0  0.23969  0.62110  0.94096  1.0000
  F   F229      1.0  0.49095  0.13543  0.43484  1.0000
  F   F230      1.0  0.48576  0.11954  0.95184  1.0000
  F   F231      1.0  0.49703  0.64194  0.40695  1.0000
  F   F232      1.0  0.49232  0.63910  0.92551  1.0000
  F   F233      1.0  0.73993  0.12971  0.43841  1.0000
  F   F234      1.0  0.74832  0.13625  0.91214  1.0000
  F   F235      1.0  0.74159  0.63190  0.42237  1.0000
  F   F236      1.0  0.74934  0.63410  0.92213  1.0000
  F   F237      1.0  0.99492  0.14453  0.40818  1.0000
  F   F238      1.0  0.99710  0.13623  0.90799  1.0000
  F   F239      1.0  0.99199  0.63563  0.42746  1.0000
  F   F240      1.0  0.99469  0.64077  0.90627  1.0000
  F   F241      1.0  0.17343  0.01538  0.34447  1.0000
  F   F242      1.0  0.18769  0.01067  0.82219  1.0000
  F   F243      1.0  0.18407  0.50163  0.33726  1.0000
  F   F244      1.0  0.18825  0.52052  0.81077  1.0000
  F   F245      1.0  0.44266  0.01496  0.31946  1.0000
  F   F246      1.0  0.43272  0.01483  0.81389  1.0000
  F   F247      1.0  0.43136  0.52371  0.31966  1.0000
  F   F248      1.0  0.43403  0.51541  0.82007  1.0000
  F   F249      1.0  0.68137  0.01138  0.32793  1.0000
  F   F250      1.0  0.68322  0.02144  0.81959  1.0000
  F   F251      1.0  0.68200  0.51071  0.31388  1.0000
  F   F252      1.0  0.68220  0.51154  0.84352  1.0000
  F   F253      1.0  0.92413  0.01845  0.33805  1.0000
  F   F254      1.0  0.92323  0.01096  0.82126  1.0000
  F   F255      1.0  0.93349  0.52874  0.31771  1.0000
  F   F256      1.0  0.92469  0.51115  0.82592  1.0000
  F   F257      1.0  0.00490  0.26820  0.98793  1.0000
  F   F258      1.0  0.99574  0.24433  0.49538  1.0000
  F   F259      1.0  0.00102  0.74605  0.00884  1.0000
  F   F260      1.0  0.00780  0.76539  0.48021  1.0000
  F   F261      1.0  0.25531  0.26550  0.98904  1.0000
  F   F262      1.0  0.24910  0.24687  0.50457  1.0000
  F   F263      1.0  0.25135  0.73929  0.01151  1.0000
  F   F264      1.0  0.25174  0.76446  0.48997  1.0000
  F   F265      1.0  0.50453  0.25117  0.99145  1.0000
  F   F266      1.0  0.49997  0.25182  0.49906  1.0000
  F   F267      1.0  0.50093  0.77302  0.98954  1.0000
  F   F268      1.0  0.50410  0.73453  0.50891  1.0000
  F   F269      1.0  0.75070  0.24778  0.99225  1.0000
  F   F270      1.0  0.74924  0.26150  0.49014  1.0000
  F   F271      1.0  0.74878  0.73825  0.01187  1.0000
  F   F272      1.0  0.75550  0.74436  0.50346  1.0000
  F   F273      1.0  0.11801  0.99392  0.25335  1.0000
  F   F274      1.0  0.11464  0.98293  0.76799  1.0000
  F   F275      1.0  0.11988  0.51041  0.27052  1.0000
  F   F276      1.0  0.12743  0.49268  0.75926  1.0000
  F   F277      1.0  0.37719  0.00334  0.24359  1.0000
  F   F278      1.0  0.38012  0.01848  0.73633  1.0000
  F   F279      1.0  0.37880  0.50477  0.23290  1.0000
  F   F280      1.0  0.36525  0.50040  0.76207  1.0000
  F   F281      1.0  0.62454  0.99170  0.25136  1.0000
  F   F282      1.0  0.62800  0.00994  0.75377  1.0000
  F   F283      1.0  0.63420  0.50680  0.23115  1.0000
  F   F284      1.0  0.62390  0.49308  0.75391  1.0000
  F   F285      1.0  0.88346  0.01518  0.24518  1.0000
  F   F286      1.0  0.86930  0.00809  0.74764  1.0000
  F   F287      1.0  0.87320  0.49705  0.24992  1.0000
  F   F288      1.0  0.86671  0.48589  0.76022  1.0000
  F   F289      1.0  0.03430  0.04872  0.02518  1.0000
  F   F290      1.0  0.04999  0.02203  0.51194  1.0000
  F   F291      1.0  0.03697  0.53430  0.03002  1.0000
  F   F292      1.0  0.04110  0.52458  0.52432  1.0000
  F   F293      1.0  0.29164  0.03090  0.03999  1.0000
  F   F294      1.0  0.29510  0.02983  0.51202  1.0000
  F   F295      1.0  0.28705  0.53761  0.03944  1.0000
  F   F296      1.0  0.29226  0.52523  0.52740  1.0000
  F   F297      1.0  0.54201  0.03093  0.03318  1.0000
  F   F298      1.0  0.54990  0.02090  0.51438  1.0000
  F   F299      1.0  0.54469  0.53221  0.02492  1.0000
  F   F300      1.0  0.53231  0.53639  0.52104  1.0000
  F   F301      1.0  0.79956  0.02957  0.01054  1.0000
  F   F302      1.0  0.79728  0.02255  0.52406  1.0000
  F   F303      1.0  0.80030  0.53204  0.01507  1.0000
  F   F304      1.0  0.78309  0.54323  0.52678  1.0000
  F   F305      1.0  0.23860  0.40448  0.23232  1.0000
  F   F306      1.0  0.23312  0.41637  0.71441  1.0000
  F   F307      1.0  0.23460  0.90635  0.23956  1.0000
  F   F308      1.0  0.23644  0.92728  0.71335  1.0000
  F   F309      1.0  0.48592  0.41661  0.23307  1.0000
  F   F310      1.0  0.48376  0.42675  0.71697  1.0000
  F   F311      1.0  0.48270  0.92195  0.22408  1.0000
  F   F312      1.0  0.48972  0.90241  0.73267  1.0000
  F   F313      1.0  0.73500  0.40022  0.22346  1.0000
  F   F314      1.0  0.73083  0.42133  0.73255  1.0000
  F   F315      1.0  0.73357  0.92486  0.21251  1.0000
  F   F316      1.0  0.73262  0.92911  0.71232  1.0000
  F   F317      1.0  0.98711  0.41886  0.23313  1.0000
  F   F318      1.0  0.98824  0.41254  0.72111  1.0000
  F   F319      1.0  0.97827  0.91874  0.23460  1.0000
  F   F320      1.0  0.98321  0.89272  0.74922  1.0000
  F   F321      1.0  0.20894  0.46637  0.48696  1.0000
  F   F322      1.0  0.21234  0.47002  0.96933  1.0000
  F   F323      1.0  0.20614  0.97184  0.48187  1.0000
  F   F324      1.0  0.21117  0.96085  0.97820  1.0000
  F   F325      1.0  0.46000  0.48466  0.47039  1.0000
  F   F326      1.0  0.46400  0.46616  0.96760  1.0000
  F   F327      1.0  0.45822  0.96390  0.47997  1.0000
  F   F328      1.0  0.45373  0.97327  0.97497  1.0000
  F   F329      1.0  0.71400  0.46362  0.45291  1.0000
  F   F330      1.0  0.71004  0.47110  0.97932  1.0000
  F   F331      1.0  0.70321  0.97854  0.48661  1.0000
  F   F332      1.0  0.71103  0.95724  0.98495  1.0000
  F   F333      1.0  0.95598  0.46586  0.48751  1.0000
  F   F334      1.0  0.95889  0.47095  0.95826  1.0000
  F   F335      1.0  0.96028  0.97320  0.47188  1.0000
  F   F336      1.0  0.94932  0.97049  0.98757  1.0000
  F   F337      1.0  0.01474  0.07759  0.27248  1.0000
  F   F338      1.0  0.01161  0.08088  0.77258  1.0000
  F   F339      1.0  0.01036  0.59141  0.27501  1.0000
  F   F340      1.0  0.01735  0.58204  0.76592  1.0000
  F   F341      1.0  0.25839  0.07807  0.25955  1.0000
  F   F342      1.0  0.26439  0.08229  0.77393  1.0000
  F   F343      1.0  0.25997  0.58714  0.28467  1.0000
  F   F344      1.0  0.26810  0.58560  0.76974  1.0000
  F   F345      1.0  0.51434  0.09546  0.28114  1.0000
  F   F346      1.0  0.50908  0.08839  0.77683  1.0000
  F   F347      1.0  0.51899  0.58042  0.26939  1.0000
  F   F348      1.0  0.51672  0.59178  0.77004  1.0000
  F   F349      1.0  0.76659  0.08623  0.27252  1.0000
  F   F350      1.0  0.76750  0.07279  0.78257  1.0000
  F   F351      1.0  0.76512  0.60162  0.24449  1.0000
  F   F352      1.0  0.77042  0.57748  0.77402  1.0000
  F   F353      1.0  0.10170  0.39053  0.47884  1.0000
  F   F354      1.0  0.10917  0.40213  0.96370  1.0000
  F   F355      1.0  0.09330  0.87292  0.46775  1.0000
  F   F356      1.0  0.09929  0.91828  0.96880  1.0000
  F   F357      1.0  0.35635  0.42555  0.45100  1.0000
  F   F358      1.0  0.34846  0.41009  0.95718  1.0000
  F   F359      1.0  0.35972  0.90455  0.44966  1.0000
  F   F360      1.0  0.34442  0.90958  0.95512  1.0000
  F   F361      1.0  0.59711  0.43068  0.45432  1.0000
  F   F362      1.0  0.59466  0.40248  0.97149  1.0000
  F   F363      1.0  0.60451  0.89524  0.46076  1.0000
  F   F364      1.0  0.60646  0.91883  0.95945  1.0000
  F   F365      1.0  0.85618  0.43050  0.45819  1.0000
  F   F366      1.0  0.84811  0.39348  0.96582  1.0000
  F   F367      1.0  0.85019  0.89007  0.47274  1.0000
  F   F368      1.0  0.84812  0.90500  0.96942  1.0000
  F   F369      1.0  0.04460  0.31062  0.29228  1.0000
  F   F370      1.0  0.04565  0.30520  0.80166  1.0000
  F   F371      1.0  0.04209  0.81003  0.26737  1.0000
  F   F372      1.0  0.05234  0.79335  0.80366  1.0000
  F   F373      1.0  0.30455  0.30104  0.28656  1.0000
  F   F374      1.0  0.29525  0.30388  0.78500  1.0000
  F   F375      1.0  0.29393  0.79779  0.28375  1.0000
  F   F376      1.0  0.28748  0.79805  0.77365  1.0000
  F   F377      1.0  0.55971  0.29702  0.28397  1.0000
  F   F378      1.0  0.53912  0.29490  0.78132  1.0000
  F   F379      1.0  0.54161  0.79642  0.28641  1.0000
  F   F380      1.0  0.54922  0.80167  0.79126  1.0000
  F   F381      1.0  0.79708  0.29089  0.29678  1.0000
  F   F382      1.0  0.79410  0.29707  0.78117  1.0000
  F   F383      1.0  0.79672  0.79932  0.28923  1.0000
  F   F384      1.0  0.79125  0.80343  0.79691  1.0000
