data_image0
_chemical_formula_structural       Hf96F384
_chemical_formula_sum              "Hf96 F384"
_cell_length_a       31.0371
_cell_length_b       15.5199
_cell_length_c       15.5117
_cell_angle_alpha    63.342
_cell_angle_beta     63.342
_cell_angle_gamma    80.1625

_space_group_name_H-M_alt    "P 1"
_space_group_IT_number       1

loop_
  _space_group_symop_operation_xyz
  'x, y, z'

loop_
  _atom_site_type_symbol
  _atom_site_label
  _atom_site_symmetry_multiplicity
  _atom_site_fract_x
  _atom_site_fract_y
  _atom_site_fract_z
  _atom_site_occupancy
  Hf  Hf1       1.0  0.19455  0.10475  0.37708  1.0000
  Hf  Hf2       1.0  0.19841  0.11270  0.86682  1.0000
  Hf  Hf3       1.0  0.19752  0.61252  0.38162  1.0000
  Hf  Hf4       1.0  0.19529  0.59988  0.88172  1.0000
  Hf  Hf5       1.0  0.44815  0.09873  0.37736  1.0000
  Hf  Hf6       1.0  0.44569  0.10484  0.87985  1.0000
  Hf  Hf7       1.0  0.44809  0.60416  0.37678  1.0000
  Hf  Hf8       1.0  0.44631  0.61014  0.87892  1.0000
  Hf  Hf9       1.0  0.69732  0.11422  0.36524  1.0000
  Hf  Hf10      1.0  0.69462  0.11294  0.88341  1.0000
  Hf  Hf11      1.0  0.69733  0.60534  0.36933  1.0000
  Hf  Hf12      1.0  0.69580  0.61342  0.87188  1.0000
  Hf  Hf13      1.0  0.94664  0.11270  0.36949  1.0000
  Hf  Hf14      1.0  0.94668  0.11127  0.87168  1.0000
  Hf  Hf15      1.0  0.94813  0.61018  0.37709  1.0000
  Hf  Hf16      1.0  0.94751  0.60453  0.87372  1.0000
  Hf  Hf17      1.0  0.05546  0.39464  0.12242  1.0000
  Hf  Hf18      1.0  0.05461  0.38780  0.62609  1.0000
  Hf  Hf19      1.0  0.05550  0.89783  0.12109  1.0000
  Hf  Hf20      1.0  0.05286  0.88854  0.62734  1.0000
  Hf  Hf21      1.0  0.30150  0.39461  0.12661  1.0000
  Hf  Hf22      1.0  0.30758  0.39274  0.61578  1.0000
  Hf  Hf23      1.0  0.30217  0.89202  0.12614  1.0000
  Hf  Hf24      1.0  0.30124  0.88818  0.62534  1.0000
  Hf  Hf25      1.0  0.55051  0.38515  0.12961  1.0000
  Hf  Hf26      1.0  0.55524  0.39500  0.62071  1.0000
  Hf  Hf27      1.0  0.55554  0.89337  0.13011  1.0000
  Hf  Hf28      1.0  0.55612  0.88632  0.62230  1.0000
  Hf  Hf29      1.0  0.80475  0.39160  0.12551  1.0000
  Hf  Hf30      1.0  0.80087  0.39993  0.62858  1.0000
  Hf  Hf31      1.0  0.80577  0.90096  0.11626  1.0000
  Hf  Hf32      1.0  0.79768  0.89096  0.63220  1.0000
  Hf  Hf33      1.0  0.05379  0.17195  0.42639  1.0000
  Hf  Hf34      1.0  0.05712  0.18700  0.90915  1.0000
  Hf  Hf35      1.0  0.05763  0.68048  0.41916  1.0000
  Hf  Hf36      1.0  0.05532  0.67841  0.92331  1.0000
  Hf  Hf37      1.0  0.30411  0.17768  0.42028  1.0000
  Hf  Hf38      1.0  0.30878  0.17925  0.91482  1.0000
  Hf  Hf39      1.0  0.31222  0.68139  0.41469  1.0000
  Hf  Hf40      1.0  0.30293  0.68407  0.91750  1.0000
  Hf  Hf41      1.0  0.55555  0.17510  0.42010  1.0000
  Hf  Hf42      1.0  0.55519  0.18286  0.91591  1.0000
  Hf  Hf43      1.0  0.55563  0.68166  0.41666  1.0000
  Hf  Hf44      1.0  0.55351  0.67942  0.92255  1.0000
  Hf  Hf45      1.0  0.80983  0.17959  0.41404  1.0000
  Hf  Hf46      1.0  0.80957  0.18600  0.91376  1.0000
  Hf  Hf47      1.0  0.80655  0.68149  0.41359  1.0000
  Hf  Hf48      1.0  0.80434  0.67969  0.92270  1.0000
  Hf  Hf49      1.0  0.15867  0.38875  0.33743  1.0000
  Hf  Hf50      1.0  0.15839  0.38691  0.83043  1.0000
  Hf  Hf51      1.0  0.15779  0.89228  0.33395  1.0000
  Hf  Hf52      1.0  0.15609  0.88866  0.83475  1.0000
  Hf  Hf53      1.0  0.40938  0.38248  0.33659  1.0000
  Hf  Hf54      1.0  0.40785  0.39095  0.83230  1.0000
  Hf  Hf55      1.0  0.40691  0.88098  0.33968  1.0000
  Hf  Hf56      1.0  0.41283  0.89727  0.82677  1.0000
  Hf  Hf57      1.0  0.65720  0.38365  0.32796  1.0000
  Hf  Hf58      1.0  0.65576  0.39336  0.83328  1.0000
  Hf  Hf59      1.0  0.65811  0.88638  0.33087  1.0000
  Hf  Hf60      1.0  0.65640  0.89354  0.83451  1.0000
  Hf  Hf61      1.0  0.91090  0.38972  0.33170  1.0000
  Hf  Hf62      1.0  0.90735  0.39629  0.82602  1.0000
  Hf  Hf63      1.0  0.90423  0.89055  0.33429  1.0000
  Hf  Hf64      1.0  0.90995  0.88980  0.82816  1.0000
  Hf  Hf65      1.0  0.19580  0.32087  0.07816  1.0000
  Hf  Hf66      1.0  0.19857  0.31936  0.57968  1.0000
  Hf  Hf67      1.0  0.19283  0.83142  0.07929  1.0000
  Hf  Hf68      1.0  0.19492  0.80441  0.59272  1.0000
  Hf  Hf69      1.0  0.44361  0.31862  0.08189  1.0000
  Hf  Hf70      1.0  0.44692  0.31331  0.58243  1.0000
  Hf  Hf71      1.0  0.44202  0.82284  0.08508  1.0000
  Hf  Hf72      1.0  0.44083  0.80696  0.59360  1.0000
  Hf  Hf73      1.0  0.69506  0.32223  0.07441  1.0000
  Hf  Hf74      1.0  0.69681  0.32004  0.57743  1.0000
  Hf  Hf75      1.0  0.69624  0.82145  0.08060  1.0000
  Hf  Hf76      1.0  0.69259  0.81259  0.58768  1.0000
  Hf  Hf77      1.0  0.94907  0.32389  0.06952  1.0000
  Hf  Hf78      1.0  0.94320  0.32034  0.58183  1.0000
  Hf  Hf79      1.0  0.94431  0.82566  0.08116  1.0000
  Hf  Hf80      1.0  0.94037  0.81669  0.59102  1.0000
  Hf  Hf81      1.0  0.09286  0.11565  0.16075  1.0000
  Hf  Hf82      1.0  0.09153  0.11006  0.66925  1.0000
  Hf  Hf83      1.0  0.09144  0.60976  0.17484  1.0000
  Hf  Hf84      1.0  0.08977  0.60781  0.67334  1.0000
  Hf  Hf85      1.0  0.34143  0.10988  0.17020  1.0000
  Hf  Hf86      1.0  0.33996  0.10073  0.67161  1.0000
  Hf  Hf87      1.0  0.33919  0.61546  0.16712  1.0000
  Hf  Hf88      1.0  0.33674  0.60877  0.66876  1.0000
  Hf  Hf89      1.0  0.59199  0.11004  0.16494  1.0000
  Hf  Hf90      1.0  0.58947  0.10450  0.66297  1.0000
  Hf  Hf91      1.0  0.58811  0.60504  0.17473  1.0000
  Hf  Hf92      1.0  0.59278  0.60490  0.67004  1.0000
  Hf  Hf93      1.0  0.84614  0.11887  0.15796  1.0000
  Hf  Hf94      1.0  0.83893  0.11594  0.66761  1.0000
  Hf  Hf95      1.0  0.84272  0.61686  0.15834  1.0000
  Hf  Hf96      1.0  0.84117  0.61440  0.66160  1.0000
  F   F1        1.0  0.07627  0.14077  0.29880  1.0000
  F   F2        1.0  0.07624  0.11438  0.81547  1.0000
  F   F3        1.0  0.08168  0.62423  0.30592  1.0000
  F   F4        1.0  0.07678  0.63770  0.80841  1.0000
  F   F5        1.0  0.32933  0.11723  0.31437  1.0000
  F   F6        1.0  0.33432  0.13246  0.79748  1.0000
  F   F7        1.0  0.32686  0.62554  0.30030  1.0000
  F   F8        1.0  0.32356  0.63118  0.79965  1.0000
  F   F9        1.0  0.58122  0.11827  0.30686  1.0000
  F   F10       1.0  0.58511  0.11419  0.80147  1.0000
  F   F11       1.0  0.58014  0.61465  0.30945  1.0000
  F   F12       1.0  0.57457  0.63908  0.80523  1.0000
  F   F13       1.0  0.83486  0.13038  0.29893  1.0000
  F   F14       1.0  0.82327  0.12064  0.81280  1.0000
  F   F15       1.0  0.83355  0.63431  0.30174  1.0000
  F   F16       1.0  0.82366  0.62999  0.80327  1.0000
  F   F17       1.0  0.19521  0.34917  0.43838  1.0000
  F   F18       1.0  0.18010  0.34248  0.95400  1.0000
  F   F19       1.0  0.18796  0.82896  0.44630  1.0000
  F   F20       1.0  0.17941  0.85985  0.94662  1.0000
  F   F21       1.0  0.44176  0.34214  0.44689  1.0000
  F   F22       1.0  0.43926  0.35406  0.94039  1.0000
  F   F23       1.0  0.43623  0.84602  0.44252  1.0000
  F   F24       1.0  0.43730  0.85003  0.94663  1.0000
  F   F25       1.0  0.69227  0.35178  0.43191  1.0000
  F   F26       1.0  0.69566  0.36379  0.93117  1.0000
  F   F27       1.0  0.68937  0.83542  0.44674  1.0000
  F   F28       1.0  0.67728  0.84275  0.96100  1.0000
  F   F29       1.0  0.93028  0.33598  0.45408  1.0000
  F   F30       1.0  0.93856  0.35875  0.93186  1.0000
  F   F31       1.0  0.93785  0.83983  0.45258  1.0000
  F   F32       1.0  0.93462  0.85310  0.94749  1.0000
  F   F33       1.0  0.17141  0.37273  0.20257  1.0000
  F   F34       1.0  0.17474  0.38243  0.68678  1.0000
  F   F35       1.0  0.16920  0.90126  0.19042  1.0000
  F   F36       1.0  0.17027  0.85119  0.70204  1.0000
  F   F37       1.0  0.42062  0.35846  0.20098  1.0000
  F   F38       1.0  0.42522  0.37671  0.69754  1.0000
  F   F39       1.0  0.41389  0.87866  0.19973  1.0000
  F   F40       1.0  0.42146  0.85060  0.71319  1.0000
  F   F41       1.0  0.66998  0.36491  0.19158  1.0000
  F   F42       1.0  0.66757  0.35647  0.70297  1.0000
  F   F43       1.0  0.67311  0.87126  0.19549  1.0000
  F   F44       1.0  0.67987  0.85352  0.70163  1.0000
  F   F45       1.0  0.91614  0.35342  0.19891  1.0000
  F   F46       1.0  0.92757  0.39236  0.68614  1.0000
  F   F47       1.0  0.93146  0.89663  0.18714  1.0000
  F   F48       1.0  0.91514  0.87804  0.69569  1.0000
  F   F49       1.0  0.06165  0.15465  0.05608  1.0000
  F   F50       1.0  0.06894  0.17079  0.54747  1.0000
  F   F51       1.0  0.06722  0.66612  0.04891  1.0000
  F   F52       1.0  0.06596  0.64635  0.55766  1.0000
  F   F53       1.0  0.31597  0.16818  0.05959  1.0000
  F   F54       1.0  0.30642  0.13483  0.56551  1.0000
  F   F55       1.0  0.30405  0.65132  0.06323  1.0000
  F   F56       1.0  0.31946  0.66841  0.54415  1.0000
  F   F57       1.0  0.56588  0.15322  0.05702  1.0000
  F   F58       1.0  0.56445  0.14089  0.55405  1.0000
  F   F59       1.0  0.56239  0.65749  0.06443  1.0000
  F   F60       1.0  0.56891  0.66140  0.55175  1.0000
  F   F61       1.0  0.81670  0.17307  0.04947  1.0000
  F   F62       1.0  0.81059  0.16365  0.55149  1.0000
  F   F63       1.0  0.80775  0.66019  0.05418  1.0000
  F   F64       1.0  0.82301  0.65994  0.54084  1.0000
  F   F65       1.0  0.20152  0.20141  0.22489  1.0000
  F   F66       1.0  0.20747  0.21451  0.70373  1.0000
  F   F67       1.0  0.20665  0.71356  0.19999  1.0000
  F   F68       1.0  0.20549  0.68640  0.70635  1.0000
  F   F69       1.0  0.45530  0.20081  0.21603  1.0000
  F   F70       1.0  0.45318  0.20580  0.71898  1.0000
  F   F71       1.0  0.44982  0.69333  0.21623  1.0000
  F   F72       1.0  0.45310  0.68615  0.72330  1.0000
  F   F73       1.0  0.70868  0.19043  0.19916  1.0000
  F   F74       1.0  0.70598  0.20185  0.73104  1.0000
  F   F75       1.0  0.70689  0.70687  0.21209  1.0000
  F   F76       1.0  0.70118  0.70001  0.71659  1.0000
  F   F77       1.0  0.95484  0.19751  0.20165  1.0000
  F   F78       1.0  0.95097  0.21251  0.71166  1.0000
  F   F79       1.0  0.94419  0.70347  0.21499  1.0000
  F   F80       1.0  0.94748  0.70494  0.71415  1.0000
  F   F81       1.0  0.14911  0.09626  0.04760  1.0000
  F   F82       1.0  0.14866  0.07892  0.54668  1.0000
  F   F83       1.0  0.15017  0.58184  0.04012  1.0000
  F   F84       1.0  0.15343  0.59735  0.54164  1.0000
  F   F85       1.0  0.40136  0.07849  0.04833  1.0000
  F   F86       1.0  0.39535  0.10545  0.54322  1.0000
  F   F87       1.0  0.39620  0.59722  0.03690  1.0000
  F   F88       1.0  0.39811  0.59891  0.53851  1.0000
  F   F89       1.0  0.64936  0.08437  0.03285  1.0000
  F   F90       1.0  0.64769  0.09318  0.52415  1.0000
  F   F91       1.0  0.64854  0.59569  0.05463  1.0000
  F   F92       1.0  0.64978  0.58599  0.55146  1.0000
  F   F93       1.0  0.90206  0.09212  0.03106  1.0000
  F   F94       1.0  0.89245  0.08454  0.55381  1.0000
  F   F95       1.0  0.89157  0.59220  0.02551  1.0000
  F   F96       1.0  0.90102  0.59402  0.53887  1.0000
  F   F97       1.0  0.15493  0.19745  0.13656  1.0000
  F   F98       1.0  0.14741  0.20455  0.63052  1.0000
  F   F99       1.0  0.14565  0.69605  0.14430  1.0000
  F   F100      1.0  0.14979  0.69476  0.63271  1.0000
  F   F101      1.0  0.40325  0.20214  0.12007  1.0000
  F   F102      1.0  0.40680  0.20074  0.62142  1.0000
  F   F103      1.0  0.39318  0.70467  0.13886  1.0000
  F   F104      1.0  0.40422  0.69436  0.62007  1.0000
  F   F105      1.0  0.65340  0.19949  0.10651  1.0000
  F   F106      1.0  0.65826  0.19785  0.62429  1.0000
  F   F107      1.0  0.65160  0.70436  0.13925  1.0000
  F   F108      1.0  0.65135  0.69040  0.63483  1.0000
  F   F109      1.0  0.90143  0.20667  0.11400  1.0000
  F   F110      1.0  0.90201  0.18773  0.63645  1.0000
  F   F111      1.0  0.90586  0.70054  0.10558  1.0000
  F   F112      1.0  0.89825  0.68638  0.63279  1.0000
  F   F113      1.0  0.09756  0.29323  0.36453  1.0000
  F   F114      1.0  0.09982  0.30519  0.87964  1.0000
  F   F115      1.0  0.10202  0.80279  0.38602  1.0000
  F   F116      1.0  0.10519  0.79868  0.86091  1.0000
  F   F117      1.0  0.34743  0.29260  0.37814  1.0000
  F   F118      1.0  0.34787  0.30022  0.87176  1.0000
  F   F119      1.0  0.34588  0.80645  0.37142  1.0000
  F   F120      1.0  0.34046  0.80861  0.86833  1.0000
  F   F121      1.0  0.59944  0.29170  0.38518  1.0000
  F   F122      1.0  0.58750  0.31297  0.87580  1.0000
  F   F123      1.0  0.59841  0.80694  0.36425  1.0000
  F   F124      1.0  0.60017  0.80535  0.87603  1.0000
  F   F125      1.0  0.84599  0.30039  0.38516  1.0000
  F   F126      1.0  0.85365  0.30950  0.84405  1.0000
  F   F127      1.0  0.84954  0.80778  0.35941  1.0000
  F   F128      1.0  0.84864  0.81641  0.87415  1.0000
  F   F129      1.0  0.07431  0.26406  0.12010  1.0000
  F   F130      1.0  0.06200  0.24462  0.65771  1.0000
  F   F131      1.0  0.06136  0.75047  0.15350  1.0000
  F   F132      1.0  0.06495  0.74933  0.62973  1.0000
  F   F133      1.0  0.32232  0.25265  0.13928  1.0000
  F   F134      1.0  0.32057  0.24002  0.62306  1.0000
  F   F135      1.0  0.31306  0.75726  0.12751  1.0000
  F   F136      1.0  0.32089  0.75055  0.63113  1.0000
  F   F137      1.0  0.56100  0.24376  0.14571  1.0000
  F   F138      1.0  0.57382  0.24264  0.61834  1.0000
  F   F139      1.0  0.56991  0.74898  0.15150  1.0000
  F   F140      1.0  0.57133  0.74577  0.63374  1.0000
  F   F141      1.0  0.81147  0.24950  0.14751  1.0000
  F   F142      1.0  0.81655  0.26211  0.63724  1.0000
  F   F143      1.0  0.81370  0.74831  0.14266  1.0000
  F   F144      1.0  0.81185  0.75418  0.63948  1.0000
  F   F145      1.0  0.12773  0.38252  0.10442  1.0000
  F   F146      1.0  0.12637  0.37691  0.59180  1.0000
  F   F147      1.0  0.12292  0.87598  0.12343  1.0000
  F   F148      1.0  0.12235  0.87203  0.60583  1.0000
  F   F149      1.0  0.37339  0.38533  0.09940  1.0000
  F   F150      1.0  0.37632  0.37442  0.59664  1.0000
  F   F151      1.0  0.37050  0.86779  0.10865  1.0000
  F   F152      1.0  0.37335  0.85328  0.62492  1.0000
  F   F153      1.0  0.61991  0.35853  0.11355  1.0000
  F   F154      1.0  0.62700  0.37800  0.59038  1.0000
  F   F155      1.0  0.62575  0.88209  0.11118  1.0000
  F   F156      1.0  0.62628  0.88189  0.60754  1.0000
  F   F157      1.0  0.87745  0.38098  0.08804  1.0000
  F   F158      1.0  0.87431  0.36560  0.61696  1.0000
  F   F159      1.0  0.87539  0.85724  0.12758  1.0000
  F   F160      1.0  0.87474  0.86429  0.59888  1.0000
  F   F161      1.0  0.17729  0.24804  0.37358  1.0000
  F   F162      1.0  0.18466  0.24751  0.86889  1.0000
  F   F163      1.0  0.18782  0.74970  0.35326  1.0000
  F   F164      1.0  0.17848  0.74529  0.88456  1.0000
  F   F165      1.0  0.43312  0.24300  0.36305  1.0000
  F   F166      1.0  0.43373  0.23962  0.86808  1.0000
  F   F167      1.0  0.42933  0.74130  0.37250  1.0000
  F   F168      1.0  0.43510  0.75358  0.87429  1.0000
  F   F169      1.0  0.68121  0.24983  0.35957  1.0000
  F   F170      1.0  0.67368  0.25375  0.89428  1.0000
  F   F171      1.0  0.68287  0.74727  0.36499  1.0000
  F   F172      1.0  0.69098  0.75317  0.85082  1.0000
  F   F173      1.0  0.93084  0.25132  0.36280  1.0000
  F   F174      1.0  0.92917  0.25252  0.86196  1.0000
  F   F175      1.0  0.93848  0.75029  0.36195  1.0000
  F   F176      1.0  0.93791  0.75033  0.85654  1.0000
  F   F177      1.0  0.12059  0.11494  0.40301  1.0000
  F   F178      1.0  0.12431  0.13228  0.89285  1.0000
  F   F179      1.0  0.12553  0.63014  0.39199  1.0000
  F   F180      1.0  0.12658  0.61839  0.89565  1.0000
  F   F181      1.0  0.37642  0.12034  0.39558  1.0000
  F   F182      1.0  0.37390  0.12080  0.91226  1.0000
  F   F183      1.0  0.37932  0.63254  0.37846  1.0000
  F   F184      1.0  0.37464  0.63496  0.89802  1.0000
  F   F185      1.0  0.62479  0.13273  0.38261  1.0000
  F   F186      1.0  0.62133  0.14610  0.88355  1.0000
  F   F187      1.0  0.62289  0.62389  0.40707  1.0000
  F   F188      1.0  0.62295  0.63008  0.89869  1.0000
  F   F189      1.0  0.87874  0.12266  0.39499  1.0000
  F   F190      1.0  0.87449  0.12465  0.89761  1.0000
  F   F191      1.0  0.87049  0.61022  0.39884  1.0000
  F   F192      1.0  0.87394  0.64719  0.87448  1.0000
  F   F193      1.0  0.01017  0.36475  0.06311  1.0000
  F   F194      1.0  0.01000  0.37077  0.56614  1.0000
  F   F195      1.0  0.00613  0.86509  0.08106  1.0000
  F   F196      1.0  0.00559  0.87451  0.56507  1.0000
  F   F197      1.0  0.25717  0.36383  0.07135  1.0000
  F   F198      1.0  0.26463  0.36283  0.55743  1.0000
  F   F199      1.0  0.25550  0.87699  0.06442  1.0000
  F   F200      1.0  0.25419  0.84287  0.59134  1.0000
  F   F201      1.0  0.50779  0.35305  0.06932  1.0000
  F   F202      1.0  0.51380  0.35793  0.56641  1.0000
  F   F203      1.0  0.50564  0.85205  0.10366  1.0000
  F   F204      1.0  0.50275  0.84233  0.59983  1.0000
  F   F205      1.0  0.76120  0.35953  0.06628  1.0000
  F   F206      1.0  0.75211  0.37475  0.57803  1.0000
  F   F207      1.0  0.75870  0.87144  0.06924  1.0000
  F   F208      1.0  0.76105  0.85838  0.56397  1.0000
  F   F209      1.0  0.06826  0.49700  0.16227  1.0000
  F   F210      1.0  0.06690  0.47598  0.69354  1.0000
  F   F211      1.0  0.07184  0.98481  0.17784  1.0000
  F   F212      1.0  0.06441  0.98126  0.68216  1.0000
  F   F213      1.0  0.31957  0.48737  0.17629  1.0000
  F   F214      1.0  0.31841  0.48308  0.68532  1.0000
  F   F215      1.0  0.31623  0.98213  0.19224  1.0000
  F   F216      1.0  0.31868  0.97429  0.67720  1.0000
  F   F217      1.0  0.56891  0.47160  0.17679  1.0000
  F   F218      1.0  0.56592  0.48603  0.67552  1.0000
  F   F219      1.0  0.56050  0.98055  0.19159  1.0000
  F   F220      1.0  0.56312  0.98260  0.67783  1.0000
  F   F221      1.0  0.81528  0.49325  0.18602  1.0000
  F   F222      1.0  0.81644  0.48749  0.67817  1.0000
  F   F223      1.0  0.82568  0.00093  0.14468  1.0000
  F   F224      1.0  0.81722  0.98022  0.67717  1.0000
  F   F225      1.0  0.23684  0.14429  0.43089  1.0000
  F   F226      1.0  0.24754  0.13702  0.92039  1.0000
  F   F227      1.0  0.24813  0.63424  0.43011  1.0000
  F   F228      1.0  0.24084  0.63294  0.93372  1.0000
  F   F229      1.0  0.48544  0.12941  0.44616  1.0000
  F   F230      1.0  0.49352  0.13784  0.92067  1.0000
  F   F231      1.0  0.49211  0.64980  0.42300  1.0000
  F   F232      1.0  0.49147  0.63244  0.93985  1.0000
  F   F233      1.0  0.74537  0.15147  0.40526  1.0000
  F   F234      1.0  0.73528  0.14687  0.93323  1.0000
  F   F235      1.0  0.74519  0.63513  0.41987  1.0000
  F   F236      1.0  0.73669  0.64055  0.93578  1.0000
  F   F237      1.0  0.99007  0.15574  0.40964  1.0000
  F   F238      1.0  0.99048  0.14429  0.93022  1.0000
  F   F239      1.0  0.99474  0.61440  0.43903  1.0000
  F   F240      1.0  0.98360  0.64882  0.93824  1.0000
  F   F241      1.0  0.18038  0.01402  0.33067  1.0000
  F   F242      1.0  0.18170  0.02690  0.81885  1.0000
  F   F243      1.0  0.17770  0.51544  0.33739  1.0000
  F   F244      1.0  0.18660  0.51133  0.81864  1.0000
  F   F245      1.0  0.43003  0.00730  0.33322  1.0000
  F   F246      1.0  0.43766  0.02640  0.81717  1.0000
  F   F247      1.0  0.43167  0.50380  0.33240  1.0000
  F   F248      1.0  0.43098  0.50570  0.84076  1.0000
  F   F249      1.0  0.67248  0.01429  0.33173  1.0000
  F   F250      1.0  0.67258  0.01447  0.83548  1.0000
  F   F251      1.0  0.68992  0.51558  0.30865  1.0000
  F   F252      1.0  0.68058  0.51173  0.82197  1.0000
  F   F253      1.0  0.92929  0.01211  0.32460  1.0000
  F   F254      1.0  0.92911  0.02686  0.81761  1.0000
  F   F255      1.0  0.93956  0.50972  0.31921  1.0000
  F   F256      1.0  0.93791  0.52283  0.81200  1.0000
  F   F257      1.0  0.00350  0.25665  0.98588  1.0000
  F   F258      1.0  0.99519  0.22292  0.51904  1.0000
  F   F259      1.0  0.99978  0.75508  0.00295  1.0000
  F   F260      1.0  0.99729  0.74173  0.50912  1.0000
  F   F261      1.0  0.25390  0.25965  0.99088  1.0000
  F   F262      1.0  0.25127  0.24720  0.50503  1.0000
  F   F263      1.0  0.24755  0.76289  0.99543  1.0000
  F   F264      1.0  0.25419  0.73658  0.51012  1.0000
  F   F265      1.0  0.49569  0.23729  0.00883  1.0000
  F   F266      1.0  0.50458  0.25149  0.49673  1.0000
  F   F267      1.0  0.50011  0.75826  0.00054  1.0000
  F   F268      1.0  0.49990  0.74806  0.50194  1.0000
  F   F269      1.0  0.75334  0.24764  0.99838  1.0000
  F   F270      1.0  0.75511  0.25973  0.48301  1.0000
  F   F271      1.0  0.75079  0.76092  0.99059  1.0000
  F   F272      1.0  0.74897  0.73638  0.51102  1.0000
  F   F273      1.0  0.12118  0.00650  0.25313  1.0000
  F   F274      1.0  0.12764  0.99737  0.74375  1.0000
  F   F275      1.0  0.11217  0.48283  0.26060  1.0000
  F   F276      1.0  0.12592  0.50005  0.74996  1.0000
  F   F277      1.0  0.37300  0.99930  0.26086  1.0000
  F   F278      1.0  0.38338  0.99683  0.73347  1.0000
  F   F279      1.0  0.37514  0.49268  0.26428  1.0000
  F   F280      1.0  0.37778  0.51023  0.74690  1.0000
  F   F281      1.0  0.62471  0.99438  0.24857  1.0000
  F   F282      1.0  0.63584  0.00084  0.71373  1.0000
  F   F283      1.0  0.62269  0.48670  0.24146  1.0000
  F   F284      1.0  0.61637  0.48953  0.76528  1.0000
  F   F285      1.0  0.87226  0.00121  0.23898  1.0000
  F   F286      1.0  0.87281  0.00320  0.75535  1.0000
  F   F287      1.0  0.87805  0.50523  0.24587  1.0000
  F   F288      1.0  0.87257  0.50978  0.75049  1.0000
  F   F289      1.0  0.04816  0.02588  0.01307  1.0000
  F   F290      1.0  0.03265  0.03169  0.53225  1.0000
  F   F291      1.0  0.03602  0.53626  0.02084  1.0000
  F   F292      1.0  0.04943  0.52054  0.51758  1.0000
  F   F293      1.0  0.29597  0.03409  0.01739  1.0000
  F   F294      1.0  0.28935  0.02176  0.52438  1.0000
  F   F295      1.0  0.28526  0.52857  0.03126  1.0000
  F   F296      1.0  0.30003  0.53206  0.52416  1.0000
  F   F297      1.0  0.54283  0.02976  0.03426  1.0000
  F   F298      1.0  0.54356  0.01712  0.51591  1.0000
  F   F299      1.0  0.54453  0.52278  0.02409  1.0000
  F   F300      1.0  0.53951  0.53191  0.52665  1.0000
  F   F301      1.0  0.78884  0.03895  0.01517  1.0000
  F   F302      1.0  0.78875  0.03318  0.52507  1.0000
  F   F303      1.0  0.80102  0.52751  0.01381  1.0000
  F   F304      1.0  0.78419  0.53472  0.53625  1.0000
  F   F305      1.0  0.23360  0.41582  0.23296  1.0000
  F   F306      1.0  0.24001  0.40418  0.71435  1.0000
  F   F307      1.0  0.23527  0.91023  0.24120  1.0000
  F   F308      1.0  0.22697  0.92674  0.71395  1.0000
  F   F309      1.0  0.48309  0.39647  0.23396  1.0000
  F   F310      1.0  0.48587  0.40906  0.72427  1.0000
  F   F311      1.0  0.48046  0.90717  0.24103  1.0000
  F   F312      1.0  0.48341  0.91733  0.72889  1.0000
  F   F313      1.0  0.73314  0.41763  0.21189  1.0000
  F   F314      1.0  0.72927  0.41641  0.73210  1.0000
  F   F315      1.0  0.73509  0.92263  0.21071  1.0000
  F   F316      1.0  0.73498  0.91664  0.72932  1.0000
  F   F317      1.0  0.97961  0.40481  0.21615  1.0000
  F   F318      1.0  0.98887  0.40149  0.73241  1.0000
  F   F319      1.0  0.98880  0.91720  0.23704  1.0000
  F   F320      1.0  0.98357  0.90668  0.72600  1.0000
  F   F321      1.0  0.20811  0.47419  0.49140  1.0000
  F   F322      1.0  0.21665  0.47111  0.96357  1.0000
  F   F323      1.0  0.20718  0.95789  0.47910  1.0000
  F   F324      1.0  0.20573  0.98291  0.96870  1.0000
  F   F325      1.0  0.46266  0.47749  0.47060  1.0000
  F   F326      1.0  0.45653  0.46855  0.99755  1.0000
  F   F327      1.0  0.45332  0.95812  0.49637  1.0000
  F   F328      1.0  0.46415  0.96267  0.98491  1.0000
  F   F329      1.0  0.71257  0.47759  0.46227  1.0000
  F   F330      1.0  0.70301  0.48619  0.97663  1.0000
  F   F331      1.0  0.71147  0.97445  0.46009  1.0000
  F   F332      1.0  0.71310  0.96773  0.96615  1.0000
  F   F333      1.0  0.95701  0.46961  0.46964  1.0000
  F   F334      1.0  0.96533  0.48385  0.96557  1.0000
  F   F335      1.0  0.95835  0.98138  0.46895  1.0000
  F   F336      1.0  0.96236  0.97351  0.97330  1.0000
  F   F337      1.0  0.01249  0.09068  0.26470  1.0000
  F   F338      1.0  0.01487  0.09175  0.76027  1.0000
  F   F339      1.0  0.01470  0.59344  0.26930  1.0000
  F   F340      1.0  0.01709  0.58582  0.77241  1.0000
  F   F341      1.0  0.26225  0.10587  0.27503  1.0000
  F   F342      1.0  0.27021  0.07719  0.77056  1.0000
  F   F343      1.0  0.25828  0.59245  0.27019  1.0000
  F   F344      1.0  0.26267  0.59244  0.75663  1.0000
  F   F345      1.0  0.51448  0.07537  0.29319  1.0000
  F   F346      1.0  0.51642  0.08130  0.76376  1.0000
  F   F347      1.0  0.51450  0.57944  0.26688  1.0000
  F   F348      1.0  0.51577  0.58264  0.78757  1.0000
  F   F349      1.0  0.77380  0.07255  0.27584  1.0000
  F   F350      1.0  0.76409  0.08807  0.76688  1.0000
  F   F351      1.0  0.76513  0.59691  0.27078  1.0000
  F   F352      1.0  0.76250  0.58225  0.77844  1.0000
  F   F353      1.0  0.10045  0.36995  0.47134  1.0000
  F   F354      1.0  0.10391  0.41008  0.96406  1.0000
  F   F355      1.0  0.10102  0.92495  0.45674  1.0000
  F   F356      1.0  0.09907  0.91061  0.96067  1.0000
  F   F357      1.0  0.35621  0.41093  0.45259  1.0000
  F   F358      1.0  0.34813  0.40764  0.96820  1.0000
  F   F359      1.0  0.34890  0.91083  0.46528  1.0000
  F   F360      1.0  0.35204  0.91347  0.95228  1.0000
  F   F361      1.0  0.60574  0.42462  0.44299  1.0000
  F   F362      1.0  0.60594  0.38679  0.97192  1.0000
  F   F363      1.0  0.59731  0.89684  0.45731  1.0000
  F   F364      1.0  0.59716  0.90108  0.96920  1.0000
  F   F365      1.0  0.85177  0.41047  0.46504  1.0000
  F   F366      1.0  0.85232  0.38175  0.96205  1.0000
  F   F367      1.0  0.84774  0.92174  0.44855  1.0000
  F   F368      1.0  0.85227  0.91298  0.96639  1.0000
  F   F369      1.0  0.04442  0.32501  0.26743  1.0000
  F   F370      1.0  0.05549  0.30047  0.78822  1.0000
  F   F371      1.0  0.05192  0.79105  0.29362  1.0000
  F   F372      1.0  0.04561  0.81242  0.78101  1.0000
  F   F373      1.0  0.29408  0.30358  0.29221  1.0000
  F   F374      1.0  0.30096  0.29119  0.76881  1.0000
  F   F375      1.0  0.29182  0.80020  0.29399  1.0000
  F   F376      1.0  0.28636  0.79017  0.79134  1.0000
  F   F377      1.0  0.54068  0.29257  0.29887  1.0000
  F   F378      1.0  0.54665  0.28681  0.77245  1.0000
  F   F379      1.0  0.54799  0.79254  0.28705  1.0000
  F   F380      1.0  0.54122  0.79210  0.78164  1.0000
  F   F381      1.0  0.80397  0.31022  0.27147  1.0000
  F   F382      1.0  0.79369  0.30979  0.77864  1.0000
  F   F383      1.0  0.79518  0.80492  0.29197  1.0000
  F   F384      1.0  0.79938  0.79633  0.78598  1.0000
