data_image0
_chemical_formula_structural       Hf96F384
_chemical_formula_sum              "Hf96 F384"
_cell_length_a       31.0386
_cell_length_b       15.5165
_cell_length_c       15.5115
_cell_angle_alpha    63.342
_cell_angle_beta     63.342
_cell_angle_gamma    80.1625

_space_group_name_H-M_alt    "P 1"
_space_group_IT_number       1

loop_
  _space_group_symop_operation_xyz
  'x, y, z'

loop_
  _atom_site_type_symbol
  _atom_site_label
  _atom_site_symmetry_multiplicity
  _atom_site_fract_x
  _atom_site_fract_y
  _atom_site_fract_z
  _atom_site_occupancy
  Hf  Hf1       1.0  0.19709  0.11514  0.36089  1.0000
  Hf  Hf2       1.0  0.19935  0.10870  0.87333  1.0000
  Hf  Hf3       1.0  0.19684  0.61125  0.37503  1.0000
  Hf  Hf4       1.0  0.19656  0.62382  0.86196  1.0000
  Hf  Hf5       1.0  0.44460  0.10664  0.37813  1.0000
  Hf  Hf6       1.0  0.44753  0.10651  0.88121  1.0000
  Hf  Hf7       1.0  0.44792  0.60384  0.37041  1.0000
  Hf  Hf8       1.0  0.44539  0.60589  0.87748  1.0000
  Hf  Hf9       1.0  0.69767  0.10277  0.36940  1.0000
  Hf  Hf10      1.0  0.69491  0.10453  0.88808  1.0000
  Hf  Hf11      1.0  0.69883  0.60232  0.37061  1.0000
  Hf  Hf12      1.0  0.69613  0.60886  0.87555  1.0000
  Hf  Hf13      1.0  0.94494  0.10396  0.37587  1.0000
  Hf  Hf14      1.0  0.94661  0.11186  0.87181  1.0000
  Hf  Hf15      1.0  0.94414  0.60460  0.37664  1.0000
  Hf  Hf16      1.0  0.94868  0.60395  0.87063  1.0000
  Hf  Hf17      1.0  0.05249  0.38985  0.13278  1.0000
  Hf  Hf18      1.0  0.05351  0.40139  0.61440  1.0000
  Hf  Hf19      1.0  0.05033  0.90183  0.13135  1.0000
  Hf  Hf20      1.0  0.05493  0.90057  0.61809  1.0000
  Hf  Hf21      1.0  0.30772  0.39939  0.11682  1.0000
  Hf  Hf22      1.0  0.30640  0.40130  0.62177  1.0000
  Hf  Hf23      1.0  0.30405  0.89570  0.12043  1.0000
  Hf  Hf24      1.0  0.30273  0.89162  0.63727  1.0000
  Hf  Hf25      1.0  0.55639  0.38939  0.12370  1.0000
  Hf  Hf26      1.0  0.55599  0.38262  0.63139  1.0000
  Hf  Hf27      1.0  0.54641  0.88830  0.14258  1.0000
  Hf  Hf28      1.0  0.55143  0.89240  0.62438  1.0000
  Hf  Hf29      1.0  0.80114  0.38523  0.13140  1.0000
  Hf  Hf30      1.0  0.80401  0.39011  0.62047  1.0000
  Hf  Hf31      1.0  0.80362  0.88878  0.12464  1.0000
  Hf  Hf32      1.0  0.80612  0.88899  0.62987  1.0000
  Hf  Hf33      1.0  0.05513  0.19723  0.41063  1.0000
  Hf  Hf34      1.0  0.05768  0.18252  0.91410  1.0000
  Hf  Hf35      1.0  0.05294  0.67835  0.41864  1.0000
  Hf  Hf36      1.0  0.05239  0.68886  0.91478  1.0000
  Hf  Hf37      1.0  0.30657  0.18809  0.41607  1.0000
  Hf  Hf38      1.0  0.30992  0.18887  0.91259  1.0000
  Hf  Hf39      1.0  0.30523  0.68471  0.42073  1.0000
  Hf  Hf40      1.0  0.30189  0.68580  0.92163  1.0000
  Hf  Hf41      1.0  0.55770  0.18448  0.41614  1.0000
  Hf  Hf42      1.0  0.55590  0.17744  0.92163  1.0000
  Hf  Hf43      1.0  0.55337  0.66767  0.42758  1.0000
  Hf  Hf44      1.0  0.55535  0.67292  0.92059  1.0000
  Hf  Hf45      1.0  0.80538  0.17811  0.41712  1.0000
  Hf  Hf46      1.0  0.80800  0.17651  0.91333  1.0000
  Hf  Hf47      1.0  0.80635  0.66992  0.41928  1.0000
  Hf  Hf48      1.0  0.80685  0.67076  0.92437  1.0000
  Hf  Hf49      1.0  0.15910  0.39799  0.32689  1.0000
  Hf  Hf50      1.0  0.16057  0.39513  0.82796  1.0000
  Hf  Hf51      1.0  0.15780  0.89840  0.32557  1.0000
  Hf  Hf52      1.0  0.15553  0.89785  0.82821  1.0000
  Hf  Hf53      1.0  0.40818  0.38492  0.33949  1.0000
  Hf  Hf54      1.0  0.41216  0.38676  0.82923  1.0000
  Hf  Hf55      1.0  0.40541  0.88281  0.34587  1.0000
  Hf  Hf56      1.0  0.40512  0.89209  0.83472  1.0000
  Hf  Hf57      1.0  0.65980  0.38843  0.33369  1.0000
  Hf  Hf58      1.0  0.65939  0.38270  0.83497  1.0000
  Hf  Hf59      1.0  0.65696  0.87653  0.33650  1.0000
  Hf  Hf60      1.0  0.66176  0.89508  0.82915  1.0000
  Hf  Hf61      1.0  0.90863  0.38385  0.32935  1.0000
  Hf  Hf62      1.0  0.90892  0.38445  0.83463  1.0000
  Hf  Hf63      1.0  0.90401  0.88347  0.33794  1.0000
  Hf  Hf64      1.0  0.91139  0.89176  0.82788  1.0000
  Hf  Hf65      1.0  0.19800  0.32925  0.07931  1.0000
  Hf  Hf66      1.0  0.19744  0.31898  0.58357  1.0000
  Hf  Hf67      1.0  0.19157  0.81644  0.08585  1.0000
  Hf  Hf68      1.0  0.19324  0.82438  0.57850  1.0000
  Hf  Hf69      1.0  0.44566  0.31804  0.08087  1.0000
  Hf  Hf70      1.0  0.44603  0.31718  0.58649  1.0000
  Hf  Hf71      1.0  0.43940  0.81900  0.08994  1.0000
  Hf  Hf72      1.0  0.44231  0.81675  0.58699  1.0000
  Hf  Hf73      1.0  0.69660  0.30871  0.07979  1.0000
  Hf  Hf74      1.0  0.69573  0.31321  0.58717  1.0000
  Hf  Hf75      1.0  0.69255  0.81818  0.08335  1.0000
  Hf  Hf76      1.0  0.69819  0.81032  0.58421  1.0000
  Hf  Hf77      1.0  0.94388  0.31266  0.08218  1.0000
  Hf  Hf78      1.0  0.94380  0.32133  0.58009  1.0000
  Hf  Hf79      1.0  0.94482  0.82165  0.07892  1.0000
  Hf  Hf80      1.0  0.94673  0.82224  0.58215  1.0000
  Hf  Hf81      1.0  0.09183  0.12117  0.16190  1.0000
  Hf  Hf82      1.0  0.09241  0.12575  0.65359  1.0000
  Hf  Hf83      1.0  0.09060  0.61989  0.15429  1.0000
  Hf  Hf84      1.0  0.08908  0.61899  0.66907  1.0000
  Hf  Hf85      1.0  0.34143  0.10986  0.16901  1.0000
  Hf  Hf86      1.0  0.34226  0.12244  0.66129  1.0000
  Hf  Hf87      1.0  0.34195  0.61278  0.17315  1.0000
  Hf  Hf88      1.0  0.34571  0.60968  0.66650  1.0000
  Hf  Hf89      1.0  0.59199  0.09906  0.16910  1.0000
  Hf  Hf90      1.0  0.58750  0.10943  0.66631  1.0000
  Hf  Hf91      1.0  0.59097  0.61150  0.16350  1.0000
  Hf  Hf92      1.0  0.58863  0.60681  0.67188  1.0000
  Hf  Hf93      1.0  0.84087  0.10801  0.16555  1.0000
  Hf  Hf94      1.0  0.84076  0.11385  0.66625  1.0000
  Hf  Hf95      1.0  0.84908  0.61025  0.16075  1.0000
  Hf  Hf96      1.0  0.83910  0.59799  0.67985  1.0000
  F   F1        1.0  0.07684  0.14315  0.29801  1.0000
  F   F2        1.0  0.08050  0.13681  0.80264  1.0000
  F   F3        1.0  0.07436  0.62349  0.30127  1.0000
  F   F4        1.0  0.08071  0.62733  0.80369  1.0000
  F   F5        1.0  0.32798  0.12508  0.30693  1.0000
  F   F6        1.0  0.33671  0.14133  0.78799  1.0000
  F   F7        1.0  0.32296  0.61636  0.31999  1.0000
  F   F8        1.0  0.32998  0.62580  0.80700  1.0000
  F   F9        1.0  0.58177  0.11531  0.30537  1.0000
  F   F10       1.0  0.57805  0.11093  0.81838  1.0000
  F   F11       1.0  0.58069  0.62894  0.30299  1.0000
  F   F12       1.0  0.57793  0.61293  0.81021  1.0000
  F   F13       1.0  0.83621  0.14105  0.29012  1.0000
  F   F14       1.0  0.82513  0.12232  0.81100  1.0000
  F   F15       1.0  0.83900  0.62125  0.30767  1.0000
  F   F16       1.0  0.82869  0.62171  0.80857  1.0000
  F   F17       1.0  0.18429  0.33781  0.45563  1.0000
  F   F18       1.0  0.18503  0.34726  0.94010  1.0000
  F   F19       1.0  0.17896  0.84738  0.44605  1.0000
  F   F20       1.0  0.18046  0.83496  0.95247  1.0000
  F   F21       1.0  0.42949  0.35014  0.45740  1.0000
  F   F22       1.0  0.43366  0.32242  0.95409  1.0000
  F   F23       1.0  0.44334  0.84035  0.43925  1.0000
  F   F24       1.0  0.43230  0.83547  0.95702  1.0000
  F   F25       1.0  0.68332  0.34094  0.45063  1.0000
  F   F26       1.0  0.68282  0.32839  0.95902  1.0000
  F   F27       1.0  0.68823  0.82519  0.44833  1.0000
  F   F28       1.0  0.69012  0.85219  0.94239  1.0000
  F   F29       1.0  0.93496  0.32722  0.45141  1.0000
  F   F30       1.0  0.93657  0.34439  0.94203  1.0000
  F   F31       1.0  0.92486  0.83550  0.45967  1.0000
  F   F32       1.0  0.94095  0.84458  0.93772  1.0000
  F   F33       1.0  0.17626  0.39694  0.18116  1.0000
  F   F34       1.0  0.17843  0.38562  0.68864  1.0000
  F   F35       1.0  0.16640  0.86916  0.19935  1.0000
  F   F36       1.0  0.17113  0.89420  0.68981  1.0000
  F   F37       1.0  0.41655  0.37061  0.19878  1.0000
  F   F38       1.0  0.42563  0.38385  0.68385  1.0000
  F   F39       1.0  0.40895  0.85799  0.20698  1.0000
  F   F40       1.0  0.41470  0.86272  0.70244  1.0000
  F   F41       1.0  0.67374  0.35807  0.20170  1.0000
  F   F42       1.0  0.67308  0.37055  0.70199  1.0000
  F   F43       1.0  0.66913  0.87342  0.19448  1.0000
  F   F44       1.0  0.66802  0.85496  0.69895  1.0000
  F   F45       1.0  0.92353  0.38217  0.18833  1.0000
  F   F46       1.0  0.92133  0.38236  0.68206  1.0000
  F   F47       1.0  0.91707  0.87117  0.20441  1.0000
  F   F48       1.0  0.91701  0.88319  0.69569  1.0000
  F   F49       1.0  0.06321  0.16619  0.05519  1.0000
  F   F50       1.0  0.06022  0.16579  0.55835  1.0000
  F   F51       1.0  0.06823  0.67236  0.03862  1.0000
  F   F52       1.0  0.06375  0.67353  0.55225  1.0000
  F   F53       1.0  0.31421  0.15955  0.04954  1.0000
  F   F54       1.0  0.31452  0.15601  0.55759  1.0000
  F   F55       1.0  0.31459  0.66381  0.05161  1.0000
  F   F56       1.0  0.31601  0.64102  0.55827  1.0000
  F   F57       1.0  0.56262  0.13615  0.06355  1.0000
  F   F58       1.0  0.56078  0.15614  0.55762  1.0000
  F   F59       1.0  0.56781  0.65452  0.05354  1.0000
  F   F60       1.0  0.56207  0.62987  0.56160  1.0000
  F   F61       1.0  0.81255  0.14555  0.05419  1.0000
  F   F62       1.0  0.80957  0.15610  0.55425  1.0000
  F   F63       1.0  0.81725  0.64748  0.05359  1.0000
  F   F64       1.0  0.81041  0.65647  0.57376  1.0000
  F   F65       1.0  0.21389  0.21008  0.19577  1.0000
  F   F66       1.0  0.20371  0.20276  0.71700  1.0000
  F   F67       1.0  0.20573  0.70503  0.20056  1.0000
  F   F68       1.0  0.19757  0.70998  0.70345  1.0000
  F   F69       1.0  0.45972  0.21232  0.20373  1.0000
  F   F70       1.0  0.44676  0.18701  0.71166  1.0000
  F   F71       1.0  0.45688  0.69843  0.21167  1.0000
  F   F72       1.0  0.45053  0.70152  0.71344  1.0000
  F   F73       1.0  0.70619  0.18723  0.20603  1.0000
  F   F74       1.0  0.70014  0.19416  0.71437  1.0000
  F   F75       1.0  0.69232  0.69725  0.21110  1.0000
  F   F76       1.0  0.70561  0.69877  0.72597  1.0000
  F   F77       1.0  0.95450  0.19604  0.20826  1.0000
  F   F78       1.0  0.94996  0.21163  0.72234  1.0000
  F   F79       1.0  0.94545  0.70673  0.21470  1.0000
  F   F80       1.0  0.96758  0.70775  0.70245  1.0000
  F   F81       1.0  0.15431  0.09762  0.03480  1.0000
  F   F82       1.0  0.15229  0.10412  0.53139  1.0000
  F   F83       1.0  0.15457  0.60893  0.02760  1.0000
  F   F84       1.0  0.15101  0.58103  0.53407  1.0000
  F   F85       1.0  0.40481  0.09807  0.04569  1.0000
  F   F86       1.0  0.40244  0.09330  0.53115  1.0000
  F   F87       1.0  0.40015  0.60780  0.04555  1.0000
  F   F88       1.0  0.40606  0.59502  0.53363  1.0000
  F   F89       1.0  0.64392  0.07286  0.04137  1.0000
  F   F90       1.0  0.64462  0.08509  0.53253  1.0000
  F   F91       1.0  0.64804  0.57666  0.03889  1.0000
  F   F92       1.0  0.64801  0.60256  0.55411  1.0000
  F   F93       1.0  0.89863  0.08507  0.03999  1.0000
  F   F94       1.0  0.89618  0.08435  0.54709  1.0000
  F   F95       1.0  0.90307  0.59085  0.03582  1.0000
  F   F96       1.0  0.90023  0.59159  0.54794  1.0000
  F   F97       1.0  0.15241  0.19283  0.12776  1.0000
  F   F98       1.0  0.15577  0.19684  0.62688  1.0000
  F   F99       1.0  0.14986  0.69290  0.13612  1.0000
  F   F100      1.0  0.14735  0.70489  0.61171  1.0000
  F   F101      1.0  0.40002  0.19961  0.14123  1.0000
  F   F102      1.0  0.40213  0.20007  0.61173  1.0000
  F   F103      1.0  0.39352  0.70536  0.14442  1.0000
  F   F104      1.0  0.40154  0.69575  0.62558  1.0000
  F   F105      1.0  0.64832  0.18868  0.13337  1.0000
  F   F106      1.0  0.65261  0.17666  0.61931  1.0000
  F   F107      1.0  0.64639  0.69846  0.11045  1.0000
  F   F108      1.0  0.65465  0.70215  0.63074  1.0000
  F   F109      1.0  0.90443  0.19310  0.11456  1.0000
  F   F110      1.0  0.90339  0.18922  0.63592  1.0000
  F   F111      1.0  0.90944  0.69754  0.11134  1.0000
  F   F112      1.0  0.89896  0.71062  0.65769  1.0000
  F   F113      1.0  0.09697  0.31977  0.38257  1.0000
  F   F114      1.0  0.09988  0.31427  0.85298  1.0000
  F   F115      1.0  0.09638  0.81526  0.38259  1.0000
  F   F116      1.0  0.09836  0.81482  0.86462  1.0000
  F   F117      1.0  0.34359  0.31330  0.39601  1.0000
  F   F118      1.0  0.35960  0.29646  0.86726  1.0000
  F   F119      1.0  0.34290  0.79840  0.40034  1.0000
  F   F120      1.0  0.34608  0.80823  0.87830  1.0000
  F   F121      1.0  0.59812  0.30425  0.37930  1.0000
  F   F122      1.0  0.59777  0.29604  0.88048  1.0000
  F   F123      1.0  0.59541  0.78641  0.37386  1.0000
  F   F124      1.0  0.58794  0.79253  0.87439  1.0000
  F   F125      1.0  0.85108  0.30848  0.36334  1.0000
  F   F126      1.0  0.85302  0.28840  0.85155  1.0000
  F   F127      1.0  0.84689  0.78929  0.37609  1.0000
  F   F128      1.0  0.84848  0.79847  0.86302  1.0000
  F   F129      1.0  0.06711  0.26192  0.14302  1.0000
  F   F130      1.0  0.07410  0.26583  0.61521  1.0000
  F   F131      1.0  0.05746  0.75600  0.15100  1.0000
  F   F132      1.0  0.05944  0.75592  0.64736  1.0000
  F   F133      1.0  0.31113  0.25391  0.15736  1.0000
  F   F134      1.0  0.32157  0.26782  0.61568  1.0000
  F   F135      1.0  0.31804  0.75837  0.14010  1.0000
  F   F136      1.0  0.31757  0.74631  0.64550  1.0000
  F   F137      1.0  0.55868  0.24598  0.14577  1.0000
  F   F138      1.0  0.56394  0.24209  0.65942  1.0000
  F   F139      1.0  0.55924  0.74821  0.14576  1.0000
  F   F140      1.0  0.56148  0.74063  0.62957  1.0000
  F   F141      1.0  0.81365  0.24915  0.13400  1.0000
  F   F142      1.0  0.82362  0.25904  0.62314  1.0000
  F   F143      1.0  0.81815  0.74855  0.14304  1.0000
  F   F144      1.0  0.82346  0.74761  0.64272  1.0000
  F   F145      1.0  0.12584  0.36847  0.11614  1.0000
  F   F146      1.0  0.12813  0.36906  0.62561  1.0000
  F   F147      1.0  0.12343  0.88049  0.10959  1.0000
  F   F148      1.0  0.12252  0.86395  0.62170  1.0000
  F   F149      1.0  0.37578  0.37443  0.10501  1.0000
  F   F150      1.0  0.37180  0.35612  0.62986  1.0000
  F   F151      1.0  0.37520  0.89882  0.08417  1.0000
  F   F152      1.0  0.36967  0.85855  0.62620  1.0000
  F   F153      1.0  0.62196  0.36144  0.11593  1.0000
  F   F154      1.0  0.62455  0.35256  0.62168  1.0000
  F   F155      1.0  0.62443  0.87529  0.09644  1.0000
  F   F156      1.0  0.62399  0.87498  0.58600  1.0000
  F   F157      1.0  0.87169  0.35351  0.11849  1.0000
  F   F158      1.0  0.87265  0.37868  0.59367  1.0000
  F   F159      1.0  0.87132  0.87102  0.12127  1.0000
  F   F160      1.0  0.87325  0.88885  0.59923  1.0000
  F   F161      1.0  0.18652  0.25659  0.35141  1.0000
  F   F162      1.0  0.19009  0.25631  0.84692  1.0000
  F   F163      1.0  0.17833  0.75009  0.35848  1.0000
  F   F164      1.0  0.18746  0.75961  0.84124  1.0000
  F   F165      1.0  0.44054  0.25876  0.35490  1.0000
  F   F166      1.0  0.43860  0.24339  0.85013  1.0000
  F   F167      1.0  0.43408  0.75234  0.35082  1.0000
  F   F168      1.0  0.44304  0.75008  0.85629  1.0000
  F   F169      1.0  0.68561  0.23938  0.36238  1.0000
  F   F170      1.0  0.68539  0.24713  0.86132  1.0000
  F   F171      1.0  0.68170  0.73193  0.35864  1.0000
  F   F172      1.0  0.67688  0.75163  0.87241  1.0000
  F   F173      1.0  0.93904  0.24982  0.35290  1.0000
  F   F174      1.0  0.93212  0.24327  0.86778  1.0000
  F   F175      1.0  0.92806  0.74577  0.35773  1.0000
  F   F176      1.0  0.93413  0.74812  0.86036  1.0000
  F   F177      1.0  0.12643  0.13944  0.38691  1.0000
  F   F178      1.0  0.12662  0.13970  0.90097  1.0000
  F   F179      1.0  0.12205  0.63922  0.38857  1.0000
  F   F180      1.0  0.12716  0.64009  0.88028  1.0000
  F   F181      1.0  0.37572  0.15312  0.38173  1.0000
  F   F182      1.0  0.37680  0.11395  0.90569  1.0000
  F   F183      1.0  0.37448  0.63483  0.38277  1.0000
  F   F184      1.0  0.37126  0.62943  0.90868  1.0000
  F   F185      1.0  0.62693  0.13901  0.38310  1.0000
  F   F186      1.0  0.62248  0.11497  0.89917  1.0000
  F   F187      1.0  0.62598  0.60011  0.40255  1.0000
  F   F188      1.0  0.62579  0.63027  0.88338  1.0000
  F   F189      1.0  0.87409  0.12901  0.39930  1.0000
  F   F190      1.0  0.87578  0.11766  0.89792  1.0000
  F   F191      1.0  0.87398  0.61324  0.41494  1.0000
  F   F192      1.0  0.87887  0.61642  0.88667  1.0000
  F   F193      1.0  0.00593  0.35365  0.09569  1.0000
  F   F194      1.0  0.01015  0.36447  0.56325  1.0000
  F   F195      1.0  0.00248  0.87090  0.08241  1.0000
  F   F196      1.0  0.00967  0.88099  0.56220  1.0000
  F   F197      1.0  0.26276  0.38396  0.05758  1.0000
  F   F198      1.0  0.26424  0.35297  0.57636  1.0000
  F   F199      1.0  0.26299  0.86368  0.05802  1.0000
  F   F200      1.0  0.25586  0.85760  0.58517  1.0000
  F   F201      1.0  0.50715  0.38012  0.06144  1.0000
  F   F202      1.0  0.51157  0.35823  0.57210  1.0000
  F   F203      1.0  0.50030  0.86361  0.09206  1.0000
  F   F204      1.0  0.50813  0.87175  0.55714  1.0000
  F   F205      1.0  0.76155  0.36287  0.06951  1.0000
  F   F206      1.0  0.75761  0.35436  0.56863  1.0000
  F   F207      1.0  0.75730  0.84311  0.08158  1.0000
  F   F208      1.0  0.75813  0.84299  0.59988  1.0000
  F   F209      1.0  0.06984  0.49433  0.17090  1.0000
  F   F210      1.0  0.07035  0.50139  0.64296  1.0000
  F   F211      1.0  0.06836  0.99594  0.17051  1.0000
  F   F212      1.0  0.06600  0.00016  0.66818  1.0000
  F   F213      1.0  0.31806  0.48994  0.16840  1.0000
  F   F214      1.0  0.32185  0.48641  0.68043  1.0000
  F   F215      1.0  0.31368  0.99302  0.17314  1.0000
  F   F216      1.0  0.32298  0.98504  0.67017  1.0000
  F   F217      1.0  0.56442  0.47931  0.19363  1.0000
  F   F218      1.0  0.57248  0.47903  0.68307  1.0000
  F   F219      1.0  0.56302  0.96761  0.20957  1.0000
  F   F220      1.0  0.57064  0.97216  0.68266  1.0000
  F   F221      1.0  0.82000  0.48660  0.18522  1.0000
  F   F222      1.0  0.81443  0.46830  0.70175  1.0000
  F   F223      1.0  0.81190  0.97945  0.17834  1.0000
  F   F224      1.0  0.81219  0.98206  0.69103  1.0000
  F   F225      1.0  0.24445  0.14655  0.40262  1.0000
  F   F226      1.0  0.24768  0.13647  0.92422  1.0000
  F   F227      1.0  0.24447  0.64808  0.41152  1.0000
  F   F228      1.0  0.23987  0.63908  0.92510  1.0000
  F   F229      1.0  0.49393  0.13821  0.41060  1.0000
  F   F230      1.0  0.49144  0.13642  0.93656  1.0000
  F   F231      1.0  0.49280  0.63338  0.42317  1.0000
  F   F232      1.0  0.49041  0.61380  0.94310  1.0000
  F   F233      1.0  0.74143  0.13251  0.42827  1.0000
  F   F234      1.0  0.73909  0.14510  0.93530  1.0000
  F   F235      1.0  0.74474  0.62098  0.42215  1.0000
  F   F236      1.0  0.74024  0.62654  0.93288  1.0000
  F   F237      1.0  0.99040  0.14057  0.41950  1.0000
  F   F238      1.0  0.98641  0.13374  0.94905  1.0000
  F   F239      1.0  0.99247  0.63911  0.42247  1.0000
  F   F240      1.0  0.99552  0.63698  0.91320  1.0000
  F   F241      1.0  0.18108  0.02762  0.31019  1.0000
  F   F242      1.0  0.18105  0.01338  0.83091  1.0000
  F   F243      1.0  0.18178  0.52409  0.32598  1.0000
  F   F244      1.0  0.17592  0.52241  0.81623  1.0000
  F   F245      1.0  0.42371  0.02649  0.33205  1.0000
  F   F246      1.0  0.43214  0.00331  0.83436  1.0000
  F   F247      1.0  0.43975  0.52708  0.30337  1.0000
  F   F248      1.0  0.43340  0.51569  0.81371  1.0000
  F   F249      1.0  0.68051  0.99948  0.33923  1.0000
  F   F250      1.0  0.68044  0.02017  0.82543  1.0000
  F   F251      1.0  0.69101  0.50721  0.31303  1.0000
  F   F252      1.0  0.68537  0.50808  0.81964  1.0000
  F   F253      1.0  0.92175  0.00605  0.34460  1.0000
  F   F254      1.0  0.93514  0.02209  0.81423  1.0000
  F   F255      1.0  0.92675  0.51158  0.32918  1.0000
  F   F256      1.0  0.93268  0.51789  0.82287  1.0000
  F   F257      1.0  0.01080  0.27058  0.98673  1.0000
  F   F258      1.0  0.99976  0.25074  0.50158  1.0000
  F   F259      1.0  0.99761  0.74388  0.00548  1.0000
  F   F260      1.0  0.99422  0.74698  0.50154  1.0000
  F   F261      1.0  0.24778  0.25755  0.99143  1.0000
  F   F262      1.0  0.24729  0.23095  0.51566  1.0000
  F   F263      1.0  0.24971  0.75210  0.00391  1.0000
  F   F264      1.0  0.25026  0.75639  0.49519  1.0000
  F   F265      1.0  0.50654  0.25840  0.99748  1.0000
  F   F266      1.0  0.49850  0.23686  0.51228  1.0000
  F   F267      1.0  0.49109  0.74364  0.00392  1.0000
  F   F268      1.0  0.49555  0.72796  0.51428  1.0000
  F   F269      1.0  0.76342  0.26410  0.98513  1.0000
  F   F270      1.0  0.75123  0.25096  0.49513  1.0000
  F   F271      1.0  0.74976  0.73852  0.00160  1.0000
  F   F272      1.0  0.74680  0.71881  0.51987  1.0000
  F   F273      1.0  0.12315  0.00293  0.24856  1.0000
  F   F274      1.0  0.12541  0.01296  0.74382  1.0000
  F   F275      1.0  0.12439  0.50661  0.23864  1.0000
  F   F276      1.0  0.12321  0.50349  0.74328  1.0000
  F   F277      1.0  0.37146  0.99505  0.25680  1.0000
  F   F278      1.0  0.38012  0.00925  0.73546  1.0000
  F   F279      1.0  0.37219  0.49483  0.25667  1.0000
  F   F280      1.0  0.36918  0.49667  0.76082  1.0000
  F   F281      1.0  0.62884  0.99431  0.24960  1.0000
  F   F282      1.0  0.63100  0.00229  0.74167  1.0000
  F   F283      1.0  0.62665  0.49597  0.24549  1.0000
  F   F284      1.0  0.62459  0.49694  0.75480  1.0000
  F   F285      1.0  0.86165  0.98801  0.27036  1.0000
  F   F286      1.0  0.86390  0.99145  0.76526  1.0000
  F   F287      1.0  0.88550  0.50576  0.23754  1.0000
  F   F288      1.0  0.87452  0.48337  0.76335  1.0000
  F   F289      1.0  0.04416  0.03570  0.01663  1.0000
  F   F290      1.0  0.03983  0.04265  0.51902  1.0000
  F   F291      1.0  0.03556  0.54188  0.02370  1.0000
  F   F292      1.0  0.03751  0.53673  0.51519  1.0000
  F   F293      1.0  0.29596  0.03421  0.01539  1.0000
  F   F294      1.0  0.29956  0.03167  0.51914  1.0000
  F   F295      1.0  0.28664  0.54132  0.02608  1.0000
  F   F296      1.0  0.28969  0.53556  0.51727  1.0000
  F   F297      1.0  0.54985  0.01129  0.02426  1.0000
  F   F298      1.0  0.55516  0.03070  0.50417  1.0000
  F   F299      1.0  0.54678  0.52982  0.03521  1.0000
  F   F300      1.0  0.53764  0.50819  0.54183  1.0000
  F   F301      1.0  0.79595  0.01997  0.02006  1.0000
  F   F302      1.0  0.79034  0.03180  0.53157  1.0000
  F   F303      1.0  0.79549  0.52370  0.03437  1.0000
  F   F304      1.0  0.79153  0.52969  0.52775  1.0000
  F   F305      1.0  0.23549  0.40786  0.23917  1.0000
  F   F306      1.0  0.24034  0.42073  0.72217  1.0000
  F   F307      1.0  0.23027  0.92102  0.22299  1.0000
  F   F308      1.0  0.23302  0.90996  0.73722  1.0000
  F   F309      1.0  0.49173  0.40748  0.22359  1.0000
  F   F310      1.0  0.48631  0.40215  0.73646  1.0000
  F   F311      1.0  0.47558  0.92297  0.22873  1.0000
  F   F312      1.0  0.48071  0.92549  0.71244  1.0000
  F   F313      1.0  0.73347  0.40078  0.23107  1.0000
  F   F314      1.0  0.73267  0.41829  0.71242  1.0000
  F   F315      1.0  0.73498  0.91356  0.22548  1.0000
  F   F316      1.0  0.73147  0.93112  0.71799  1.0000
  F   F317      1.0  0.98296  0.41391  0.23990  1.0000
  F   F318      1.0  0.98227  0.42493  0.71058  1.0000
  F   F319      1.0  0.98511  0.93400  0.22674  1.0000
  F   F320      1.0  0.98660  0.91489  0.72216  1.0000
  F   F321      1.0  0.21342  0.45747  0.47557  1.0000
  F   F322      1.0  0.20910  0.47363  0.96725  1.0000
  F   F323      1.0  0.20684  0.96762  0.47216  1.0000
  F   F324      1.0  0.20682  0.97042  0.97545  1.0000
  F   F325      1.0  0.46046  0.47176  0.47301  1.0000
  F   F326      1.0  0.45167  0.46004  0.97554  1.0000
  F   F327      1.0  0.44394  0.96759  0.49030  1.0000
  F   F328      1.0  0.46255  0.96785  0.97131  1.0000
  F   F329      1.0  0.69967  0.46457  0.49160  1.0000
  F   F330      1.0  0.70569  0.45139  0.97627  1.0000
  F   F331      1.0  0.71229  0.96957  0.47040  1.0000
  F   F332      1.0  0.70970  0.96822  0.97941  1.0000
  F   F333      1.0  0.95381  0.46149  0.47192  1.0000
  F   F334      1.0  0.95658  0.45695  0.97707  1.0000
  F   F335      1.0  0.96344  0.97251  0.47044  1.0000
  F   F336      1.0  0.96178  0.97095  0.96883  1.0000
  F   F337      1.0  0.01568  0.08911  0.27480  1.0000
  F   F338      1.0  0.01498  0.10208  0.75719  1.0000
  F   F339      1.0  0.00974  0.59078  0.26975  1.0000
  F   F340      1.0  0.01977  0.57086  0.78053  1.0000
  F   F341      1.0  0.26517  0.08806  0.26596  1.0000
  F   F342      1.0  0.26743  0.09122  0.76078  1.0000
  F   F343      1.0  0.26900  0.59797  0.26633  1.0000
  F   F344      1.0  0.25976  0.59692  0.76576  1.0000
  F   F345      1.0  0.51399  0.08318  0.26961  1.0000
  F   F346      1.0  0.51553  0.09306  0.77662  1.0000
  F   F347      1.0  0.51464  0.57999  0.28350  1.0000
  F   F348      1.0  0.51565  0.59359  0.76859  1.0000
  F   F349      1.0  0.77079  0.08475  0.26878  1.0000
  F   F350      1.0  0.75970  0.09797  0.78117  1.0000
  F   F351      1.0  0.76358  0.60213  0.25377  1.0000
  F   F352      1.0  0.76438  0.57634  0.78259  1.0000
  F   F353      1.0  0.10196  0.43024  0.45611  1.0000
  F   F354      1.0  0.10054  0.41942  0.95922  1.0000
  F   F355      1.0  0.09970  0.92652  0.46732  1.0000
  F   F356      1.0  0.09366  0.91185  0.96810  1.0000
  F   F357      1.0  0.35975  0.42572  0.46275  1.0000
  F   F358      1.0  0.35843  0.41013  0.95889  1.0000
  F   F359      1.0  0.35414  0.89888  0.47797  1.0000
  F   F360      1.0  0.34956  0.92003  0.95269  1.0000
  F   F361      1.0  0.60179  0.40546  0.46913  1.0000
  F   F362      1.0  0.60006  0.41018  0.94686  1.0000
  F   F363      1.0  0.59805  0.89503  0.44906  1.0000
  F   F364      1.0  0.60190  0.88946  0.94485  1.0000
  F   F365      1.0  0.84613  0.41373  0.44823  1.0000
  F   F366      1.0  0.85724  0.40116  0.96898  1.0000
  F   F367      1.0  0.84282  0.89916  0.46447  1.0000
  F   F368      1.0  0.85423  0.90248  0.94822  1.0000
  F   F369      1.0  0.03941  0.31124  0.29073  1.0000
  F   F370      1.0  0.04177  0.28832  0.78427  1.0000
  F   F371      1.0  0.04000  0.80277  0.29925  1.0000
  F   F372      1.0  0.04715  0.80075  0.79072  1.0000
  F   F373      1.0  0.30259  0.30945  0.29691  1.0000
  F   F374      1.0  0.29796  0.30052  0.79123  1.0000
  F   F375      1.0  0.30000  0.80548  0.27460  1.0000
  F   F376      1.0  0.28883  0.80336  0.80012  1.0000
  F   F377      1.0  0.54995  0.28878  0.28788  1.0000
  F   F378      1.0  0.54332  0.29688  0.79220  1.0000
  F   F379      1.0  0.54492  0.79002  0.28672  1.0000
  F   F380      1.0  0.54443  0.78963  0.77213  1.0000
  F   F381      1.0  0.79559  0.29433  0.29520  1.0000
  F   F382      1.0  0.79736  0.30201  0.78026  1.0000
  F   F383      1.0  0.78891  0.79047  0.30745  1.0000
  F   F384      1.0  0.78729  0.78756  0.79522  1.0000
