data_image0
_chemical_formula_structural       Hf96F384
_chemical_formula_sum              "Hf96 F384"
_cell_length_a       31.0464
_cell_length_b       15.5151
_cell_length_c       15.5105
_cell_angle_alpha    63.342
_cell_angle_beta     63.342
_cell_angle_gamma    80.1625

_space_group_name_H-M_alt    "P 1"
_space_group_IT_number       1

loop_
  _space_group_symop_operation_xyz
  'x, y, z'

loop_
  _atom_site_type_symbol
  _atom_site_label
  _atom_site_symmetry_multiplicity
  _atom_site_fract_x
  _atom_site_fract_y
  _atom_site_fract_z
  _atom_site_occupancy
  Hf  Hf1       1.0  0.19612  0.11818  0.37924  1.0000
  Hf  Hf2       1.0  0.19669  0.11222  0.86363  1.0000
  Hf  Hf3       1.0  0.19764  0.61709  0.36292  1.0000
  Hf  Hf4       1.0  0.19839  0.61165  0.86193  1.0000
  Hf  Hf5       1.0  0.44061  0.10303  0.39194  1.0000
  Hf  Hf6       1.0  0.44577  0.10381  0.87019  1.0000
  Hf  Hf7       1.0  0.44330  0.60591  0.37780  1.0000
  Hf  Hf8       1.0  0.44640  0.60997  0.86741  1.0000
  Hf  Hf9       1.0  0.69488  0.10775  0.37512  1.0000
  Hf  Hf10      1.0  0.69217  0.09952  0.88267  1.0000
  Hf  Hf11      1.0  0.69382  0.60861  0.37382  1.0000
  Hf  Hf12      1.0  0.69889  0.60085  0.88031  1.0000
  Hf  Hf13      1.0  0.94533  0.10602  0.37521  1.0000
  Hf  Hf14      1.0  0.94083  0.09847  0.88907  1.0000
  Hf  Hf15      1.0  0.94841  0.60994  0.37003  1.0000
  Hf  Hf16      1.0  0.95058  0.60872  0.87317  1.0000
  Hf  Hf17      1.0  0.05667  0.39997  0.10985  1.0000
  Hf  Hf18      1.0  0.05331  0.39472  0.62360  1.0000
  Hf  Hf19      1.0  0.04874  0.88788  0.13101  1.0000
  Hf  Hf20      1.0  0.05335  0.89466  0.61800  1.0000
  Hf  Hf21      1.0  0.30241  0.39149  0.12922  1.0000
  Hf  Hf22      1.0  0.30292  0.39084  0.63147  1.0000
  Hf  Hf23      1.0  0.30629  0.89884  0.12012  1.0000
  Hf  Hf24      1.0  0.30374  0.89535  0.62138  1.0000
  Hf  Hf25      1.0  0.55305  0.38764  0.12925  1.0000
  Hf  Hf26      1.0  0.55505  0.39794  0.62363  1.0000
  Hf  Hf27      1.0  0.55465  0.89034  0.12456  1.0000
  Hf  Hf28      1.0  0.55903  0.89244  0.61924  1.0000
  Hf  Hf29      1.0  0.80193  0.39618  0.12582  1.0000
  Hf  Hf30      1.0  0.80620  0.39024  0.62998  1.0000
  Hf  Hf31      1.0  0.80438  0.89170  0.12715  1.0000
  Hf  Hf32      1.0  0.80068  0.88782  0.63242  1.0000
  Hf  Hf33      1.0  0.05586  0.18552  0.41075  1.0000
  Hf  Hf34      1.0  0.05544  0.18638  0.91394  1.0000
  Hf  Hf35      1.0  0.05577  0.68374  0.40954  1.0000
  Hf  Hf36      1.0  0.05708  0.68785  0.91733  1.0000
  Hf  Hf37      1.0  0.30632  0.18159  0.41460  1.0000
  Hf  Hf38      1.0  0.30399  0.18712  0.92120  1.0000
  Hf  Hf39      1.0  0.30249  0.68811  0.41942  1.0000
  Hf  Hf40      1.0  0.30739  0.67679  0.91807  1.0000
  Hf  Hf41      1.0  0.55512  0.18190  0.42279  1.0000
  Hf  Hf42      1.0  0.55412  0.17779  0.92281  1.0000
  Hf  Hf43      1.0  0.55282  0.67777  0.42551  1.0000
  Hf  Hf44      1.0  0.55414  0.67777  0.92128  1.0000
  Hf  Hf45      1.0  0.80740  0.18496  0.42038  1.0000
  Hf  Hf46      1.0  0.80401  0.17809  0.91847  1.0000
  Hf  Hf47      1.0  0.80566  0.68009  0.41210  1.0000
  Hf  Hf48      1.0  0.80797  0.68385  0.91951  1.0000
  Hf  Hf49      1.0  0.15415  0.39439  0.33222  1.0000
  Hf  Hf50      1.0  0.16144  0.39840  0.82502  1.0000
  Hf  Hf51      1.0  0.16473  0.89759  0.32548  1.0000
  Hf  Hf52      1.0  0.15944  0.88748  0.83426  1.0000
  Hf  Hf53      1.0  0.40695  0.38312  0.33479  1.0000
  Hf  Hf54      1.0  0.41292  0.38062  0.83543  1.0000
  Hf  Hf55      1.0  0.40681  0.88922  0.33314  1.0000
  Hf  Hf56      1.0  0.40945  0.88861  0.82973  1.0000
  Hf  Hf57      1.0  0.65942  0.38622  0.34160  1.0000
  Hf  Hf58      1.0  0.66270  0.38369  0.83353  1.0000
  Hf  Hf59      1.0  0.65761  0.88455  0.32829  1.0000
  Hf  Hf60      1.0  0.65517  0.88474  0.83587  1.0000
  Hf  Hf61      1.0  0.91479  0.39052  0.32562  1.0000
  Hf  Hf62      1.0  0.91110  0.38570  0.83392  1.0000
  Hf  Hf63      1.0  0.90468  0.88205  0.33721  1.0000
  Hf  Hf64      1.0  0.91024  0.88624  0.83030  1.0000
  Hf  Hf65      1.0  0.19302  0.32223  0.08868  1.0000
  Hf  Hf66      1.0  0.19471  0.32190  0.57726  1.0000
  Hf  Hf67      1.0  0.19444  0.82412  0.08031  1.0000
  Hf  Hf68      1.0  0.19616  0.82726  0.58245  1.0000
  Hf  Hf69      1.0  0.44532  0.31278  0.09006  1.0000
  Hf  Hf70      1.0  0.44514  0.32354  0.57833  1.0000
  Hf  Hf71      1.0  0.44206  0.80912  0.08524  1.0000
  Hf  Hf72      1.0  0.44592  0.81868  0.58476  1.0000
  Hf  Hf73      1.0  0.68979  0.31472  0.08689  1.0000
  Hf  Hf74      1.0  0.69075  0.31551  0.59426  1.0000
  Hf  Hf75      1.0  0.69450  0.81227  0.08358  1.0000
  Hf  Hf76      1.0  0.69655  0.81194  0.58288  1.0000
  Hf  Hf77      1.0  0.94411  0.31211  0.08366  1.0000
  Hf  Hf78      1.0  0.94412  0.31303  0.59083  1.0000
  Hf  Hf79      1.0  0.94586  0.82103  0.08276  1.0000
  Hf  Hf80      1.0  0.94596  0.81871  0.57507  1.0000
  Hf  Hf81      1.0  0.09186  0.11571  0.15924  1.0000
  Hf  Hf82      1.0  0.08952  0.11501  0.66585  1.0000
  Hf  Hf83      1.0  0.09157  0.61691  0.16236  1.0000
  Hf  Hf84      1.0  0.09244  0.61745  0.65859  1.0000
  Hf  Hf85      1.0  0.34389  0.11358  0.16009  1.0000
  Hf  Hf86      1.0  0.33937  0.11473  0.67241  1.0000
  Hf  Hf87      1.0  0.34188  0.60740  0.16828  1.0000
  Hf  Hf88      1.0  0.34762  0.61175  0.66119  1.0000
  Hf  Hf89      1.0  0.58607  0.11199  0.17824  1.0000
  Hf  Hf90      1.0  0.59260  0.10662  0.66945  1.0000
  Hf  Hf91      1.0  0.58716  0.60749  0.17167  1.0000
  Hf  Hf92      1.0  0.59515  0.60938  0.66917  1.0000
  Hf  Hf93      1.0  0.84045  0.11682  0.16742  1.0000
  Hf  Hf94      1.0  0.84022  0.10727  0.66869  1.0000
  Hf  Hf95      1.0  0.84180  0.61683  0.17088  1.0000
  Hf  Hf96      1.0  0.84201  0.61305  0.66988  1.0000
  F   F1        1.0  0.07634  0.13921  0.29274  1.0000
  F   F2        1.0  0.07506  0.15081  0.79372  1.0000
  F   F3        1.0  0.07556  0.63626  0.29932  1.0000
  F   F4        1.0  0.07411  0.62895  0.81244  1.0000
  F   F5        1.0  0.32683  0.11366  0.31289  1.0000
  F   F6        1.0  0.33573  0.13694  0.79822  1.0000
  F   F7        1.0  0.32857  0.61149  0.30591  1.0000
  F   F8        1.0  0.33119  0.61902  0.81163  1.0000
  F   F9        1.0  0.58568  0.14715  0.29410  1.0000
  F   F10       1.0  0.58077  0.12907  0.80477  1.0000
  F   F11       1.0  0.57734  0.64291  0.29887  1.0000
  F   F12       1.0  0.57547  0.61395  0.81990  1.0000
  F   F13       1.0  0.82937  0.14248  0.30350  1.0000
  F   F14       1.0  0.82690  0.10194  0.81178  1.0000
  F   F15       1.0  0.83200  0.61264  0.31056  1.0000
  F   F16       1.0  0.82755  0.62097  0.81732  1.0000
  F   F17       1.0  0.18762  0.35517  0.44149  1.0000
  F   F18       1.0  0.17984  0.33065  0.95406  1.0000
  F   F19       1.0  0.19363  0.84688  0.43920  1.0000
  F   F20       1.0  0.19106  0.84205  0.93237  1.0000
  F   F21       1.0  0.43731  0.34951  0.43809  1.0000
  F   F22       1.0  0.43294  0.33052  0.95475  1.0000
  F   F23       1.0  0.44106  0.83846  0.44397  1.0000
  F   F24       1.0  0.43089  0.83968  0.94599  1.0000
  F   F25       1.0  0.69351  0.34914  0.44382  1.0000
  F   F26       1.0  0.68319  0.32558  0.94906  1.0000
  F   F27       1.0  0.68111  0.83302  0.44498  1.0000
  F   F28       1.0  0.67405  0.83651  0.96427  1.0000
  F   F29       1.0  0.92721  0.32726  0.46175  1.0000
  F   F30       1.0  0.93625  0.34603  0.95147  1.0000
  F   F31       1.0  0.93927  0.85497  0.43673  1.0000
  F   F32       1.0  0.93634  0.83982  0.93841  1.0000
  F   F33       1.0  0.16981  0.40497  0.18192  1.0000
  F   F34       1.0  0.17005  0.38827  0.68672  1.0000
  F   F35       1.0  0.17394  0.88661  0.19202  1.0000
  F   F36       1.0  0.17337  0.87805  0.69038  1.0000
  F   F37       1.0  0.42388  0.36768  0.19537  1.0000
  F   F38       1.0  0.42486  0.35968  0.69919  1.0000
  F   F39       1.0  0.42062  0.85935  0.19995  1.0000
  F   F40       1.0  0.42055  0.87270  0.69676  1.0000
  F   F41       1.0  0.66564  0.36963  0.21007  1.0000
  F   F42       1.0  0.67239  0.38434  0.69044  1.0000
  F   F43       1.0  0.67607  0.87778  0.18335  1.0000
  F   F44       1.0  0.66495  0.86759  0.70504  1.0000
  F   F45       1.0  0.92581  0.37779  0.19026  1.0000
  F   F46       1.0  0.91607  0.38054  0.69954  1.0000
  F   F47       1.0  0.91875  0.87489  0.19136  1.0000
  F   F48       1.0  0.91841  0.86105  0.69150  1.0000
  F   F49       1.0  0.06135  0.15303  0.05361  1.0000
  F   F50       1.0  0.06665  0.15098  0.54236  1.0000
  F   F51       1.0  0.06879  0.66493  0.04117  1.0000
  F   F52       1.0  0.06337  0.65567  0.54117  1.0000
  F   F53       1.0  0.30665  0.17198  0.06178  1.0000
  F   F54       1.0  0.32073  0.16847  0.54464  1.0000
  F   F55       1.0  0.30932  0.64651  0.06570  1.0000
  F   F56       1.0  0.31543  0.65585  0.55170  1.0000
  F   F57       1.0  0.55806  0.16146  0.06559  1.0000
  F   F58       1.0  0.55378  0.14256  0.57342  1.0000
  F   F59       1.0  0.56438  0.65666  0.05548  1.0000
  F   F60       1.0  0.57425  0.67534  0.53550  1.0000
  F   F61       1.0  0.81740  0.16189  0.05259  1.0000
  F   F62       1.0  0.80835  0.14174  0.56936  1.0000
  F   F63       1.0  0.81830  0.66729  0.05018  1.0000
  F   F64       1.0  0.81991  0.67289  0.54670  1.0000
  F   F65       1.0  0.18517  0.21200  0.23093  1.0000
  F   F66       1.0  0.20317  0.20060  0.69778  1.0000
  F   F67       1.0  0.20723  0.70583  0.20280  1.0000
  F   F68       1.0  0.20579  0.70263  0.69902  1.0000
  F   F69       1.0  0.46235  0.19507  0.23859  1.0000
  F   F70       1.0  0.45585  0.19667  0.70696  1.0000
  F   F71       1.0  0.45389  0.69562  0.21974  1.0000
  F   F72       1.0  0.45493  0.69855  0.70100  1.0000
  F   F73       1.0  0.70012  0.19637  0.21917  1.0000
  F   F74       1.0  0.69042  0.19854  0.72384  1.0000
  F   F75       1.0  0.70247  0.70510  0.21485  1.0000
  F   F76       1.0  0.70773  0.69436  0.71910  1.0000
  F   F77       1.0  0.95602  0.19757  0.20660  1.0000
  F   F78       1.0  0.94995  0.20105  0.72738  1.0000
  F   F79       1.0  0.96227  0.70932  0.20687  1.0000
  F   F80       1.0  0.96239  0.70709  0.69107  1.0000
  F   F81       1.0  0.14430  0.09531  0.02980  1.0000
  F   F82       1.0  0.14742  0.10551  0.53191  1.0000
  F   F83       1.0  0.15204  0.58679  0.03032  1.0000
  F   F84       1.0  0.14951  0.59975  0.52813  1.0000
  F   F85       1.0  0.39777  0.10003  0.03653  1.0000
  F   F86       1.0  0.39401  0.08160  0.55992  1.0000
  F   F87       1.0  0.40293  0.59424  0.02653  1.0000
  F   F88       1.0  0.40288  0.59585  0.53997  1.0000
  F   F89       1.0  0.65156  0.09541  0.04297  1.0000
  F   F90       1.0  0.64638  0.09751  0.53139  1.0000
  F   F91       1.0  0.64800  0.58070  0.04193  1.0000
  F   F92       1.0  0.65227  0.59409  0.55726  1.0000
  F   F93       1.0  0.90158  0.07831  0.03962  1.0000
  F   F94       1.0  0.89420  0.09931  0.53442  1.0000
  F   F95       1.0  0.90534  0.60382  0.02776  1.0000
  F   F96       1.0  0.89920  0.58929  0.54259  1.0000
  F   F97       1.0  0.15018  0.18684  0.12140  1.0000
  F   F98       1.0  0.14674  0.19619  0.62518  1.0000
  F   F99       1.0  0.15084  0.69646  0.13115  1.0000
  F   F100      1.0  0.14885  0.71172  0.61639  1.0000
  F   F101      1.0  0.40653  0.17829  0.14759  1.0000
  F   F102      1.0  0.40849  0.19492  0.61500  1.0000
  F   F103      1.0  0.40187  0.69634  0.12394  1.0000
  F   F104      1.0  0.40087  0.70129  0.61548  1.0000
  F   F105      1.0  0.65159  0.20325  0.12103  1.0000
  F   F106      1.0  0.65066  0.19758  0.60875  1.0000
  F   F107      1.0  0.65429  0.68497  0.13641  1.0000
  F   F108      1.0  0.64655  0.69813  0.65109  1.0000
  F   F109      1.0  0.90681  0.18717  0.10995  1.0000
  F   F110      1.0  0.90342  0.17851  0.63232  1.0000
  F   F111      1.0  0.89868  0.70582  0.14245  1.0000
  F   F112      1.0  0.89937  0.70215  0.62094  1.0000
  F   F113      1.0  0.10538  0.29544  0.34453  1.0000
  F   F114      1.0  0.10021  0.31367  0.86918  1.0000
  F   F115      1.0  0.10244  0.79302  0.35391  1.0000
  F   F116      1.0  0.10223  0.80995  0.87693  1.0000
  F   F117      1.0  0.34689  0.31153  0.35112  1.0000
  F   F118      1.0  0.35070  0.30600  0.87788  1.0000
  F   F119      1.0  0.34396  0.82412  0.37173  1.0000
  F   F120      1.0  0.34512  0.79849  0.89199  1.0000
  F   F121      1.0  0.59438  0.29855  0.40098  1.0000
  F   F122      1.0  0.60296  0.28485  0.87150  1.0000
  F   F123      1.0  0.60320  0.81528  0.34490  1.0000
  F   F124      1.0  0.59753  0.79975  0.88252  1.0000
  F   F125      1.0  0.85169  0.30176  0.37767  1.0000
  F   F126      1.0  0.84443  0.29989  0.86726  1.0000
  F   F127      1.0  0.84722  0.80007  0.35469  1.0000
  F   F128      1.0  0.85092  0.80185  0.86677  1.0000
  F   F129      1.0  0.07186  0.26204  0.10583  1.0000
  F   F130      1.0  0.06097  0.25693  0.63140  1.0000
  F   F131      1.0  0.06332  0.75260  0.14352  1.0000
  F   F132      1.0  0.05689  0.75128  0.64560  1.0000
  F   F133      1.0  0.31648  0.24583  0.13787  1.0000
  F   F134      1.0  0.31820  0.25890  0.64020  1.0000
  F   F135      1.0  0.31480  0.74337  0.14505  1.0000
  F   F136      1.0  0.31292  0.74971  0.64312  1.0000
  F   F137      1.0  0.55327  0.23957  0.16250  1.0000
  F   F138      1.0  0.55798  0.24659  0.65904  1.0000
  F   F139      1.0  0.57168  0.75723  0.11368  1.0000
  F   F140      1.0  0.56239  0.74272  0.65612  1.0000
  F   F141      1.0  0.81634  0.25390  0.14653  1.0000
  F   F142      1.0  0.82526  0.24558  0.62243  1.0000
  F   F143      1.0  0.81955  0.75049  0.14702  1.0000
  F   F144      1.0  0.80722  0.74223  0.66294  1.0000
  F   F145      1.0  0.12723  0.37174  0.10338  1.0000
  F   F146      1.0  0.12577  0.36520  0.60321  1.0000
  F   F147      1.0  0.13291  0.88264  0.08516  1.0000
  F   F148      1.0  0.12840  0.87787  0.59652  1.0000
  F   F149      1.0  0.37776  0.36254  0.11651  1.0000
  F   F150      1.0  0.37593  0.37648  0.60200  1.0000
  F   F151      1.0  0.37197  0.86397  0.11524  1.0000
  F   F152      1.0  0.37323  0.86288  0.60893  1.0000
  F   F153      1.0  0.62220  0.35469  0.12620  1.0000
  F   F154      1.0  0.62261  0.35901  0.62471  1.0000
  F   F155      1.0  0.62637  0.87776  0.10787  1.0000
  F   F156      1.0  0.62909  0.86624  0.59767  1.0000
  F   F157      1.0  0.87057  0.35812  0.12635  1.0000
  F   F158      1.0  0.87307  0.34811  0.63171  1.0000
  F   F159      1.0  0.87891  0.87771  0.09191  1.0000
  F   F160      1.0  0.87080  0.86537  0.59936  1.0000
  F   F161      1.0  0.18218  0.26247  0.35800  1.0000
  F   F162      1.0  0.18646  0.25292  0.83949  1.0000
  F   F163      1.0  0.18082  0.75770  0.35702  1.0000
  F   F164      1.0  0.18558  0.74325  0.85537  1.0000
  F   F165      1.0  0.42189  0.24234  0.39528  1.0000
  F   F166      1.0  0.43628  0.24630  0.85301  1.0000
  F   F167      1.0  0.42391  0.75041  0.37604  1.0000
  F   F168      1.0  0.44094  0.75425  0.84833  1.0000
  F   F169      1.0  0.69188  0.25233  0.35212  1.0000
  F   F170      1.0  0.68865  0.25149  0.84741  1.0000
  F   F171      1.0  0.68035  0.74067  0.36657  1.0000
  F   F172      1.0  0.68594  0.74402  0.86269  1.0000
  F   F173      1.0  0.93828  0.25079  0.35664  1.0000
  F   F174      1.0  0.92079  0.23626  0.88781  1.0000
  F   F175      1.0  0.92957  0.74656  0.36900  1.0000
  F   F176      1.0  0.93915  0.75263  0.84057  1.0000
  F   F177      1.0  0.12364  0.11784  0.39690  1.0000
  F   F178      1.0  0.12531  0.13312  0.87788  1.0000
  F   F179      1.0  0.12805  0.63420  0.37595  1.0000
  F   F180      1.0  0.12470  0.61648  0.89400  1.0000
  F   F181      1.0  0.37683  0.14333  0.37769  1.0000
  F   F182      1.0  0.37375  0.12380  0.90044  1.0000
  F   F183      1.0  0.37110  0.63125  0.39707  1.0000
  F   F184      1.0  0.37915  0.64336  0.87680  1.0000
  F   F185      1.0  0.62539  0.14874  0.38908  1.0000
  F   F186      1.0  0.62054  0.11715  0.91444  1.0000
  F   F187      1.0  0.62279  0.62481  0.39555  1.0000
  F   F188      1.0  0.62500  0.63076  0.89174  1.0000
  F   F189      1.0  0.87219  0.12885  0.39587  1.0000
  F   F190      1.0  0.87112  0.11214  0.90029  1.0000
  F   F191      1.0  0.88165  0.63428  0.37707  1.0000
  F   F192      1.0  0.87526  0.62312  0.89731  1.0000
  F   F193      1.0  0.00578  0.35936  0.08285  1.0000
  F   F194      1.0  0.00716  0.37126  0.56288  1.0000
  F   F195      1.0  0.00970  0.85651  0.07720  1.0000
  F   F196      1.0  0.01290  0.87298  0.55125  1.0000
  F   F197      1.0  0.25685  0.35795  0.07768  1.0000
  F   F198      1.0  0.25800  0.35106  0.58565  1.0000
  F   F199      1.0  0.25462  0.86448  0.07509  1.0000
  F   F200      1.0  0.25982  0.86300  0.56308  1.0000
  F   F201      1.0  0.50797  0.35827  0.06351  1.0000
  F   F202      1.0  0.50893  0.36969  0.58003  1.0000
  F   F203      1.0  0.50470  0.85687  0.07555  1.0000
  F   F204      1.0  0.50612  0.86384  0.57397  1.0000
  F   F205      1.0  0.75587  0.35997  0.08109  1.0000
  F   F206      1.0  0.75833  0.35151  0.58529  1.0000
  F   F207      1.0  0.75737  0.84696  0.08183  1.0000
  F   F208      1.0  0.76272  0.86842  0.55975  1.0000
  F   F209      1.0  0.07279  0.49719  0.16672  1.0000
  F   F210      1.0  0.07668  0.48971  0.66399  1.0000
  F   F211      1.0  0.07407  0.98026  0.16800  1.0000
  F   F212      1.0  0.06632  0.98607  0.66726  1.0000
  F   F213      1.0  0.32428  0.47712  0.17388  1.0000
  F   F214      1.0  0.32709  0.48957  0.66191  1.0000
  F   F215      1.0  0.31962  0.98556  0.17776  1.0000
  F   F216      1.0  0.31291  0.98239  0.67954  1.0000
  F   F217      1.0  0.57226  0.47426  0.17936  1.0000
  F   F218      1.0  0.57287  0.50158  0.65622  1.0000
  F   F219      1.0  0.57033  0.98052  0.17522  1.0000
  F   F220      1.0  0.57335  0.98085  0.66902  1.0000
  F   F221      1.0  0.82378  0.49270  0.16629  1.0000
  F   F222      1.0  0.82665  0.48522  0.67016  1.0000
  F   F223      1.0  0.81637  0.98281  0.17829  1.0000
  F   F224      1.0  0.81276  0.98164  0.68973  1.0000
  F   F225      1.0  0.24021  0.14114  0.42945  1.0000
  F   F226      1.0  0.24591  0.14164  0.92367  1.0000
  F   F227      1.0  0.24218  0.64403  0.42574  1.0000
  F   F228      1.0  0.23802  0.62075  0.94637  1.0000
  F   F229      1.0  0.49398  0.12678  0.44005  1.0000
  F   F230      1.0  0.49402  0.14114  0.91524  1.0000
  F   F231      1.0  0.49214  0.65039  0.41021  1.0000
  F   F232      1.0  0.49273  0.64198  0.92626  1.0000
  F   F233      1.0  0.74312  0.12400  0.44556  1.0000
  F   F234      1.0  0.74561  0.12204  0.93202  1.0000
  F   F235      1.0  0.74050  0.63116  0.42686  1.0000
  F   F236      1.0  0.73815  0.62746  0.94119  1.0000
  F   F237      1.0  0.99305  0.12872  0.42363  1.0000
  F   F238      1.0  0.99288  0.14341  0.93041  1.0000
  F   F239      1.0  0.98991  0.63502  0.44036  1.0000
  F   F240      1.0  0.99257  0.65513  0.91834  1.0000
  F   F241      1.0  0.18678  0.02308  0.31082  1.0000
  F   F242      1.0  0.18696  0.02081  0.80781  1.0000
  F   F243      1.0  0.17997  0.52040  0.30016  1.0000
  F   F244      1.0  0.18186  0.51822  0.81605  1.0000
  F   F245      1.0  0.42920  0.00727  0.33545  1.0000
  F   F246      1.0  0.43641  0.01559  0.81209  1.0000
  F   F247      1.0  0.42985  0.51436  0.32625  1.0000
  F   F248      1.0  0.42712  0.50654  0.82633  1.0000
  F   F249      1.0  0.67260  0.01684  0.34336  1.0000
  F   F250      1.0  0.68391  0.02071  0.81625  1.0000
  F   F251      1.0  0.69210  0.51417  0.31702  1.0000
  F   F252      1.0  0.67969  0.50300  0.82865  1.0000
  F   F253      1.0  0.92275  0.02267  0.32440  1.0000
  F   F254      1.0  0.93896  0.00829  0.82682  1.0000
  F   F255      1.0  0.93599  0.51418  0.31868  1.0000
  F   F256      1.0  0.92973  0.51461  0.82933  1.0000
  F   F257      1.0  0.00181  0.27293  0.98306  1.0000
  F   F258      1.0  0.00237  0.25053  0.49286  1.0000
  F   F259      1.0  0.00124  0.76463  0.99078  1.0000
  F   F260      1.0  0.99994  0.75395  0.49002  1.0000
  F   F261      1.0  0.24556  0.26130  0.99851  1.0000
  F   F262      1.0  0.25145  0.25455  0.49022  1.0000
  F   F263      1.0  0.24916  0.76098  0.99565  1.0000
  F   F264      1.0  0.24946  0.74341  0.50929  1.0000
  F   F265      1.0  0.49455  0.23449  0.01453  1.0000
  F   F266      1.0  0.49777  0.25852  0.49533  1.0000
  F   F267      1.0  0.50051  0.74128  0.00977  1.0000
  F   F268      1.0  0.50185  0.75308  0.50346  1.0000
  F   F269      1.0  0.74531  0.23519  0.01099  1.0000
  F   F270      1.0  0.74719  0.24755  0.51639  1.0000
  F   F271      1.0  0.75117  0.75104  0.00135  1.0000
  F   F272      1.0  0.75059  0.74211  0.49787  1.0000
  F   F273      1.0  0.11733  0.99299  0.26048  1.0000
  F   F274      1.0  0.12861  0.99905  0.74591  1.0000
  F   F275      1.0  0.11766  0.50539  0.25574  1.0000
  F   F276      1.0  0.12106  0.50829  0.74747  1.0000
  F   F277      1.0  0.37755  0.99604  0.24190  1.0000
  F   F278      1.0  0.36873  0.99618  0.76130  1.0000
  F   F279      1.0  0.37948  0.49421  0.23408  1.0000
  F   F280      1.0  0.37668  0.49588  0.74510  1.0000
  F   F281      1.0  0.61837  0.00509  0.26710  1.0000
  F   F282      1.0  0.63080  0.00712  0.73951  1.0000
  F   F283      1.0  0.62191  0.50719  0.25459  1.0000
  F   F284      1.0  0.61986  0.49443  0.76852  1.0000
  F   F285      1.0  0.87282  0.00670  0.24993  1.0000
  F   F286      1.0  0.88321  0.99279  0.73330  1.0000
  F   F287      1.0  0.87911  0.50829  0.23770  1.0000
  F   F288      1.0  0.88131  0.50348  0.74895  1.0000
  F   F289      1.0  0.04168  0.02897  0.02537  1.0000
  F   F290      1.0  0.04343  0.02422  0.52022  1.0000
  F   F291      1.0  0.03532  0.54005  0.02490  1.0000
  F   F292      1.0  0.03990  0.52393  0.52706  1.0000
  F   F293      1.0  0.28727  0.04778  0.03347  1.0000
  F   F294      1.0  0.29133  0.03186  0.52130  1.0000
  F   F295      1.0  0.29889  0.52399  0.01848  1.0000
  F   F296      1.0  0.28814  0.52366  0.53000  1.0000
  F   F297      1.0  0.53722  0.03519  0.03148  1.0000
  F   F298      1.0  0.55633  0.02202  0.50817  1.0000
  F   F299      1.0  0.53608  0.51735  0.04671  1.0000
  F   F300      1.0  0.53254  0.53647  0.52600  1.0000
  F   F301      1.0  0.79124  0.02740  0.03613  1.0000
  F   F302      1.0  0.80101  0.01967  0.52047  1.0000
  F   F303      1.0  0.79604  0.53401  0.02338  1.0000
  F   F304      1.0  0.79124  0.53688  0.53577  1.0000
  F   F305      1.0  0.23543  0.41491  0.22411  1.0000
  F   F306      1.0  0.23416  0.42713  0.71247  1.0000
  F   F307      1.0  0.24129  0.90177  0.23211  1.0000
  F   F308      1.0  0.23628  0.89875  0.73029  1.0000
  F   F309      1.0  0.48175  0.39781  0.24230  1.0000
  F   F310      1.0  0.48708  0.43132  0.71758  1.0000
  F   F311      1.0  0.48087  0.91708  0.22358  1.0000
  F   F312      1.0  0.48776  0.91484  0.72197  1.0000
  F   F313      1.0  0.73419  0.40802  0.22778  1.0000
  F   F314      1.0  0.74032  0.42171  0.72175  1.0000
  F   F315      1.0  0.73064  0.91942  0.23943  1.0000
  F   F316      1.0  0.73408  0.89744  0.74158  1.0000
  F   F317      1.0  0.98633  0.41678  0.22210  1.0000
  F   F318      1.0  0.98383  0.41597  0.72389  1.0000
  F   F319      1.0  0.98226  0.91598  0.23239  1.0000
  F   F320      1.0  0.98345  0.91138  0.71681  1.0000
  F   F321      1.0  0.20501  0.47762  0.47382  1.0000
  F   F322      1.0  0.20888  0.46184  0.96373  1.0000
  F   F323      1.0  0.20327  0.98039  0.48063  1.0000
  F   F324      1.0  0.21691  0.97452  0.95785  1.0000
  F   F325      1.0  0.45538  0.47572  0.47257  1.0000
  F   F326      1.0  0.45770  0.46794  0.97135  1.0000
  F   F327      1.0  0.44835  0.96813  0.49656  1.0000
  F   F328      1.0  0.45681  0.97398  0.97810  1.0000
  F   F329      1.0  0.70084  0.47364  0.49161  1.0000
  F   F330      1.0  0.69930  0.45919  0.99219  1.0000
  F   F331      1.0  0.70969  0.95192  0.47453  1.0000
  F   F332      1.0  0.70930  0.96019  0.96536  1.0000
  F   F333      1.0  0.95679  0.46245  0.47008  1.0000
  F   F334      1.0  0.95834  0.47721  0.97457  1.0000
  F   F335      1.0  0.95141  0.97918  0.47765  1.0000
  F   F336      1.0  0.96831  0.96764  0.97425  1.0000
  F   F337      1.0  0.01450  0.07203  0.27097  1.0000
  F   F338      1.0  0.01507  0.09218  0.75928  1.0000
  F   F339      1.0  0.01882  0.59277  0.26502  1.0000
  F   F340      1.0  0.01557  0.58024  0.76793  1.0000
  F   F341      1.0  0.26601  0.10587  0.26325  1.0000
  F   F342      1.0  0.26705  0.09392  0.77275  1.0000
  F   F343      1.0  0.25997  0.58571  0.27572  1.0000
  F   F344      1.0  0.27194  0.59002  0.76732  1.0000
  F   F345      1.0  0.51522  0.06352  0.29199  1.0000
  F   F346      1.0  0.52017  0.06631  0.76732  1.0000
  F   F347      1.0  0.51664  0.59023  0.27904  1.0000
  F   F348      1.0  0.51612  0.59391  0.76625  1.0000
  F   F349      1.0  0.76474  0.08090  0.27310  1.0000
  F   F350      1.0  0.76009  0.11072  0.76774  1.0000
  F   F351      1.0  0.76847  0.59556  0.26499  1.0000
  F   F352      1.0  0.76730  0.57238  0.77260  1.0000
  F   F353      1.0  0.10001  0.41872  0.45088  1.0000
  F   F354      1.0  0.10266  0.42555  0.94224  1.0000
  F   F355      1.0  0.10732  0.88568  0.45789  1.0000
  F   F356      1.0  0.10419  0.91090  0.95526  1.0000
  F   F357      1.0  0.35117  0.40071  0.45411  1.0000
  F   F358      1.0  0.34941  0.39701  0.97402  1.0000
  F   F359      1.0  0.35423  0.90494  0.46388  1.0000
  F   F360      1.0  0.34968  0.92342  0.96111  1.0000
  F   F361      1.0  0.59900  0.42793  0.47000  1.0000
  F   F362      1.0  0.60174  0.39552  0.97378  1.0000
  F   F363      1.0  0.59458  0.88389  0.47002  1.0000
  F   F364      1.0  0.59823  0.91879  0.95017  1.0000
  F   F365      1.0  0.85544  0.41570  0.47171  1.0000
  F   F366      1.0  0.85499  0.39291  0.96327  1.0000
  F   F367      1.0  0.85020  0.88668  0.45760  1.0000
  F   F368      1.0  0.84665  0.91200  0.95105  1.0000
  F   F369      1.0  0.04590  0.30299  0.27694  1.0000
  F   F370      1.0  0.04606  0.31030  0.78690  1.0000
  F   F371      1.0  0.03731  0.79904  0.29272  1.0000
  F   F372      1.0  0.06108  0.79883  0.77577  1.0000
  F   F373      1.0  0.29222  0.29072  0.29006  1.0000
  F   F374      1.0  0.29123  0.30920  0.79043  1.0000
  F   F375      1.0  0.29774  0.79113  0.28055  1.0000
  F   F376      1.0  0.29643  0.78861  0.79768  1.0000
  F   F377      1.0  0.54618  0.30539  0.29704  1.0000
  F   F378      1.0  0.54573  0.29555  0.78798  1.0000
  F   F379      1.0  0.54181  0.79858  0.28034  1.0000
  F   F380      1.0  0.55332  0.79061  0.79377  1.0000
  F   F381      1.0  0.79377  0.29423  0.29675  1.0000
  F   F382      1.0  0.79085  0.28671  0.78526  1.0000
  F   F383      1.0  0.78605  0.78724  0.29229  1.0000
  F   F384      1.0  0.79292  0.79575  0.79994  1.0000
