data_image0
_chemical_formula_structural       Hf96F384
_chemical_formula_sum              "Hf96 F384"
_cell_length_a       31.0235
_cell_length_b       15.5122
_cell_length_c       15.5037
_cell_angle_alpha    63.342
_cell_angle_beta     63.342
_cell_angle_gamma    80.1625

_space_group_name_H-M_alt    "P 1"
_space_group_IT_number       1

loop_
  _space_group_symop_operation_xyz
  'x, y, z'

loop_
  _atom_site_type_symbol
  _atom_site_label
  _atom_site_symmetry_multiplicity
  _atom_site_fract_x
  _atom_site_fract_y
  _atom_site_fract_z
  _atom_site_occupancy
  Hf  Hf1       1.0  0.19412  0.11341  0.36731  1.0000
  Hf  Hf2       1.0  0.19436  0.10826  0.87509  1.0000
  Hf  Hf3       1.0  0.19791  0.60241  0.37244  1.0000
  Hf  Hf4       1.0  0.19561  0.60759  0.88315  1.0000
  Hf  Hf5       1.0  0.44597  0.10963  0.37439  1.0000
  Hf  Hf6       1.0  0.44705  0.11050  0.86635  1.0000
  Hf  Hf7       1.0  0.44480  0.60087  0.37498  1.0000
  Hf  Hf8       1.0  0.44808  0.60927  0.87822  1.0000
  Hf  Hf9       1.0  0.69584  0.11157  0.37850  1.0000
  Hf  Hf10      1.0  0.69302  0.10397  0.88466  1.0000
  Hf  Hf11      1.0  0.69624  0.59629  0.38581  1.0000
  Hf  Hf12      1.0  0.69862  0.59862  0.88490  1.0000
  Hf  Hf13      1.0  0.94800  0.10729  0.37220  1.0000
  Hf  Hf14      1.0  0.94431  0.11185  0.87387  1.0000
  Hf  Hf15      1.0  0.94950  0.60821  0.36535  1.0000
  Hf  Hf16      1.0  0.94890  0.60757  0.87850  1.0000
  Hf  Hf17      1.0  0.05428  0.39749  0.11588  1.0000
  Hf  Hf18      1.0  0.05231  0.39811  0.63710  1.0000
  Hf  Hf19      1.0  0.05392  0.89577  0.12441  1.0000
  Hf  Hf20      1.0  0.05574  0.88980  0.62145  1.0000
  Hf  Hf21      1.0  0.30089  0.39372  0.12322  1.0000
  Hf  Hf22      1.0  0.30067  0.39487  0.63174  1.0000
  Hf  Hf23      1.0  0.30427  0.88880  0.12017  1.0000
  Hf  Hf24      1.0  0.30589  0.88783  0.63065  1.0000
  Hf  Hf25      1.0  0.55287  0.39217  0.12544  1.0000
  Hf  Hf26      1.0  0.55622  0.38945  0.62734  1.0000
  Hf  Hf27      1.0  0.55280  0.88513  0.13169  1.0000
  Hf  Hf28      1.0  0.55967  0.88982  0.61778  1.0000
  Hf  Hf29      1.0  0.79810  0.39124  0.12758  1.0000
  Hf  Hf30      1.0  0.80442  0.39919  0.62222  1.0000
  Hf  Hf31      1.0  0.80125  0.89685  0.12827  1.0000
  Hf  Hf32      1.0  0.80463  0.89184  0.62541  1.0000
  Hf  Hf33      1.0  0.05574  0.17943  0.41083  1.0000
  Hf  Hf34      1.0  0.05403  0.18447  0.91164  1.0000
  Hf  Hf35      1.0  0.05644  0.67671  0.41593  1.0000
  Hf  Hf36      1.0  0.05743  0.68877  0.91366  1.0000
  Hf  Hf37      1.0  0.30540  0.18143  0.41413  1.0000
  Hf  Hf38      1.0  0.30727  0.18905  0.91237  1.0000
  Hf  Hf39      1.0  0.31005  0.69409  0.40513  1.0000
  Hf  Hf40      1.0  0.30733  0.67892  0.91650  1.0000
  Hf  Hf41      1.0  0.55118  0.17170  0.42915  1.0000
  Hf  Hf42      1.0  0.55235  0.18393  0.92642  1.0000
  Hf  Hf43      1.0  0.55715  0.67720  0.41757  1.0000
  Hf  Hf44      1.0  0.55796  0.68549  0.91254  1.0000
  Hf  Hf45      1.0  0.80605  0.18351  0.41768  1.0000
  Hf  Hf46      1.0  0.80502  0.18064  0.92763  1.0000
  Hf  Hf47      1.0  0.80852  0.68437  0.41176  1.0000
  Hf  Hf48      1.0  0.81060  0.68132  0.91745  1.0000
  Hf  Hf49      1.0  0.15679  0.39014  0.32605  1.0000
  Hf  Hf50      1.0  0.15888  0.38855  0.83395  1.0000
  Hf  Hf51      1.0  0.16489  0.88818  0.31703  1.0000
  Hf  Hf52      1.0  0.15686  0.89069  0.83153  1.0000
  Hf  Hf53      1.0  0.40402  0.38145  0.34145  1.0000
  Hf  Hf54      1.0  0.40914  0.38970  0.83396  1.0000
  Hf  Hf55      1.0  0.41166  0.88557  0.32989  1.0000
  Hf  Hf56      1.0  0.40947  0.88555  0.83590  1.0000
  Hf  Hf57      1.0  0.65833  0.38288  0.34069  1.0000
  Hf  Hf58      1.0  0.65781  0.38803  0.83909  1.0000
  Hf  Hf59      1.0  0.66096  0.88597  0.32964  1.0000
  Hf  Hf60      1.0  0.65792  0.88819  0.83688  1.0000
  Hf  Hf61      1.0  0.90599  0.38778  0.33896  1.0000
  Hf  Hf62      1.0  0.90594  0.39511  0.83818  1.0000
  Hf  Hf63      1.0  0.91072  0.89046  0.33070  1.0000
  Hf  Hf64      1.0  0.90926  0.88864  0.83886  1.0000
  Hf  Hf65      1.0  0.19436  0.32209  0.07299  1.0000
  Hf  Hf66      1.0  0.19199  0.32057  0.58060  1.0000
  Hf  Hf67      1.0  0.19573  0.82277  0.07164  1.0000
  Hf  Hf68      1.0  0.19581  0.82703  0.57005  1.0000
  Hf  Hf69      1.0  0.44191  0.31937  0.08851  1.0000
  Hf  Hf70      1.0  0.44211  0.31927  0.58307  1.0000
  Hf  Hf71      1.0  0.44223  0.81691  0.08333  1.0000
  Hf  Hf72      1.0  0.44547  0.81917  0.58303  1.0000
  Hf  Hf73      1.0  0.69209  0.31196  0.08931  1.0000
  Hf  Hf74      1.0  0.69356  0.30957  0.59398  1.0000
  Hf  Hf75      1.0  0.69377  0.81233  0.08662  1.0000
  Hf  Hf76      1.0  0.69572  0.81094  0.59151  1.0000
  Hf  Hf77      1.0  0.94170  0.31785  0.08849  1.0000
  Hf  Hf78      1.0  0.94590  0.32086  0.58196  1.0000
  Hf  Hf79      1.0  0.94459  0.82179  0.07733  1.0000
  Hf  Hf80      1.0  0.94341  0.81567  0.57870  1.0000
  Hf  Hf81      1.0  0.08871  0.11014  0.16674  1.0000
  Hf  Hf82      1.0  0.09263  0.11775  0.66111  1.0000
  Hf  Hf83      1.0  0.09223  0.62001  0.15981  1.0000
  Hf  Hf84      1.0  0.09472  0.61554  0.66273  1.0000
  Hf  Hf85      1.0  0.33937  0.11202  0.16261  1.0000
  Hf  Hf86      1.0  0.34150  0.11523  0.67200  1.0000
  Hf  Hf87      1.0  0.34104  0.60806  0.15790  1.0000
  Hf  Hf88      1.0  0.34363  0.61226  0.66390  1.0000
  Hf  Hf89      1.0  0.58930  0.10854  0.17525  1.0000
  Hf  Hf90      1.0  0.58723  0.10731  0.67623  1.0000
  Hf  Hf91      1.0  0.59155  0.60745  0.16579  1.0000
  Hf  Hf92      1.0  0.59209  0.60336  0.66807  1.0000
  Hf  Hf93      1.0  0.84404  0.11498  0.16903  1.0000
  Hf  Hf94      1.0  0.84371  0.11106  0.66962  1.0000
  Hf  Hf95      1.0  0.84096  0.61623  0.16339  1.0000
  Hf  Hf96      1.0  0.83848  0.61073  0.67201  1.0000
  F   F1        1.0  0.07598  0.13132  0.29352  1.0000
  F   F2        1.0  0.07202  0.12693  0.80481  1.0000
  F   F3        1.0  0.07950  0.62622  0.30493  1.0000
  F   F4        1.0  0.08008  0.62768  0.79897  1.0000
  F   F5        1.0  0.32597  0.12570  0.30790  1.0000
  F   F6        1.0  0.32223  0.11684  0.81646  1.0000
  F   F7        1.0  0.33812  0.66021  0.27783  1.0000
  F   F8        1.0  0.31989  0.61114  0.81573  1.0000
  F   F9        1.0  0.57903  0.11619  0.31358  1.0000
  F   F10       1.0  0.57414  0.12683  0.81773  1.0000
  F   F11       1.0  0.57839  0.61184  0.30975  1.0000
  F   F12       1.0  0.58708  0.62634  0.79623  1.0000
  F   F13       1.0  0.82910  0.12487  0.30213  1.0000
  F   F14       1.0  0.82909  0.14202  0.80150  1.0000
  F   F15       1.0  0.82805  0.63662  0.30090  1.0000
  F   F16       1.0  0.82933  0.63724  0.80033  1.0000
  F   F17       1.0  0.17823  0.32997  0.46056  1.0000
  F   F18       1.0  0.18993  0.35296  0.93804  1.0000
  F   F19       1.0  0.19344  0.85343  0.42860  1.0000
  F   F20       1.0  0.19191  0.85184  0.92455  1.0000
  F   F21       1.0  0.43297  0.34504  0.44881  1.0000
  F   F22       1.0  0.43603  0.34223  0.95428  1.0000
  F   F23       1.0  0.43819  0.84397  0.43963  1.0000
  F   F24       1.0  0.42974  0.83514  0.95926  1.0000
  F   F25       1.0  0.68191  0.33494  0.46253  1.0000
  F   F26       1.0  0.69300  0.34381  0.94637  1.0000
  F   F27       1.0  0.69032  0.84449  0.44648  1.0000
  F   F28       1.0  0.68654  0.84806  0.94299  1.0000
  F   F29       1.0  0.93335  0.34757  0.44171  1.0000
  F   F30       1.0  0.92989  0.33586  0.95678  1.0000
  F   F31       1.0  0.93991  0.83848  0.43779  1.0000
  F   F32       1.0  0.94153  0.84772  0.93626  1.0000
  F   F33       1.0  0.16741  0.37421  0.18747  1.0000
  F   F34       1.0  0.16553  0.37170  0.69937  1.0000
  F   F35       1.0  0.17093  0.87372  0.18628  1.0000
  F   F36       1.0  0.17240  0.89876  0.68829  1.0000
  F   F37       1.0  0.41773  0.38660  0.19917  1.0000
  F   F38       1.0  0.42068  0.37224  0.69569  1.0000
  F   F39       1.0  0.41465  0.85583  0.20445  1.0000
  F   F40       1.0  0.41808  0.87471  0.69885  1.0000
  F   F41       1.0  0.66616  0.36497  0.20861  1.0000
  F   F42       1.0  0.66450  0.36374  0.71478  1.0000
  F   F43       1.0  0.67123  0.87431  0.19033  1.0000
  F   F44       1.0  0.67105  0.87100  0.69778  1.0000
  F   F45       1.0  0.91741  0.37461  0.20064  1.0000
  F   F46       1.0  0.92581  0.38780  0.67911  1.0000
  F   F47       1.0  0.91484  0.85520  0.20936  1.0000
  F   F48       1.0  0.91641  0.86881  0.70260  1.0000
  F   F49       1.0  0.05755  0.15508  0.05359  1.0000
  F   F50       1.0  0.06494  0.15481  0.54522  1.0000
  F   F51       1.0  0.06323  0.66739  0.05153  1.0000
  F   F52       1.0  0.06586  0.65718  0.54827  1.0000
  F   F53       1.0  0.31028  0.16077  0.04920  1.0000
  F   F54       1.0  0.31692  0.16710  0.54246  1.0000
  F   F55       1.0  0.29840  0.64257  0.06700  1.0000
  F   F56       1.0  0.31169  0.65785  0.56292  1.0000
  F   F57       1.0  0.56608  0.16812  0.05621  1.0000
  F   F58       1.0  0.55234  0.14129  0.57090  1.0000
  F   F59       1.0  0.58223  0.66177  0.03509  1.0000
  F   F60       1.0  0.56250  0.65712  0.55710  1.0000
  F   F61       1.0  0.81835  0.16232  0.05691  1.0000
  F   F62       1.0  0.81910  0.17365  0.56116  1.0000
  F   F63       1.0  0.81197  0.64312  0.06372  1.0000
  F   F64       1.0  0.81504  0.64625  0.56033  1.0000
  F   F65       1.0  0.20578  0.19682  0.19528  1.0000
  F   F66       1.0  0.20189  0.20841  0.70964  1.0000
  F   F67       1.0  0.20473  0.68801  0.21363  1.0000
  F   F68       1.0  0.18590  0.71815  0.70591  1.0000
  F   F69       1.0  0.45786  0.19867  0.21029  1.0000
  F   F70       1.0  0.45604  0.20270  0.71728  1.0000
  F   F71       1.0  0.45024  0.68411  0.21922  1.0000
  F   F72       1.0  0.45193  0.69946  0.71966  1.0000
  F   F73       1.0  0.69701  0.18762  0.23101  1.0000
  F   F74       1.0  0.69840  0.19679  0.72503  1.0000
  F   F75       1.0  0.69569  0.69509  0.21730  1.0000
  F   F76       1.0  0.70884  0.70711  0.71231  1.0000
  F   F77       1.0  0.95210  0.20820  0.21476  1.0000
  F   F78       1.0  0.94145  0.20146  0.72008  1.0000
  F   F79       1.0  0.96022  0.70881  0.20305  1.0000
  F   F80       1.0  0.95864  0.69927  0.69922  1.0000
  F   F81       1.0  0.14650  0.08230  0.04622  1.0000
  F   F82       1.0  0.15430  0.10124  0.52675  1.0000
  F   F83       1.0  0.14764  0.60227  0.03780  1.0000
  F   F84       1.0  0.14817  0.57012  0.53875  1.0000
  F   F85       1.0  0.39380  0.08655  0.03281  1.0000
  F   F86       1.0  0.39309  0.09793  0.53314  1.0000
  F   F87       1.0  0.40131  0.60070  0.03377  1.0000
  F   F88       1.0  0.40379  0.58582  0.53813  1.0000
  F   F89       1.0  0.65147  0.08520  0.04993  1.0000
  F   F90       1.0  0.64724  0.10776  0.53809  1.0000
  F   F91       1.0  0.65422  0.57266  0.04777  1.0000
  F   F92       1.0  0.65004  0.58349  0.53958  1.0000
  F   F93       1.0  0.90395  0.10060  0.03432  1.0000
  F   F94       1.0  0.90341  0.06923  0.53609  1.0000
  F   F95       1.0  0.90450  0.59893  0.03904  1.0000
  F   F96       1.0  0.89821  0.58650  0.53743  1.0000
  F   F97       1.0  0.14949  0.20492  0.11233  1.0000
  F   F98       1.0  0.14870  0.19576  0.62681  1.0000
  F   F99       1.0  0.15298  0.70231  0.11965  1.0000
  F   F100      1.0  0.15266  0.70678  0.58494  1.0000
  F   F101      1.0  0.40345  0.19819  0.12217  1.0000
  F   F102      1.0  0.40637  0.18953  0.63596  1.0000
  F   F103      1.0  0.40695  0.69783  0.11881  1.0000
  F   F104      1.0  0.39977  0.69902  0.63403  1.0000
  F   F105      1.0  0.64704  0.19664  0.13755  1.0000
  F   F106      1.0  0.65034  0.19730  0.63275  1.0000
  F   F107      1.0  0.65097  0.68794  0.11621  1.0000
  F   F108      1.0  0.65327  0.69688  0.61516  1.0000
  F   F109      1.0  0.90728  0.18426  0.13291  1.0000
  F   F110      1.0  0.90034  0.20121  0.61825  1.0000
  F   F111      1.0  0.89870  0.70706  0.12446  1.0000
  F   F112      1.0  0.89559  0.70004  0.62406  1.0000
  F   F113      1.0  0.09620  0.30250  0.36544  1.0000
  F   F114      1.0  0.09631  0.30648  0.86430  1.0000
  F   F115      1.0  0.09769  0.80757  0.36330  1.0000
  F   F116      1.0  0.10009  0.79862  0.87367  1.0000
  F   F117      1.0  0.34574  0.31036  0.36639  1.0000
  F   F118      1.0  0.34505  0.30036  0.87313  1.0000
  F   F119      1.0  0.34773  0.81429  0.36561  1.0000
  F   F120      1.0  0.34766  0.79174  0.88478  1.0000
  F   F121      1.0  0.60163  0.29118  0.40404  1.0000
  F   F122      1.0  0.59108  0.31835  0.89027  1.0000
  F   F123      1.0  0.59894  0.80017  0.37155  1.0000
  F   F124      1.0  0.59924  0.80881  0.87581  1.0000
  F   F125      1.0  0.84509  0.30819  0.38189  1.0000
  F   F126      1.0  0.85122  0.31377  0.88492  1.0000
  F   F127      1.0  0.84168  0.81119  0.37606  1.0000
  F   F128      1.0  0.84701  0.80205  0.87573  1.0000
  F   F129      1.0  0.07144  0.25053  0.11615  1.0000
  F   F130      1.0  0.07187  0.26223  0.62010  1.0000
  F   F131      1.0  0.06750  0.76041  0.13130  1.0000
  F   F132      1.0  0.05626  0.74465  0.65298  1.0000
  F   F133      1.0  0.32497  0.25089  0.11678  1.0000
  F   F134      1.0  0.31588  0.25210  0.64309  1.0000
  F   F135      1.0  0.31719  0.74510  0.12999  1.0000
  F   F136      1.0  0.32257  0.75889  0.63072  1.0000
  F   F137      1.0  0.55380  0.24399  0.17661  1.0000
  F   F138      1.0  0.56648  0.24725  0.64281  1.0000
  F   F139      1.0  0.56385  0.74564  0.14318  1.0000
  F   F140      1.0  0.56305  0.73936  0.64425  1.0000
  F   F141      1.0  0.81022  0.25168  0.14919  1.0000
  F   F142      1.0  0.81349  0.25711  0.65514  1.0000
  F   F143      1.0  0.81543  0.75436  0.12890  1.0000
  F   F144      1.0  0.80755  0.75338  0.64725  1.0000
  F   F145      1.0  0.12589  0.37209  0.09844  1.0000
  F   F146      1.0  0.12693  0.39973  0.58420  1.0000
  F   F147      1.0  0.12357  0.88764  0.08720  1.0000
  F   F148      1.0  0.12716  0.86101  0.61314  1.0000
  F   F149      1.0  0.37443  0.37557  0.09941  1.0000
  F   F150      1.0  0.37291  0.37738  0.60772  1.0000
  F   F151      1.0  0.37343  0.86647  0.11092  1.0000
  F   F152      1.0  0.37656  0.88309  0.60336  1.0000
  F   F153      1.0  0.62263  0.37315  0.11286  1.0000
  F   F154      1.0  0.62387  0.36860  0.61754  1.0000
  F   F155      1.0  0.62381  0.84943  0.12165  1.0000
  F   F156      1.0  0.62798  0.87241  0.61016  1.0000
  F   F157      1.0  0.86938  0.36082  0.10344  1.0000
  F   F158      1.0  0.87872  0.37109  0.60212  1.0000
  F   F159      1.0  0.87577  0.87388  0.09965  1.0000
  F   F160      1.0  0.87630  0.87532  0.59297  1.0000
  F   F161      1.0  0.18897  0.25143  0.34086  1.0000
  F   F162      1.0  0.17539  0.23935  0.88408  1.0000
  F   F163      1.0  0.17800  0.74450  0.35650  1.0000
  F   F164      1.0  0.18115  0.74491  0.85780  1.0000
  F   F165      1.0  0.43536  0.24593  0.36020  1.0000
  F   F166      1.0  0.43037  0.25142  0.86524  1.0000
  F   F167      1.0  0.43031  0.73510  0.37105  1.0000
  F   F168      1.0  0.44102  0.75326  0.85873  1.0000
  F   F169      1.0  0.69353  0.25684  0.34113  1.0000
  F   F170      1.0  0.68758  0.24742  0.86268  1.0000
  F   F171      1.0  0.68421  0.74597  0.35596  1.0000
  F   F172      1.0  0.68444  0.73740  0.86305  1.0000
  F   F173      1.0  0.93574  0.25080  0.35434  1.0000
  F   F174      1.0  0.93281  0.25581  0.84855  1.0000
  F   F175      1.0  0.94080  0.74518  0.35852  1.0000
  F   F176      1.0  0.94125  0.75431  0.84373  1.0000
  F   F177      1.0  0.12685  0.12436  0.38797  1.0000
  F   F178      1.0  0.12435  0.13088  0.88090  1.0000
  F   F179      1.0  0.12094  0.61478  0.39989  1.0000
  F   F180      1.0  0.12189  0.62728  0.88873  1.0000
  F   F181      1.0  0.38077  0.13724  0.37668  1.0000
  F   F182      1.0  0.37578  0.13085  0.87489  1.0000
  F   F183      1.0  0.36830  0.61252  0.40883  1.0000
  F   F184      1.0  0.37506  0.63218  0.88640  1.0000
  F   F185      1.0  0.61967  0.12311  0.40147  1.0000
  F   F186      1.0  0.62096  0.12421  0.91869  1.0000
  F   F187      1.0  0.62270  0.62032  0.40456  1.0000
  F   F188      1.0  0.62879  0.61636  0.89713  1.0000
  F   F189      1.0  0.87453  0.13664  0.39326  1.0000
  F   F190      1.0  0.87261  0.11586  0.90662  1.0000
  F   F191      1.0  0.88080  0.64393  0.37257  1.0000
  F   F192      1.0  0.87803  0.61806  0.90482  1.0000
  F   F193      1.0  0.00773  0.36420  0.07250  1.0000
  F   F194      1.0  0.00689  0.34592  0.59633  1.0000
  F   F195      1.0  0.00698  0.87361  0.07600  1.0000
  F   F196      1.0  0.00973  0.85518  0.56615  1.0000
  F   F197      1.0  0.25867  0.34926  0.06743  1.0000
  F   F198      1.0  0.25022  0.36561  0.58369  1.0000
  F   F199      1.0  0.25421  0.85842  0.07712  1.0000
  F   F200      1.0  0.25764  0.86074  0.57689  1.0000
  F   F201      1.0  0.50524  0.36990  0.07917  1.0000
  F   F202      1.0  0.50750  0.35542  0.58826  1.0000
  F   F203      1.0  0.50679  0.86373  0.08107  1.0000
  F   F204      1.0  0.50753  0.86327  0.57387  1.0000
  F   F205      1.0  0.75477  0.36029  0.07822  1.0000
  F   F206      1.0  0.75278  0.36677  0.58230  1.0000
  F   F207      1.0  0.75619  0.87334  0.06349  1.0000
  F   F208      1.0  0.75842  0.88210  0.56155  1.0000
  F   F209      1.0  0.07305  0.48456  0.16680  1.0000
  F   F210      1.0  0.07061  0.48091  0.68653  1.0000
  F   F211      1.0  0.06580  0.98969  0.17826  1.0000
  F   F212      1.0  0.07410  0.99183  0.65340  1.0000
  F   F213      1.0  0.32212  0.48367  0.16664  1.0000
  F   F214      1.0  0.31570  0.48998  0.67922  1.0000
  F   F215      1.0  0.32052  0.98321  0.18391  1.0000
  F   F216      1.0  0.32332  0.99777  0.66939  1.0000
  F   F217      1.0  0.56146  0.49156  0.17305  1.0000
  F   F218      1.0  0.56940  0.48946  0.66759  1.0000
  F   F219      1.0  0.57446  0.98611  0.16476  1.0000
  F   F220      1.0  0.56536  0.98181  0.68774  1.0000
  F   F221      1.0  0.82118  0.48283  0.15652  1.0000
  F   F222      1.0  0.81657  0.48508  0.67802  1.0000
  F   F223      1.0  0.81999  0.98425  0.17449  1.0000
  F   F224      1.0  0.81808  0.98796  0.67642  1.0000
  F   F225      1.0  0.24282  0.13825  0.42680  1.0000
  F   F226      1.0  0.23817  0.12316  0.93308  1.0000
  F   F227      1.0  0.24253  0.64508  0.41270  1.0000
  F   F228      1.0  0.23925  0.65304  0.92669  1.0000
  F   F229      1.0  0.48823  0.12978  0.44352  1.0000
  F   F230      1.0  0.48793  0.13738  0.92339  1.0000
  F   F231      1.0  0.49293  0.63831  0.42433  1.0000
  F   F232      1.0  0.49690  0.63786  0.91920  1.0000
  F   F233      1.0  0.73848  0.13648  0.43515  1.0000
  F   F234      1.0  0.74470  0.14625  0.93499  1.0000
  F   F235      1.0  0.73993  0.63984  0.42497  1.0000
  F   F236      1.0  0.74773  0.64774  0.91242  1.0000
  F   F237      1.0  0.99223  0.14096  0.42392  1.0000
  F   F238      1.0  0.99436  0.13600  0.92651  1.0000
  F   F239      1.0  0.99893  0.62765  0.42290  1.0000
  F   F240      1.0  0.99298  0.63426  0.93440  1.0000
  F   F241      1.0  0.18001  0.02057  0.31886  1.0000
  F   F242      1.0  0.17958  0.02301  0.81849  1.0000
  F   F243      1.0  0.18835  0.51607  0.30773  1.0000
  F   F244      1.0  0.18821  0.51537  0.82585  1.0000
  F   F245      1.0  0.43541  0.01061  0.33585  1.0000
  F   F246      1.0  0.43382  0.00810  0.82144  1.0000
  F   F247      1.0  0.42208  0.51502  0.32334  1.0000
  F   F248      1.0  0.43675  0.51185  0.82539  1.0000
  F   F249      1.0  0.67524  0.00973  0.32509  1.0000
  F   F250      1.0  0.67725  0.02301  0.82755  1.0000
  F   F251      1.0  0.67808  0.51076  0.33849  1.0000
  F   F252      1.0  0.68349  0.50935  0.82782  1.0000
  F   F253      1.0  0.92841  0.01856  0.31879  1.0000
  F   F254      1.0  0.93592  0.01422  0.82223  1.0000
  F   F255      1.0  0.92630  0.52195  0.32539  1.0000
  F   F256      1.0  0.93233  0.51200  0.83162  1.0000
  F   F257      1.0  0.99662  0.25169  0.00148  1.0000
  F   F258      1.0  0.00074  0.25304  0.49499  1.0000
  F   F259      1.0  0.00397  0.75782  0.98681  1.0000
  F   F260      1.0  0.99561  0.74486  0.49874  1.0000
  F   F261      1.0  0.25140  0.24806  0.98379  1.0000
  F   F262      1.0  0.24572  0.24273  0.50322  1.0000
  F   F263      1.0  0.25267  0.76279  0.98506  1.0000
  F   F264      1.0  0.25006  0.74699  0.49904  1.0000
  F   F265      1.0  0.50065  0.25076  0.00622  1.0000
  F   F266      1.0  0.50109  0.26574  0.49520  1.0000
  F   F267      1.0  0.50882  0.74833  0.00101  1.0000
  F   F268      1.0  0.50001  0.75306  0.49759  1.0000
  F   F269      1.0  0.75016  0.23174  0.03165  1.0000
  F   F270      1.0  0.74737  0.23497  0.51014  1.0000
  F   F271      1.0  0.75148  0.75236  0.99640  1.0000
  F   F272      1.0  0.75144  0.74164  0.50542  1.0000
  F   F273      1.0  0.12249  0.98884  0.25988  1.0000
  F   F274      1.0  0.12178  0.00811  0.74706  1.0000
  F   F275      1.0  0.13305  0.51244  0.22603  1.0000
  F   F276      1.0  0.13494  0.50887  0.73845  1.0000
  F   F277      1.0  0.38371  0.00545  0.24582  1.0000
  F   F278      1.0  0.37744  0.99683  0.75371  1.0000
  F   F279      1.0  0.36729  0.50264  0.25454  1.0000
  F   F280      1.0  0.37547  0.49287  0.74412  1.0000
  F   F281      1.0  0.62257  0.98758  0.26031  1.0000
  F   F282      1.0  0.62278  0.99571  0.75837  1.0000
  F   F283      1.0  0.62343  0.49296  0.25546  1.0000
  F   F284      1.0  0.62536  0.49254  0.75393  1.0000
  F   F285      1.0  0.87409  0.99598  0.24441  1.0000
  F   F286      1.0  0.87571  0.99729  0.75823  1.0000
  F   F287      1.0  0.86649  0.49614  0.26083  1.0000
  F   F288      1.0  0.87914  0.51175  0.74799  1.0000
  F   F289      1.0  0.04581  0.03510  0.01255  1.0000
  F   F290      1.0  0.04506  0.02687  0.50651  1.0000
  F   F291      1.0  0.04768  0.53391  0.01152  1.0000
  F   F292      1.0  0.03533  0.52255  0.54273  1.0000
  F   F293      1.0  0.30372  0.02687  0.02098  1.0000
  F   F294      1.0  0.30008  0.02359  0.51670  1.0000
  F   F295      1.0  0.29016  0.52143  0.02248  1.0000
  F   F296      1.0  0.28854  0.53776  0.52473  1.0000
  F   F297      1.0  0.53628  0.03006  0.02809  1.0000
  F   F298      1.0  0.54352  0.01801  0.53341  1.0000
  F   F299      1.0  0.53965  0.53902  0.01824  1.0000
  F   F300      1.0  0.53709  0.53229  0.52745  1.0000
  F   F301      1.0  0.79614  0.02364  0.02456  1.0000
  F   F302      1.0  0.79752  0.04572  0.52195  1.0000
  F   F303      1.0  0.78867  0.53799  0.02125  1.0000
  F   F304      1.0  0.80146  0.53223  0.50763  1.0000
  F   F305      1.0  0.23379  0.41826  0.22112  1.0000
  F   F306      1.0  0.23223  0.40209  0.73406  1.0000
  F   F307      1.0  0.23997  0.92569  0.21300  1.0000
  F   F308      1.0  0.24128  0.90995  0.72646  1.0000
  F   F309      1.0  0.48142  0.40626  0.23199  1.0000
  F   F310      1.0  0.48678  0.40991  0.73153  1.0000
  F   F311      1.0  0.48117  0.91908  0.21977  1.0000
  F   F312      1.0  0.48358  0.91456  0.72832  1.0000
  F   F313      1.0  0.73412  0.43195  0.22197  1.0000
  F   F314      1.0  0.73609  0.40725  0.73141  1.0000
  F   F315      1.0  0.73609  0.92196  0.22247  1.0000
  F   F316      1.0  0.73569  0.91027  0.73064  1.0000
  F   F317      1.0  0.98277  0.41609  0.21704  1.0000
  F   F318      1.0  0.98747  0.41775  0.74285  1.0000
  F   F319      1.0  0.98098  0.91606  0.22286  1.0000
  F   F320      1.0  0.99018  0.90880  0.71387  1.0000
  F   F321      1.0  0.21586  0.46811  0.45831  1.0000
  F   F322      1.0  0.21454  0.47097  0.97593  1.0000
  F   F323      1.0  0.20647  0.98026  0.47047  1.0000
  F   F324      1.0  0.20460  0.96644  0.98442  1.0000
  F   F325      1.0  0.45820  0.46887  0.47054  1.0000
  F   F326      1.0  0.45431  0.46583  0.98846  1.0000
  F   F327      1.0  0.45943  0.96875  0.47464  1.0000
  F   F328      1.0  0.45494  0.96247  0.97923  1.0000
  F   F329      1.0  0.70895  0.46259  0.49208  1.0000
  F   F330      1.0  0.71103  0.46016  0.98608  1.0000
  F   F331      1.0  0.70325  0.97633  0.48099  1.0000
  F   F332      1.0  0.70695  0.97379  0.97667  1.0000
  F   F333      1.0  0.96241  0.46453  0.45077  1.0000
  F   F334      1.0  0.95490  0.47088  0.98593  1.0000
  F   F335      1.0  0.96375  0.96248  0.46515  1.0000
  F   F336      1.0  0.96122  0.96661  0.97786  1.0000
  F   F337      1.0  0.01121  0.09593  0.26465  1.0000
  F   F338      1.0  0.01061  0.09876  0.76182  1.0000
  F   F339      1.0  0.02304  0.58944  0.25747  1.0000
  F   F340      1.0  0.01657  0.57296  0.77958  1.0000
  F   F341      1.0  0.26568  0.09583  0.26170  1.0000
  F   F342      1.0  0.26536  0.09068  0.76245  1.0000
  F   F343      1.0  0.27240  0.57474  0.27627  1.0000
  F   F344      1.0  0.25614  0.61980  0.75776  1.0000
  F   F345      1.0  0.51863  0.07772  0.27432  1.0000
  F   F346      1.0  0.51359  0.08734  0.77454  1.0000
  F   F347      1.0  0.51421  0.57449  0.27835  1.0000
  F   F348      1.0  0.51760  0.57501  0.78152  1.0000
  F   F349      1.0  0.76322  0.08547  0.28310  1.0000
  F   F350      1.0  0.76642  0.09052  0.77935  1.0000
  F   F351      1.0  0.76658  0.58768  0.26121  1.0000
  F   F352      1.0  0.76828  0.57563  0.78207  1.0000
  F   F353      1.0  0.10442  0.41411  0.44917  1.0000
  F   F354      1.0  0.09818  0.41665  0.95206  1.0000
  F   F355      1.0  0.11102  0.90428  0.46474  1.0000
  F   F356      1.0  0.09989  0.90986  0.95116  1.0000
  F   F357      1.0  0.34625  0.39501  0.47408  1.0000
  F   F358      1.0  0.35288  0.41764  0.95352  1.0000
  F   F359      1.0  0.35608  0.90630  0.44953  1.0000
  F   F360      1.0  0.34967  0.89819  0.96570  1.0000
  F   F361      1.0  0.59858  0.41470  0.47464  1.0000
  F   F362      1.0  0.60350  0.41187  0.96842  1.0000
  F   F363      1.0  0.60237  0.90250  0.46713  1.0000
  F   F364      1.0  0.59846  0.90680  0.96980  1.0000
  F   F365      1.0  0.84464  0.40066  0.47601  1.0000
  F   F366      1.0  0.84764  0.42866  0.96225  1.0000
  F   F367      1.0  0.85053  0.89486  0.46336  1.0000
  F   F368      1.0  0.85018  0.90526  0.96145  1.0000
  F   F369      1.0  0.04871  0.30088  0.27362  1.0000
  F   F370      1.0  0.04049  0.30203  0.78627  1.0000
  F   F371      1.0  0.04853  0.80036  0.27325  1.0000
  F   F372      1.0  0.04881  0.80415  0.78202  1.0000
  F   F373      1.0  0.29556  0.30525  0.28065  1.0000
  F   F374      1.0  0.29481  0.30594  0.78409  1.0000
  F   F375      1.0  0.29159  0.80426  0.27461  1.0000
  F   F376      1.0  0.30034  0.79309  0.78341  1.0000
  F   F377      1.0  0.55457  0.29178  0.30460  1.0000
  F   F378      1.0  0.54357  0.30199  0.80438  1.0000
  F   F379      1.0  0.54362  0.79637  0.28990  1.0000
  F   F380      1.0  0.54844  0.80579  0.78601  1.0000
  F   F381      1.0  0.79175  0.29931  0.29787  1.0000
  F   F382      1.0  0.80569  0.30623  0.80028  1.0000
  F   F383      1.0  0.79647  0.79637  0.28319  1.0000
  F   F384      1.0  0.80372  0.80308  0.77553  1.0000
