data_image0
_chemical_formula_structural       Hf96F384
_chemical_formula_sum              "Hf96 F384"
_cell_length_a       31.0565
_cell_length_b       15.5303
_cell_length_c       15.5102
_cell_angle_alpha    63.342
_cell_angle_beta     63.342
_cell_angle_gamma    80.1625

_space_group_name_H-M_alt    "P 1"
_space_group_IT_number       1

loop_
  _space_group_symop_operation_xyz
  'x, y, z'

loop_
  _atom_site_type_symbol
  _atom_site_label
  _atom_site_symmetry_multiplicity
  _atom_site_fract_x
  _atom_site_fract_y
  _atom_site_fract_z
  _atom_site_occupancy
  Hf  Hf1       1.0  0.19776  0.10913  0.36956  1.0000
  Hf  Hf2       1.0  0.20011  0.10530  0.87554  1.0000
  Hf  Hf3       1.0  0.19557  0.60579  0.37938  1.0000
  Hf  Hf4       1.0  0.19188  0.60950  0.88193  1.0000
  Hf  Hf5       1.0  0.44737  0.10658  0.37390  1.0000
  Hf  Hf6       1.0  0.44747  0.10910  0.87707  1.0000
  Hf  Hf7       1.0  0.44518  0.60771  0.37263  1.0000
  Hf  Hf8       1.0  0.44539  0.59990  0.88145  1.0000
  Hf  Hf9       1.0  0.69597  0.10868  0.36708  1.0000
  Hf  Hf10      1.0  0.69967  0.10705  0.87710  1.0000
  Hf  Hf11      1.0  0.69286  0.60099  0.38135  1.0000
  Hf  Hf12      1.0  0.69625  0.60609  0.87956  1.0000
  Hf  Hf13      1.0  0.94639  0.11045  0.36741  1.0000
  Hf  Hf14      1.0  0.94834  0.10709  0.87554  1.0000
  Hf  Hf15      1.0  0.94718  0.60033  0.38113  1.0000
  Hf  Hf16      1.0  0.94565  0.60998  0.87071  1.0000
  Hf  Hf17      1.0  0.05417  0.39637  0.11933  1.0000
  Hf  Hf18      1.0  0.05977  0.38832  0.62397  1.0000
  Hf  Hf19      1.0  0.05416  0.89021  0.12663  1.0000
  Hf  Hf20      1.0  0.04913  0.89286  0.62891  1.0000
  Hf  Hf21      1.0  0.30218  0.39715  0.12620  1.0000
  Hf  Hf22      1.0  0.30651  0.38964  0.62930  1.0000
  Hf  Hf23      1.0  0.30640  0.89249  0.12884  1.0000
  Hf  Hf24      1.0  0.30235  0.89482  0.63269  1.0000
  Hf  Hf25      1.0  0.55413  0.40629  0.11102  1.0000
  Hf  Hf26      1.0  0.55345  0.38884  0.62016  1.0000
  Hf  Hf27      1.0  0.55645  0.89513  0.12023  1.0000
  Hf  Hf28      1.0  0.55294  0.89498  0.62387  1.0000
  Hf  Hf29      1.0  0.80291  0.38956  0.12789  1.0000
  Hf  Hf30      1.0  0.80114  0.40114  0.62631  1.0000
  Hf  Hf31      1.0  0.80451  0.89216  0.12389  1.0000
  Hf  Hf32      1.0  0.80207  0.90070  0.61950  1.0000
  Hf  Hf33      1.0  0.05807  0.18518  0.41469  1.0000
  Hf  Hf34      1.0  0.05405  0.17951  0.92664  1.0000
  Hf  Hf35      1.0  0.05774  0.68082  0.42083  1.0000
  Hf  Hf36      1.0  0.05635  0.68037  0.91844  1.0000
  Hf  Hf37      1.0  0.30997  0.19332  0.40343  1.0000
  Hf  Hf38      1.0  0.30484  0.17853  0.92129  1.0000
  Hf  Hf39      1.0  0.30648  0.69190  0.41903  1.0000
  Hf  Hf40      1.0  0.30592  0.67798  0.92069  1.0000
  Hf  Hf41      1.0  0.55760  0.19480  0.40633  1.0000
  Hf  Hf42      1.0  0.56078  0.18143  0.91211  1.0000
  Hf  Hf43      1.0  0.54726  0.68213  0.41946  1.0000
  Hf  Hf44      1.0  0.55486  0.68505  0.91072  1.0000
  Hf  Hf45      1.0  0.80355  0.17576  0.41735  1.0000
  Hf  Hf46      1.0  0.80791  0.18397  0.91097  1.0000
  Hf  Hf47      1.0  0.80608  0.67955  0.41434  1.0000
  Hf  Hf48      1.0  0.80573  0.68136  0.91491  1.0000
  Hf  Hf49      1.0  0.15718  0.38979  0.33858  1.0000
  Hf  Hf50      1.0  0.16197  0.38605  0.83311  1.0000
  Hf  Hf51      1.0  0.15661  0.88334  0.33642  1.0000
  Hf  Hf52      1.0  0.15425  0.89577  0.83376  1.0000
  Hf  Hf53      1.0  0.41402  0.38348  0.33221  1.0000
  Hf  Hf54      1.0  0.41442  0.38955  0.82394  1.0000
  Hf  Hf55      1.0  0.41178  0.89433  0.32391  1.0000
  Hf  Hf56      1.0  0.40862  0.89256  0.83139  1.0000
  Hf  Hf57      1.0  0.65877  0.39100  0.33472  1.0000
  Hf  Hf58      1.0  0.65862  0.38581  0.83176  1.0000
  Hf  Hf59      1.0  0.65695  0.88414  0.33389  1.0000
  Hf  Hf60      1.0  0.65829  0.89074  0.82767  1.0000
  Hf  Hf61      1.0  0.90931  0.39710  0.32752  1.0000
  Hf  Hf62      1.0  0.90935  0.38752  0.82654  1.0000
  Hf  Hf63      1.0  0.90520  0.87762  0.34312  1.0000
  Hf  Hf64      1.0  0.90898  0.88911  0.83263  1.0000
  Hf  Hf65      1.0  0.19438  0.31449  0.08478  1.0000
  Hf  Hf66      1.0  0.20052  0.31336  0.57917  1.0000
  Hf  Hf67      1.0  0.19349  0.80595  0.09112  1.0000
  Hf  Hf68      1.0  0.19322  0.81740  0.58832  1.0000
  Hf  Hf69      1.0  0.44453  0.30843  0.09359  1.0000
  Hf  Hf70      1.0  0.44279  0.31290  0.58675  1.0000
  Hf  Hf71      1.0  0.44360  0.81615  0.08476  1.0000
  Hf  Hf72      1.0  0.44473  0.82659  0.58080  1.0000
  Hf  Hf73      1.0  0.69192  0.31238  0.08338  1.0000
  Hf  Hf74      1.0  0.69324  0.31943  0.58768  1.0000
  Hf  Hf75      1.0  0.69585  0.81694  0.07855  1.0000
  Hf  Hf76      1.0  0.69261  0.81638  0.58929  1.0000
  Hf  Hf77      1.0  0.94255  0.32081  0.08009  1.0000
  Hf  Hf78      1.0  0.94435  0.31327  0.58361  1.0000
  Hf  Hf79      1.0  0.94418  0.81152  0.08670  1.0000
  Hf  Hf80      1.0  0.94467  0.82037  0.58133  1.0000
  Hf  Hf81      1.0  0.09543  0.11736  0.15996  1.0000
  Hf  Hf82      1.0  0.08901  0.11546  0.66747  1.0000
  Hf  Hf83      1.0  0.09178  0.60638  0.17672  1.0000
  Hf  Hf84      1.0  0.09177  0.60654  0.66984  1.0000
  Hf  Hf85      1.0  0.34262  0.11544  0.16217  1.0000
  Hf  Hf86      1.0  0.34214  0.11099  0.66216  1.0000
  Hf  Hf87      1.0  0.34249  0.60485  0.17625  1.0000
  Hf  Hf88      1.0  0.34106  0.60972  0.67087  1.0000
  Hf  Hf89      1.0  0.59074  0.11034  0.16851  1.0000
  Hf  Hf90      1.0  0.59345  0.11426  0.66212  1.0000
  Hf  Hf91      1.0  0.59291  0.61415  0.16543  1.0000
  Hf  Hf92      1.0  0.59179  0.60630  0.66524  1.0000
  Hf  Hf93      1.0  0.83816  0.11596  0.16176  1.0000
  Hf  Hf94      1.0  0.84021  0.11927  0.65877  1.0000
  Hf  Hf95      1.0  0.84431  0.61708  0.15584  1.0000
  Hf  Hf96      1.0  0.83977  0.61855  0.66733  1.0000
  F   F1        1.0  0.08489  0.13510  0.29786  1.0000
  F   F2        1.0  0.08041  0.13534  0.80281  1.0000
  F   F3        1.0  0.07422  0.62598  0.31137  1.0000
  F   F4        1.0  0.08562  0.63277  0.79913  1.0000
  F   F5        1.0  0.32664  0.14180  0.29648  1.0000
  F   F6        1.0  0.33056  0.13592  0.80686  1.0000
  F   F7        1.0  0.32213  0.61538  0.31447  1.0000
  F   F8        1.0  0.33197  0.62224  0.80168  1.0000
  F   F9        1.0  0.58309  0.13746  0.29653  1.0000
  F   F10       1.0  0.59007  0.15043  0.78390  1.0000
  F   F11       1.0  0.58723  0.64993  0.28334  1.0000
  F   F12       1.0  0.58199  0.63103  0.79903  1.0000
  F   F13       1.0  0.82176  0.14785  0.29361  1.0000
  F   F14       1.0  0.82871  0.12986  0.79832  1.0000
  F   F15       1.0  0.82964  0.62817  0.30317  1.0000
  F   F16       1.0  0.82886  0.62922  0.80273  1.0000
  F   F17       1.0  0.19047  0.33786  0.43560  1.0000
  F   F18       1.0  0.18041  0.32925  0.95671  1.0000
  F   F19       1.0  0.19049  0.84621  0.45198  1.0000
  F   F20       1.0  0.19011  0.85037  0.94641  1.0000
  F   F21       1.0  0.44806  0.34548  0.44081  1.0000
  F   F22       1.0  0.43745  0.33157  0.94463  1.0000
  F   F23       1.0  0.43592  0.85485  0.45021  1.0000
  F   F24       1.0  0.43841  0.84361  0.94292  1.0000
  F   F25       1.0  0.69321  0.35533  0.43705  1.0000
  F   F26       1.0  0.68538  0.33635  0.94766  1.0000
  F   F27       1.0  0.67893  0.83681  0.45206  1.0000
  F   F28       1.0  0.69053  0.84217  0.93707  1.0000
  F   F29       1.0  0.93847  0.33716  0.43861  1.0000
  F   F30       1.0  0.92336  0.31988  0.96483  1.0000
  F   F31       1.0  0.93553  0.83881  0.45351  1.0000
  F   F32       1.0  0.93066  0.83231  0.95849  1.0000
  F   F33       1.0  0.16990  0.37440  0.20055  1.0000
  F   F34       1.0  0.17046  0.34350  0.70781  1.0000
  F   F35       1.0  0.16761  0.86453  0.20447  1.0000
  F   F36       1.0  0.16902  0.87231  0.70455  1.0000
  F   F37       1.0  0.42731  0.37694  0.19530  1.0000
  F   F38       1.0  0.42292  0.37481  0.69300  1.0000
  F   F39       1.0  0.41740  0.86121  0.19886  1.0000
  F   F40       1.0  0.41838  0.85892  0.71299  1.0000
  F   F41       1.0  0.66679  0.37482  0.19698  1.0000
  F   F42       1.0  0.66522  0.35888  0.71217  1.0000
  F   F43       1.0  0.66406  0.86309  0.19612  1.0000
  F   F44       1.0  0.67087  0.88075  0.69166  1.0000
  F   F45       1.0  0.92334  0.37440  0.19034  1.0000
  F   F46       1.0  0.92372  0.35603  0.69658  1.0000
  F   F47       1.0  0.91970  0.86207  0.20395  1.0000
  F   F48       1.0  0.90924  0.86355  0.70776  1.0000
  F   F49       1.0  0.05943  0.16602  0.05290  1.0000
  F   F50       1.0  0.05439  0.16005  0.56530  1.0000
  F   F51       1.0  0.07407  0.67072  0.05320  1.0000
  F   F52       1.0  0.05767  0.64780  0.57000  1.0000
  F   F53       1.0  0.30741  0.15134  0.06104  1.0000
  F   F54       1.0  0.32433  0.17509  0.52913  1.0000
  F   F55       1.0  0.30768  0.64625  0.08055  1.0000
  F   F56       1.0  0.30801  0.65160  0.57170  1.0000
  F   F57       1.0  0.56073  0.13732  0.07315  1.0000
  F   F58       1.0  0.56514  0.15591  0.54812  1.0000
  F   F59       1.0  0.57325  0.67601  0.03481  1.0000
  F   F60       1.0  0.55747  0.65535  0.54897  1.0000
  F   F61       1.0  0.81022  0.15549  0.05280  1.0000
  F   F62       1.0  0.80555  0.15415  0.56464  1.0000
  F   F63       1.0  0.82688  0.66400  0.03420  1.0000
  F   F64       1.0  0.82478  0.65640  0.54174  1.0000
  F   F65       1.0  0.20501  0.20712  0.21411  1.0000
  F   F66       1.0  0.21832  0.18998  0.71443  1.0000
  F   F67       1.0  0.20443  0.69357  0.22153  1.0000
  F   F68       1.0  0.20190  0.70287  0.71222  1.0000
  F   F69       1.0  0.45362  0.19915  0.21831  1.0000
  F   F70       1.0  0.45209  0.18954  0.71855  1.0000
  F   F71       1.0  0.46029  0.69350  0.21091  1.0000
  F   F72       1.0  0.45888  0.69091  0.72602  1.0000
  F   F73       1.0  0.70717  0.20580  0.21434  1.0000
  F   F74       1.0  0.70393  0.20602  0.71057  1.0000
  F   F75       1.0  0.70248  0.70509  0.21161  1.0000
  F   F76       1.0  0.70658  0.71037  0.70825  1.0000
  F   F77       1.0  0.95817  0.19992  0.20735  1.0000
  F   F78       1.0  0.95642  0.19416  0.70364  1.0000
  F   F79       1.0  0.95049  0.69975  0.21305  1.0000
  F   F80       1.0  0.95675  0.70896  0.71035  1.0000
  F   F81       1.0  0.14790  0.10095  0.03862  1.0000
  F   F82       1.0  0.14936  0.11063  0.53524  1.0000
  F   F83       1.0  0.15239  0.60573  0.03613  1.0000
  F   F84       1.0  0.14424  0.58020  0.54560  1.0000
  F   F85       1.0  0.39758  0.09750  0.04650  1.0000
  F   F86       1.0  0.39819  0.07869  0.54273  1.0000
  F   F87       1.0  0.40299  0.58699  0.05062  1.0000
  F   F88       1.0  0.39145  0.59794  0.53596  1.0000
  F   F89       1.0  0.64941  0.08823  0.03588  1.0000
  F   F90       1.0  0.64951  0.08716  0.54211  1.0000
  F   F91       1.0  0.64996  0.60010  0.03844  1.0000
  F   F92       1.0  0.64493  0.57804  0.54985  1.0000
  F   F93       1.0  0.89277  0.09419  0.04125  1.0000
  F   F94       1.0  0.89357  0.12197  0.52729  1.0000
  F   F95       1.0  0.90115  0.59442  0.02456  1.0000
  F   F96       1.0  0.90192  0.58620  0.54455  1.0000
  F   F97       1.0  0.15623  0.19112  0.12324  1.0000
  F   F98       1.0  0.15763  0.20060  0.62914  1.0000
  F   F99       1.0  0.15039  0.68578  0.15188  1.0000
  F   F100      1.0  0.15051  0.69352  0.62134  1.0000
  F   F101      1.0  0.40550  0.18588  0.13323  1.0000
  F   F102      1.0  0.39553  0.19316  0.62682  1.0000
  F   F103      1.0  0.39695  0.70570  0.13360  1.0000
  F   F104      1.0  0.40334  0.70115  0.62591  1.0000
  F   F105      1.0  0.65344  0.18988  0.12842  1.0000
  F   F106      1.0  0.64826  0.21187  0.60719  1.0000
  F   F107      1.0  0.65259  0.69953  0.11949  1.0000
  F   F108      1.0  0.65772  0.68185  0.62498  1.0000
  F   F109      1.0  0.89888  0.17953  0.13116  1.0000
  F   F110      1.0  0.89421  0.21246  0.62623  1.0000
  F   F111      1.0  0.89807  0.68248  0.13286  1.0000
  F   F112      1.0  0.90084  0.69387  0.62817  1.0000
  F   F113      1.0  0.09136  0.30823  0.37589  1.0000
  F   F114      1.0  0.09871  0.30989  0.88119  1.0000
  F   F115      1.0  0.09944  0.79944  0.38007  1.0000
  F   F116      1.0  0.08442  0.81004  0.87123  1.0000
  F   F117      1.0  0.35429  0.31393  0.34120  1.0000
  F   F118      1.0  0.35306  0.30347  0.88024  1.0000
  F   F119      1.0  0.34808  0.79948  0.38776  1.0000
  F   F120      1.0  0.34176  0.79433  0.89499  1.0000
  F   F121      1.0  0.59002  0.31015  0.38749  1.0000
  F   F122      1.0  0.59892  0.29375  0.89301  1.0000
  F   F123      1.0  0.59832  0.80099  0.37734  1.0000
  F   F124      1.0  0.59546  0.81614  0.85416  1.0000
  F   F125      1.0  0.84194  0.28471  0.37351  1.0000
  F   F126      1.0  0.85332  0.29420  0.88635  1.0000
  F   F127      1.0  0.84565  0.78850  0.36477  1.0000
  F   F128      1.0  0.84122  0.81506  0.89790  1.0000
  F   F129      1.0  0.07093  0.26294  0.12323  1.0000
  F   F130      1.0  0.07282  0.24923  0.62994  1.0000
  F   F131      1.0  0.06945  0.74938  0.14568  1.0000
  F   F132      1.0  0.06000  0.75442  0.63896  1.0000
  F   F133      1.0  0.32143  0.26014  0.12324  1.0000
  F   F134      1.0  0.30412  0.24871  0.65172  1.0000
  F   F135      1.0  0.31185  0.75390  0.16233  1.0000
  F   F136      1.0  0.31736  0.75844  0.63770  1.0000
  F   F137      1.0  0.56513  0.25309  0.15153  1.0000
  F   F138      1.0  0.56542  0.26215  0.62441  1.0000
  F   F139      1.0  0.56365  0.75523  0.13774  1.0000
  F   F140      1.0  0.56701  0.75041  0.63311  1.0000
  F   F141      1.0  0.81082  0.25041  0.13342  1.0000
  F   F142      1.0  0.80918  0.25542  0.64673  1.0000
  F   F143      1.0  0.82149  0.75864  0.11504  1.0000
  F   F144      1.0  0.80600  0.74463  0.66081  1.0000
  F   F145      1.0  0.12416  0.36656  0.11622  1.0000
  F   F146      1.0  0.12928  0.37516  0.59860  1.0000
  F   F147      1.0  0.12433  0.87846  0.09834  1.0000
  F   F148      1.0  0.12309  0.86819  0.61365  1.0000
  F   F149      1.0  0.37567  0.34733  0.13837  1.0000
  F   F150      1.0  0.37640  0.37942  0.59558  1.0000
  F   F151      1.0  0.37778  0.88835  0.09255  1.0000
  F   F152      1.0  0.37786  0.87711  0.61311  1.0000
  F   F153      1.0  0.62858  0.37733  0.08699  1.0000
  F   F154      1.0  0.62597  0.38431  0.60485  1.0000
  F   F155      1.0  0.62627  0.89599  0.08626  1.0000
  F   F156      1.0  0.62340  0.85523  0.62262  1.0000
  F   F157      1.0  0.86928  0.35035  0.13102  1.0000
  F   F158      1.0  0.87240  0.37750  0.60682  1.0000
  F   F159      1.0  0.87238  0.85064  0.12537  1.0000
  F   F160      1.0  0.87113  0.86854  0.60390  1.0000
  F   F161      1.0  0.17703  0.24919  0.36804  1.0000
  F   F162      1.0  0.19225  0.24382  0.85508  1.0000
  F   F163      1.0  0.18876  0.75197  0.36621  1.0000
  F   F164      1.0  0.17322  0.75194  0.87117  1.0000
  F   F165      1.0  0.43366  0.24641  0.37322  1.0000
  F   F166      1.0  0.43470  0.24528  0.85835  1.0000
  F   F167      1.0  0.43378  0.76195  0.34567  1.0000
  F   F168      1.0  0.42023  0.73692  0.89179  1.0000
  F   F169      1.0  0.68162  0.25245  0.36305  1.0000
  F   F170      1.0  0.68625  0.24969  0.85905  1.0000
  F   F171      1.0  0.68434  0.74271  0.36137  1.0000
  F   F172      1.0  0.68853  0.76291  0.83451  1.0000
  F   F173      1.0  0.93198  0.24370  0.35280  1.0000
  F   F174      1.0  0.94565  0.24439  0.84978  1.0000
  F   F175      1.0  0.93421  0.74522  0.36616  1.0000
  F   F176      1.0  0.93890  0.74953  0.85674  1.0000
  F   F177      1.0  0.12759  0.13241  0.38757  1.0000
  F   F178      1.0  0.12768  0.13478  0.89097  1.0000
  F   F179      1.0  0.12456  0.63450  0.40037  1.0000
  F   F180      1.0  0.11949  0.60921  0.91420  1.0000
  F   F181      1.0  0.37815  0.12939  0.39113  1.0000
  F   F182      1.0  0.37414  0.12561  0.90549  1.0000
  F   F183      1.0  0.37280  0.63197  0.39480  1.0000
  F   F184      1.0  0.37087  0.62755  0.90081  1.0000
  F   F185      1.0  0.62440  0.14903  0.38075  1.0000
  F   F186      1.0  0.62867  0.12224  0.90370  1.0000
  F   F187      1.0  0.62160  0.61896  0.40162  1.0000
  F   F188      1.0  0.62632  0.63740  0.88706  1.0000
  F   F189      1.0  0.87494  0.11635  0.38767  1.0000
  F   F190      1.0  0.88006  0.12692  0.89392  1.0000
  F   F191      1.0  0.87786  0.61341  0.40520  1.0000
  F   F192      1.0  0.87591  0.63242  0.88210  1.0000
  F   F193      1.0  0.00761  0.36786  0.06583  1.0000
  F   F194      1.0  0.00895  0.34707  0.58590  1.0000
  F   F195      1.0  0.00815  0.85381  0.07714  1.0000
  F   F196      1.0  0.99557  0.88136  0.58733  1.0000
  F   F197      1.0  0.25805  0.36497  0.07782  1.0000
  F   F198      1.0  0.25821  0.36349  0.56654  1.0000
  F   F199      1.0  0.25476  0.84612  0.08399  1.0000
  F   F200      1.0  0.25976  0.86904  0.56671  1.0000
  F   F201      1.0  0.50914  0.36832  0.07191  1.0000
  F   F202      1.0  0.50800  0.35924  0.56290  1.0000
  F   F203      1.0  0.50281  0.86605  0.07610  1.0000
  F   F204      1.0  0.50581  0.84545  0.59114  1.0000
  F   F205      1.0  0.75586  0.36176  0.07127  1.0000
  F   F206      1.0  0.75086  0.35854  0.58389  1.0000
  F   F207      1.0  0.75552  0.84837  0.08913  1.0000
  F   F208      1.0  0.75636  0.86525  0.56984  1.0000
  F   F209      1.0  0.07981  0.48822  0.16509  1.0000
  F   F210      1.0  0.06188  0.47680  0.69025  1.0000
  F   F211      1.0  0.07444  0.97649  0.17702  1.0000
  F   F212      1.0  0.06281  0.98908  0.68738  1.0000
  F   F213      1.0  0.32164  0.47654  0.17735  1.0000
  F   F214      1.0  0.31482  0.47523  0.69502  1.0000
  F   F215      1.0  0.31984  0.99283  0.16174  1.0000
  F   F216      1.0  0.32240  0.99508  0.65796  1.0000
  F   F217      1.0  0.57071  0.49675  0.15915  1.0000
  F   F218      1.0  0.56050  0.49288  0.66913  1.0000
  F   F219      1.0  0.56429  0.97766  0.19238  1.0000
  F   F220      1.0  0.56821  0.97321  0.68434  1.0000
  F   F221      1.0  0.81847  0.48529  0.17089  1.0000
  F   F222      1.0  0.81360  0.48041  0.68351  1.0000
  F   F223      1.0  0.81173  0.97388  0.19408  1.0000
  F   F224      1.0  0.82092  0.99567  0.66012  1.0000
  F   F225      1.0  0.24275  0.14499  0.41592  1.0000
  F   F226      1.0  0.24092  0.12851  0.93933  1.0000
  F   F227      1.0  0.23995  0.63638  0.43721  1.0000
  F   F228      1.0  0.23580  0.62695  0.92945  1.0000
  F   F229      1.0  0.49720  0.13642  0.40899  1.0000
  F   F230      1.0  0.49459  0.14304  0.91446  1.0000
  F   F231      1.0  0.48969  0.64424  0.41838  1.0000
  F   F232      1.0  0.48722  0.63393  0.93739  1.0000
  F   F233      1.0  0.73649  0.12912  0.42814  1.0000
  F   F234      1.0  0.74595  0.14157  0.91717  1.0000
  F   F235      1.0  0.74403  0.64160  0.42439  1.0000
  F   F236      1.0  0.73933  0.63975  0.92777  1.0000
  F   F237      1.0  0.99333  0.13975  0.40940  1.0000
  F   F238      1.0  0.99038  0.12530  0.94463  1.0000
  F   F239      1.0  0.99430  0.63744  0.43396  1.0000
  F   F240      1.0  0.99111  0.62676  0.93182  1.0000
  F   F241      1.0  0.17981  0.02366  0.31090  1.0000
  F   F242      1.0  0.17794  0.01337  0.82885  1.0000
  F   F243      1.0  0.17094  0.51094  0.35348  1.0000
  F   F244      1.0  0.18713  0.51699  0.80739  1.0000
  F   F245      1.0  0.43108  0.02321  0.31354  1.0000
  F   F246      1.0  0.43316  0.01725  0.82237  1.0000
  F   F247      1.0  0.43106  0.51181  0.32867  1.0000
  F   F248      1.0  0.43364  0.52346  0.80900  1.0000
  F   F249      1.0  0.67612  0.01383  0.32969  1.0000
  F   F250      1.0  0.68193  0.02209  0.82104  1.0000
  F   F251      1.0  0.67897  0.51940  0.31267  1.0000
  F   F252      1.0  0.67906  0.51505  0.81986  1.0000
  F   F253      1.0  0.93116  0.00489  0.33676  1.0000
  F   F254      1.0  0.92963  0.01707  0.82135  1.0000
  F   F255      1.0  0.93137  0.52183  0.31259  1.0000
  F   F256      1.0  0.93086  0.50824  0.81715  1.0000
  F   F257      1.0  0.99863  0.26404  0.99136  1.0000
  F   F258      1.0  0.99651  0.24564  0.49410  1.0000
  F   F259      1.0  0.99660  0.72958  0.00509  1.0000
  F   F260      1.0  0.00462  0.75885  0.49990  1.0000
  F   F261      1.0  0.25366  0.26503  0.98973  1.0000
  F   F262      1.0  0.25382  0.25890  0.48686  1.0000
  F   F263      1.0  0.24692  0.75543  0.98949  1.0000
  F   F264      1.0  0.24930  0.74120  0.51340  1.0000
  F   F265      1.0  0.50490  0.26935  0.98475  1.0000
  F   F266      1.0  0.49682  0.22947  0.50710  1.0000
  F   F267      1.0  0.50297  0.75886  0.99509  1.0000
  F   F268      1.0  0.49639  0.75215  0.49965  1.0000
  F   F269      1.0  0.74648  0.23189  0.01395  1.0000
  F   F270      1.0  0.74030  0.23330  0.51126  1.0000
  F   F271      1.0  0.75101  0.75205  0.99291  1.0000
  F   F272      1.0  0.75184  0.75178  0.49593  1.0000
  F   F273      1.0  0.12650  0.00557  0.24964  1.0000
  F   F274      1.0  0.12647  0.01083  0.74005  1.0000
  F   F275      1.0  0.12357  0.49721  0.25537  1.0000
  F   F276      1.0  0.12410  0.48944  0.75218  1.0000
  F   F277      1.0  0.36835  0.99637  0.25681  1.0000
  F   F278      1.0  0.36867  0.99462  0.75644  1.0000
  F   F279      1.0  0.37823  0.50153  0.25701  1.0000
  F   F280      1.0  0.38726  0.50606  0.73109  1.0000
  F   F281      1.0  0.61848  0.99107  0.25330  1.0000
  F   F282      1.0  0.62757  0.00860  0.74497  1.0000
  F   F283      1.0  0.61050  0.49264  0.26334  1.0000
  F   F284      1.0  0.62100  0.49717  0.75216  1.0000
  F   F285      1.0  0.86804  0.99623  0.26337  1.0000
  F   F286      1.0  0.88433  0.00477  0.73187  1.0000
  F   F287      1.0  0.88249  0.50461  0.23925  1.0000
  F   F288      1.0  0.87347  0.50754  0.75125  1.0000
  F   F289      1.0  0.04764  0.02963  0.02521  1.0000
  F   F290      1.0  0.04140  0.03266  0.51864  1.0000
  F   F291      1.0  0.03899  0.53633  0.04082  1.0000
  F   F292      1.0  0.05356  0.53014  0.51358  1.0000
  F   F293      1.0  0.28574  0.02053  0.03246  1.0000
  F   F294      1.0  0.29468  0.03443  0.51174  1.0000
  F   F295      1.0  0.28820  0.53955  0.02498  1.0000
  F   F296      1.0  0.29868  0.52019  0.53440  1.0000
  F   F297      1.0  0.54264  0.04039  0.00359  1.0000
  F   F298      1.0  0.54677  0.02688  0.50962  1.0000
  F   F299      1.0  0.53980  0.54378  0.01337  1.0000
  F   F300      1.0  0.53344  0.52990  0.52382  1.0000
  F   F301      1.0  0.79370  0.03230  0.01840  1.0000
  F   F302      1.0  0.79338  0.02376  0.51178  1.0000
  F   F303      1.0  0.78755  0.54220  0.02356  1.0000
  F   F304      1.0  0.78992  0.52987  0.52823  1.0000
  F   F305      1.0  0.23420  0.41419  0.22522  1.0000
  F   F306      1.0  0.23513  0.41170  0.71820  1.0000
  F   F307      1.0  0.23147  0.90831  0.22959  1.0000
  F   F308      1.0  0.23337  0.91407  0.72276  1.0000
  F   F309      1.0  0.48764  0.40676  0.22784  1.0000
  F   F310      1.0  0.48513  0.40229  0.73144  1.0000
  F   F311      1.0  0.47960  0.93467  0.21689  1.0000
  F   F312      1.0  0.47876  0.91850  0.73492  1.0000
  F   F313      1.0  0.73368  0.41355  0.22908  1.0000
  F   F314      1.0  0.72778  0.42829  0.71515  1.0000
  F   F315      1.0  0.72641  0.91911  0.22174  1.0000
  F   F316      1.0  0.73856  0.92038  0.72220  1.0000
  F   F317      1.0  0.98629  0.40942  0.23760  1.0000
  F   F318      1.0  0.98341  0.40732  0.73139  1.0000
  F   F319      1.0  0.98261  0.91331  0.23112  1.0000
  F   F320      1.0  0.98119  0.90967  0.74076  1.0000
  F   F321      1.0  0.20762  0.46225  0.48172  1.0000
  F   F322      1.0  0.20334  0.46635  0.97031  1.0000
  F   F323      1.0  0.20743  0.97755  0.49072  1.0000
  F   F324      1.0  0.20758  0.97315  0.98007  1.0000
  F   F325      1.0  0.45201  0.48211  0.48868  1.0000
  F   F326      1.0  0.44762  0.45528  0.98361  1.0000
  F   F327      1.0  0.46543  0.97067  0.48407  1.0000
  F   F328      1.0  0.45624  0.97062  0.98286  1.0000
  F   F329      1.0  0.70738  0.47171  0.48275  1.0000
  F   F330      1.0  0.70694  0.47296  0.96409  1.0000
  F   F331      1.0  0.70743  0.96893  0.46392  1.0000
  F   F332      1.0  0.71211  0.96559  0.98740  1.0000
  F   F333      1.0  0.95575  0.46556  0.48026  1.0000
  F   F334      1.0  0.95003  0.46404  0.97527  1.0000
  F   F335      1.0  0.94962  0.98185  0.48153  1.0000
  F   F336      1.0  0.95679  0.95936  0.98199  1.0000
  F   F337      1.0  0.02112  0.08859  0.26367  1.0000
  F   F338      1.0  0.01604  0.08718  0.77000  1.0000
  F   F339      1.0  0.01202  0.57186  0.26974  1.0000
  F   F340      1.0  0.01603  0.59502  0.77581  1.0000
  F   F341      1.0  0.26615  0.09063  0.26555  1.0000
  F   F342      1.0  0.27469  0.06695  0.78146  1.0000
  F   F343      1.0  0.25810  0.56205  0.28922  1.0000
  F   F344      1.0  0.26414  0.59624  0.77595  1.0000
  F   F345      1.0  0.51782  0.07707  0.27691  1.0000
  F   F346      1.0  0.52042  0.08819  0.78025  1.0000
  F   F347      1.0  0.51816  0.57814  0.27662  1.0000
  F   F348      1.0  0.52143  0.57195  0.78585  1.0000
  F   F349      1.0  0.76494  0.07902  0.27422  1.0000
  F   F350      1.0  0.76452  0.08471  0.77409  1.0000
  F   F351      1.0  0.76164  0.59660  0.27010  1.0000
  F   F352      1.0  0.76508  0.58464  0.77326  1.0000
  F   F353      1.0  0.09909  0.39638  0.46609  1.0000
  F   F354      1.0  0.10543  0.42392  0.96677  1.0000
  F   F355      1.0  0.09925  0.90913  0.45348  1.0000
  F   F356      1.0  0.10248  0.89375  0.95867  1.0000
  F   F357      1.0  0.35222  0.38703  0.46060  1.0000
  F   F358      1.0  0.35583  0.43242  0.96284  1.0000
  F   F359      1.0  0.35603  0.90104  0.46891  1.0000
  F   F360      1.0  0.34688  0.91464  0.95962  1.0000
  F   F361      1.0  0.60229  0.40961  0.46636  1.0000
  F   F362      1.0  0.59862  0.41013  0.96136  1.0000
  F   F363      1.0  0.59454  0.89361  0.47426  1.0000
  F   F364      1.0  0.60542  0.91141  0.95142  1.0000
  F   F365      1.0  0.84594  0.40291  0.46042  1.0000
  F   F366      1.0  0.84303  0.41306  0.96141  1.0000
  F   F367      1.0  0.84730  0.88006  0.46500  1.0000
  F   F368      1.0  0.85399  0.92599  0.96240  1.0000
  F   F369      1.0  0.04387  0.29647  0.28778  1.0000
  F   F370      1.0  0.04438  0.28748  0.78976  1.0000
  F   F371      1.0  0.04834  0.79634  0.29185  1.0000
  F   F372      1.0  0.04373  0.78534  0.78322  1.0000
  F   F373      1.0  0.29429  0.30662  0.27444  1.0000
  F   F374      1.0  0.30726  0.30186  0.78349  1.0000
  F   F375      1.0  0.29338  0.81282  0.30040  1.0000
  F   F376      1.0  0.29760  0.80505  0.78780  1.0000
  F   F377      1.0  0.55328  0.32051  0.27885  1.0000
  F   F378      1.0  0.54621  0.29088  0.78624  1.0000
  F   F379      1.0  0.53873  0.80877  0.28846  1.0000
  F   F380      1.0  0.53613  0.79498  0.78859  1.0000
  F   F381      1.0  0.78760  0.29316  0.28993  1.0000
  F   F382      1.0  0.80374  0.29815  0.78052  1.0000
  F   F383      1.0  0.79399  0.79585  0.27909  1.0000
  F   F384      1.0  0.79348  0.80070  0.79129  1.0000
