data_image0
_chemical_formula_structural       Hf96F384
_chemical_formula_sum              "Hf96 F384"
_cell_length_a       31.0334
_cell_length_b       15.5167
_cell_length_c       15.5061
_cell_angle_alpha    63.342
_cell_angle_beta     63.342
_cell_angle_gamma    80.1625

_space_group_name_H-M_alt    "P 1"
_space_group_IT_number       1

loop_
  _space_group_symop_operation_xyz
  'x, y, z'

loop_
  _atom_site_type_symbol
  _atom_site_label
  _atom_site_symmetry_multiplicity
  _atom_site_fract_x
  _atom_site_fract_y
  _atom_site_fract_z
  _atom_site_occupancy
  Hf  Hf1       1.0  0.19393  0.10657  0.37864  1.0000
  Hf  Hf2       1.0  0.19786  0.09907  0.86904  1.0000
  Hf  Hf3       1.0  0.19610  0.60039  0.37125  1.0000
  Hf  Hf4       1.0  0.19413  0.60913  0.88147  1.0000
  Hf  Hf5       1.0  0.44698  0.11224  0.36390  1.0000
  Hf  Hf6       1.0  0.44759  0.11234  0.86673  1.0000
  Hf  Hf7       1.0  0.44486  0.60936  0.36655  1.0000
  Hf  Hf8       1.0  0.44487  0.61107  0.87260  1.0000
  Hf  Hf9       1.0  0.69595  0.10945  0.37364  1.0000
  Hf  Hf10      1.0  0.69683  0.11614  0.86923  1.0000
  Hf  Hf11      1.0  0.69205  0.61061  0.37433  1.0000
  Hf  Hf12      1.0  0.69380  0.60687  0.87552  1.0000
  Hf  Hf13      1.0  0.94687  0.10873  0.37101  1.0000
  Hf  Hf14      1.0  0.94355  0.10920  0.87937  1.0000
  Hf  Hf15      1.0  0.95012  0.60563  0.37711  1.0000
  Hf  Hf16      1.0  0.94664  0.61001  0.87480  1.0000
  Hf  Hf17      1.0  0.05350  0.38732  0.13005  1.0000
  Hf  Hf18      1.0  0.05576  0.39224  0.62065  1.0000
  Hf  Hf19      1.0  0.05064  0.88873  0.13732  1.0000
  Hf  Hf20      1.0  0.05420  0.89370  0.62973  1.0000
  Hf  Hf21      1.0  0.29910  0.38992  0.13874  1.0000
  Hf  Hf22      1.0  0.30386  0.39202  0.62615  1.0000
  Hf  Hf23      1.0  0.30577  0.89270  0.12422  1.0000
  Hf  Hf24      1.0  0.30246  0.88992  0.63219  1.0000
  Hf  Hf25      1.0  0.55760  0.39437  0.12096  1.0000
  Hf  Hf26      1.0  0.55086  0.38891  0.63179  1.0000
  Hf  Hf27      1.0  0.55419  0.89698  0.12733  1.0000
  Hf  Hf28      1.0  0.55425  0.88323  0.63043  1.0000
  Hf  Hf29      1.0  0.80085  0.39551  0.12809  1.0000
  Hf  Hf30      1.0  0.80374  0.39206  0.62663  1.0000
  Hf  Hf31      1.0  0.80756  0.90231  0.10512  1.0000
  Hf  Hf32      1.0  0.80675  0.88959  0.62687  1.0000
  Hf  Hf33      1.0  0.05426  0.17900  0.42311  1.0000
  Hf  Hf34      1.0  0.05802  0.18017  0.91342  1.0000
  Hf  Hf35      1.0  0.05838  0.68042  0.41758  1.0000
  Hf  Hf36      1.0  0.05464  0.67556  0.92818  1.0000
  Hf  Hf37      1.0  0.30281  0.17771  0.42022  1.0000
  Hf  Hf38      1.0  0.30572  0.18565  0.91109  1.0000
  Hf  Hf39      1.0  0.30605  0.68091  0.41720  1.0000
  Hf  Hf40      1.0  0.30377  0.67969  0.91742  1.0000
  Hf  Hf41      1.0  0.55177  0.17984  0.41906  1.0000
  Hf  Hf42      1.0  0.55626  0.18988  0.90982  1.0000
  Hf  Hf43      1.0  0.55328  0.68563  0.41741  1.0000
  Hf  Hf44      1.0  0.55705  0.68789  0.91567  1.0000
  Hf  Hf45      1.0  0.80467  0.18141  0.41711  1.0000
  Hf  Hf46      1.0  0.80598  0.18503  0.91531  1.0000
  Hf  Hf47      1.0  0.80420  0.67651  0.42801  1.0000
  Hf  Hf48      1.0  0.80345  0.67272  0.91884  1.0000
  Hf  Hf49      1.0  0.15837  0.38319  0.34021  1.0000
  Hf  Hf50      1.0  0.15873  0.38040  0.84023  1.0000
  Hf  Hf51      1.0  0.16110  0.88336  0.33553  1.0000
  Hf  Hf52      1.0  0.15369  0.88192  0.84422  1.0000
  Hf  Hf53      1.0  0.40826  0.38843  0.33446  1.0000
  Hf  Hf54      1.0  0.40973  0.39339  0.82856  1.0000
  Hf  Hf55      1.0  0.40931  0.88755  0.33242  1.0000
  Hf  Hf56      1.0  0.41181  0.89335  0.82244  1.0000
  Hf  Hf57      1.0  0.65612  0.38434  0.33562  1.0000
  Hf  Hf58      1.0  0.66096  0.39395  0.82682  1.0000
  Hf  Hf59      1.0  0.66225  0.89067  0.33079  1.0000
  Hf  Hf60      1.0  0.65924  0.89267  0.82604  1.0000
  Hf  Hf61      1.0  0.90786  0.39069  0.32684  1.0000
  Hf  Hf62      1.0  0.90626  0.39001  0.83785  1.0000
  Hf  Hf63      1.0  0.90661  0.89481  0.33457  1.0000
  Hf  Hf64      1.0  0.90919  0.88633  0.83213  1.0000
  Hf  Hf65      1.0  0.19404  0.31401  0.08984  1.0000
  Hf  Hf66      1.0  0.19329  0.31857  0.58519  1.0000
  Hf  Hf67      1.0  0.19485  0.82327  0.08290  1.0000
  Hf  Hf68      1.0  0.19507  0.81180  0.58651  1.0000
  Hf  Hf69      1.0  0.44264  0.32566  0.07620  1.0000
  Hf  Hf70      1.0  0.44147  0.31845  0.58443  1.0000
  Hf  Hf71      1.0  0.44805  0.82008  0.07244  1.0000
  Hf  Hf72      1.0  0.44315  0.81791  0.58215  1.0000
  Hf  Hf73      1.0  0.69411  0.31335  0.08389  1.0000
  Hf  Hf74      1.0  0.69492  0.32487  0.58051  1.0000
  Hf  Hf75      1.0  0.69301  0.81927  0.07999  1.0000
  Hf  Hf76      1.0  0.69777  0.82295  0.57575  1.0000
  Hf  Hf77      1.0  0.94680  0.31492  0.08082  1.0000
  Hf  Hf78      1.0  0.94525  0.31480  0.58847  1.0000
  Hf  Hf79      1.0  0.93748  0.80824  0.09804  1.0000
  Hf  Hf80      1.0  0.94765  0.82006  0.57259  1.0000
  Hf  Hf81      1.0  0.09313  0.10447  0.16753  1.0000
  Hf  Hf82      1.0  0.08773  0.10507  0.67605  1.0000
  Hf  Hf83      1.0  0.09313  0.60321  0.17356  1.0000
  Hf  Hf84      1.0  0.09127  0.60379  0.67551  1.0000
  Hf  Hf85      1.0  0.34342  0.11367  0.16655  1.0000
  Hf  Hf86      1.0  0.34004  0.11554  0.66719  1.0000
  Hf  Hf87      1.0  0.34605  0.61119  0.16189  1.0000
  Hf  Hf88      1.0  0.33998  0.60972  0.67386  1.0000
  Hf  Hf89      1.0  0.59192  0.11050  0.17111  1.0000
  Hf  Hf90      1.0  0.59152  0.12431  0.66382  1.0000
  Hf  Hf91      1.0  0.59196  0.61986  0.15804  1.0000
  Hf  Hf92      1.0  0.59322  0.61657  0.66478  1.0000
  Hf  Hf93      1.0  0.83988  0.11815  0.16933  1.0000
  Hf  Hf94      1.0  0.84612  0.11506  0.66042  1.0000
  Hf  Hf95      1.0  0.83934  0.61461  0.17065  1.0000
  Hf  Hf96      1.0  0.84458  0.61030  0.66229  1.0000
  F   F1        1.0  0.07219  0.10890  0.31895  1.0000
  F   F2        1.0  0.07824  0.11912  0.81411  1.0000
  F   F3        1.0  0.08087  0.63274  0.30200  1.0000
  F   F4        1.0  0.07582  0.61448  0.81747  1.0000
  F   F5        1.0  0.33721  0.14210  0.29521  1.0000
  F   F6        1.0  0.32578  0.11179  0.80738  1.0000
  F   F7        1.0  0.33083  0.62093  0.30680  1.0000
  F   F8        1.0  0.32172  0.60893  0.82056  1.0000
  F   F9        1.0  0.57319  0.11483  0.31385  1.0000
  F   F10       1.0  0.57653  0.13304  0.80694  1.0000
  F   F11       1.0  0.56912  0.63082  0.30348  1.0000
  F   F12       1.0  0.58190  0.65188  0.79601  1.0000
  F   F13       1.0  0.82557  0.12500  0.30788  1.0000
  F   F14       1.0  0.83279  0.13832  0.79837  1.0000
  F   F15       1.0  0.82273  0.62407  0.30288  1.0000
  F   F16       1.0  0.82602  0.62938  0.79818  1.0000
  F   F17       1.0  0.18326  0.32826  0.45068  1.0000
  F   F18       1.0  0.18777  0.32342  0.95284  1.0000
  F   F19       1.0  0.18870  0.83890  0.44906  1.0000
  F   F20       1.0  0.17766  0.83668  0.95504  1.0000
  F   F21       1.0  0.43810  0.33511  0.44686  1.0000
  F   F22       1.0  0.44034  0.34067  0.93349  1.0000
  F   F23       1.0  0.43443  0.83538  0.44313  1.0000
  F   F24       1.0  0.44403  0.83989  0.93530  1.0000
  F   F25       1.0  0.68198  0.33256  0.45510  1.0000
  F   F26       1.0  0.68923  0.34411  0.94615  1.0000
  F   F27       1.0  0.69381  0.84014  0.44601  1.0000
  F   F28       1.0  0.68036  0.85443  0.94618  1.0000
  F   F29       1.0  0.92893  0.32583  0.45182  1.0000
  F   F30       1.0  0.93193  0.33924  0.95663  1.0000
  F   F31       1.0  0.93174  0.83103  0.46031  1.0000
  F   F32       1.0  0.92822  0.83757  0.95225  1.0000
  F   F33       1.0  0.16929  0.37732  0.19886  1.0000
  F   F34       1.0  0.17044  0.36449  0.69546  1.0000
  F   F35       1.0  0.17759  0.88277  0.18683  1.0000
  F   F36       1.0  0.16590  0.86618  0.69441  1.0000
  F   F37       1.0  0.41356  0.37074  0.19823  1.0000
  F   F38       1.0  0.42048  0.38435  0.69155  1.0000
  F   F39       1.0  0.41835  0.86596  0.20110  1.0000
  F   F40       1.0  0.42096  0.87190  0.69475  1.0000
  F   F41       1.0  0.67323  0.37731  0.19238  1.0000
  F   F42       1.0  0.67266  0.39598  0.69006  1.0000
  F   F43       1.0  0.67230  0.86676  0.19879  1.0000
  F   F44       1.0  0.67439  0.89481  0.68094  1.0000
  F   F45       1.0  0.91975  0.37177  0.19053  1.0000
  F   F46       1.0  0.92557  0.38216  0.69032  1.0000
  F   F47       1.0  0.91662  0.86688  0.19802  1.0000
  F   F48       1.0  0.91872  0.86031  0.70044  1.0000
  F   F49       1.0  0.06859  0.16670  0.04970  1.0000
  F   F50       1.0  0.05391  0.14587  0.57368  1.0000
  F   F51       1.0  0.06250  0.64543  0.06002  1.0000
  F   F52       1.0  0.06880  0.67337  0.54034  1.0000
  F   F53       1.0  0.31858  0.16556  0.04567  1.0000
  F   F54       1.0  0.30309  0.14253  0.56990  1.0000
  F   F55       1.0  0.30814  0.65622  0.05377  1.0000
  F   F56       1.0  0.32309  0.65849  0.54451  1.0000
  F   F57       1.0  0.56876  0.17722  0.04693  1.0000
  F   F58       1.0  0.56967  0.17254  0.54312  1.0000
  F   F59       1.0  0.56950  0.67837  0.03725  1.0000
  F   F60       1.0  0.56085  0.66458  0.55461  1.0000
  F   F61       1.0  0.82047  0.17667  0.04195  1.0000
  F   F62       1.0  0.81424  0.15729  0.55488  1.0000
  F   F63       1.0  0.80324  0.65369  0.06431  1.0000
  F   F64       1.0  0.82857  0.66154  0.53670  1.0000
  F   F65       1.0  0.20352  0.20476  0.20318  1.0000
  F   F66       1.0  0.20781  0.19585  0.70919  1.0000
  F   F67       1.0  0.18824  0.69308  0.21385  1.0000
  F   F68       1.0  0.20560  0.69486  0.71506  1.0000
  F   F69       1.0  0.44743  0.20452  0.20160  1.0000
  F   F70       1.0  0.45355  0.19761  0.71139  1.0000
  F   F71       1.0  0.45295  0.70114  0.20716  1.0000
  F   F72       1.0  0.46401  0.70596  0.70520  1.0000
  F   F73       1.0  0.69571  0.19376  0.21819  1.0000
  F   F74       1.0  0.70308  0.21159  0.70156  1.0000
  F   F75       1.0  0.70870  0.71302  0.19844  1.0000
  F   F76       1.0  0.69076  0.70973  0.72818  1.0000
  F   F77       1.0  0.95744  0.19510  0.19579  1.0000
  F   F78       1.0  0.95378  0.20202  0.72252  1.0000
  F   F79       1.0  0.95701  0.69995  0.22611  1.0000
  F   F80       1.0  0.95058  0.70320  0.71477  1.0000
  F   F81       1.0  0.14897  0.06590  0.02846  1.0000
  F   F82       1.0  0.14412  0.08940  0.53677  1.0000
  F   F83       1.0  0.14376  0.57148  0.04949  1.0000
  F   F84       1.0  0.15158  0.58191  0.53963  1.0000
  F   F85       1.0  0.40155  0.09064  0.03820  1.0000
  F   F86       1.0  0.39540  0.09536  0.53208  1.0000
  F   F87       1.0  0.39250  0.58634  0.03566  1.0000
  F   F88       1.0  0.39274  0.58628  0.55246  1.0000
  F   F89       1.0  0.64912  0.10196  0.03285  1.0000
  F   F90       1.0  0.64938  0.10312  0.54004  1.0000
  F   F91       1.0  0.64955  0.59300  0.04129  1.0000
  F   F92       1.0  0.64652  0.58929  0.52887  1.0000
  F   F93       1.0  0.90079  0.08040  0.05167  1.0000
  F   F94       1.0  0.90124  0.10293  0.53443  1.0000
  F   F95       1.0  0.89464  0.61529  0.03215  1.0000
  F   F96       1.0  0.90176  0.57688  0.54062  1.0000
  F   F97       1.0  0.14920  0.19223  0.10595  1.0000
  F   F98       1.0  0.14537  0.19162  0.63019  1.0000
  F   F99       1.0  0.14955  0.69241  0.10212  1.0000
  F   F100      1.0  0.14993  0.70605  0.61945  1.0000
  F   F101      1.0  0.39572  0.20433  0.11697  1.0000
  F   F102      1.0  0.39980  0.19724  0.64306  1.0000
  F   F103      1.0  0.40944  0.69410  0.10910  1.0000
  F   F104      1.0  0.40405  0.69338  0.63631  1.0000
  F   F105      1.0  0.65094  0.20700  0.11574  1.0000
  F   F106      1.0  0.64634  0.20547  0.63841  1.0000
  F   F107      1.0  0.64718  0.70078  0.13320  1.0000
  F   F108      1.0  0.65283  0.67886  0.62477  1.0000
  F   F109      1.0  0.90039  0.19713  0.13026  1.0000
  F   F110      1.0  0.90867  0.18249  0.62905  1.0000
  F   F111      1.0  0.89444  0.69819  0.14724  1.0000
  F   F112      1.0  0.90142  0.69871  0.62084  1.0000
  F   F113      1.0  0.09541  0.29619  0.38204  1.0000
  F   F114      1.0  0.10229  0.30536  0.87524  1.0000
  F   F115      1.0  0.10494  0.80056  0.35609  1.0000
  F   F116      1.0  0.09312  0.80365  0.89165  1.0000
  F   F117      1.0  0.34635  0.30706  0.37859  1.0000
  F   F118      1.0  0.34438  0.30002  0.87199  1.0000
  F   F119      1.0  0.35122  0.79972  0.38536  1.0000
  F   F120      1.0  0.34168  0.79849  0.88376  1.0000
  F   F121      1.0  0.60226  0.31019  0.35476  1.0000
  F   F122      1.0  0.60392  0.30334  0.86439  1.0000
  F   F123      1.0  0.59775  0.81892  0.37580  1.0000
  F   F124      1.0  0.60266  0.80980  0.86189  1.0000
  F   F125      1.0  0.84834  0.30347  0.39015  1.0000
  F   F126      1.0  0.84672  0.30506  0.86183  1.0000
  F   F127      1.0  0.84564  0.80689  0.37930  1.0000
  F   F128      1.0  0.85101  0.79454  0.89275  1.0000
  F   F129      1.0  0.06464  0.24647  0.15241  1.0000
  F   F130      1.0  0.06727  0.25688  0.63456  1.0000
  F   F131      1.0  0.06210  0.74463  0.14717  1.0000
  F   F132      1.0  0.06236  0.75629  0.63904  1.0000
  F   F133      1.0  0.31189  0.25806  0.13906  1.0000
  F   F134      1.0  0.31481  0.25243  0.64536  1.0000
  F   F135      1.0  0.33001  0.75207  0.12205  1.0000
  F   F136      1.0  0.31938  0.75483  0.63821  1.0000
  F   F137      1.0  0.55870  0.24839  0.15786  1.0000
  F   F138      1.0  0.56146  0.25561  0.63797  1.0000
  F   F139      1.0  0.56866  0.75579  0.12950  1.0000
  F   F140      1.0  0.56722  0.75110  0.64421  1.0000
  F   F141      1.0  0.80557  0.25271  0.14876  1.0000
  F   F142      1.0  0.82926  0.26085  0.61669  1.0000
  F   F143      1.0  0.81578  0.74947  0.14554  1.0000
  F   F144      1.0  0.80141  0.75205  0.65355  1.0000
  F   F145      1.0  0.12512  0.35078  0.12092  1.0000
  F   F146      1.0  0.12811  0.38354  0.59431  1.0000
  F   F147      1.0  0.12481  0.84950  0.13122  1.0000
  F   F148      1.0  0.12284  0.87213  0.60010  1.0000
  F   F149      1.0  0.37791  0.37642  0.08385  1.0000
  F   F150      1.0  0.37175  0.37142  0.61001  1.0000
  F   F151      1.0  0.37931  0.86583  0.10143  1.0000
  F   F152      1.0  0.37149  0.86508  0.61864  1.0000
  F   F153      1.0  0.62560  0.37603  0.09725  1.0000
  F   F154      1.0  0.62716  0.37887  0.60364  1.0000
  F   F155      1.0  0.62533  0.88793  0.09437  1.0000
  F   F156      1.0  0.62842  0.84782  0.61679  1.0000
  F   F157      1.0  0.87487  0.36554  0.10267  1.0000
  F   F158      1.0  0.87658  0.35890  0.62721  1.0000
  F   F159      1.0  0.87686  0.87815  0.08865  1.0000
  F   F160      1.0  0.87217  0.86158  0.62269  1.0000
  F   F161      1.0  0.19089  0.25459  0.34158  1.0000
  F   F162      1.0  0.18853  0.24584  0.85472  1.0000
  F   F163      1.0  0.19150  0.74698  0.34927  1.0000
  F   F164      1.0  0.18645  0.75145  0.86291  1.0000
  F   F165      1.0  0.43479  0.24621  0.34774  1.0000
  F   F166      1.0  0.43296  0.24966  0.84862  1.0000
  F   F167      1.0  0.43795  0.74992  0.34826  1.0000
  F   F168      1.0  0.42827  0.74654  0.87156  1.0000
  F   F169      1.0  0.69321  0.24817  0.34725  1.0000
  F   F170      1.0  0.69105  0.25560  0.84323  1.0000
  F   F171      1.0  0.68180  0.74439  0.37197  1.0000
  F   F172      1.0  0.68848  0.74581  0.86483  1.0000
  F   F173      1.0  0.94200  0.24838  0.33541  1.0000
  F   F174      1.0  0.92390  0.24889  0.88368  1.0000
  F   F175      1.0  0.93279  0.74183  0.37495  1.0000
  F   F176      1.0  0.94257  0.75148  0.85220  1.0000
  F   F177      1.0  0.12588  0.13654  0.37254  1.0000
  F   F178      1.0  0.12945  0.14254  0.87959  1.0000
  F   F179      1.0  0.12774  0.61891  0.39438  1.0000
  F   F180      1.0  0.12637  0.65460  0.87196  1.0000
  F   F181      1.0  0.37285  0.13844  0.39636  1.0000
  F   F182      1.0  0.37937  0.13067  0.87302  1.0000
  F   F183      1.0  0.37923  0.63776  0.38217  1.0000
  F   F184      1.0  0.37498  0.63629  0.86922  1.0000
  F   F185      1.0  0.62546  0.12251  0.39631  1.0000
  F   F186      1.0  0.62754  0.13966  0.88300  1.0000
  F   F187      1.0  0.62233  0.65548  0.36702  1.0000
  F   F188      1.0  0.62558  0.61421  0.90377  1.0000
  F   F189      1.0  0.87773  0.12934  0.39248  1.0000
  F   F190      1.0  0.87344  0.11191  0.90753  1.0000
  F   F191      1.0  0.87445  0.63192  0.38200  1.0000
  F   F192      1.0  0.87093  0.61326  0.90889  1.0000
  F   F193      1.0  0.00832  0.37392  0.06603  1.0000
  F   F194      1.0  0.00703  0.36691  0.58119  1.0000
  F   F195      1.0  0.00243  0.85273  0.08933  1.0000
  F   F196      1.0  0.00693  0.87225  0.57325  1.0000
  F   F197      1.0  0.25365  0.36567  0.08041  1.0000
  F   F198      1.0  0.25781  0.36460  0.57280  1.0000
  F   F199      1.0  0.26785  0.86271  0.06458  1.0000
  F   F200      1.0  0.26184  0.85223  0.57640  1.0000
  F   F201      1.0  0.50722  0.36382  0.06578  1.0000
  F   F202      1.0  0.50622  0.36252  0.57639  1.0000
  F   F203      1.0  0.50950  0.87762  0.07251  1.0000
  F   F204      1.0  0.51110  0.85859  0.57259  1.0000
  F   F205      1.0  0.75590  0.37084  0.06663  1.0000
  F   F206      1.0  0.76318  0.37330  0.55937  1.0000
  F   F207      1.0  0.75936  0.86065  0.08342  1.0000
  F   F208      1.0  0.75993  0.87067  0.56534  1.0000
  F   F209      1.0  0.06813  0.47780  0.17645  1.0000
  F   F210      1.0  0.06985  0.50197  0.65846  1.0000
  F   F211      1.0  0.06812  0.98530  0.17968  1.0000
  F   F212      1.0  0.06596  0.97310  0.70353  1.0000
  F   F213      1.0  0.32154  0.47420  0.18168  1.0000
  F   F214      1.0  0.31200  0.48335  0.69926  1.0000
  F   F215      1.0  0.31723  0.98579  0.16972  1.0000
  F   F216      1.0  0.31991  0.97112  0.68498  1.0000
  F   F217      1.0  0.57082  0.50480  0.15448  1.0000
  F   F218      1.0  0.57150  0.47903  0.67629  1.0000
  F   F219      1.0  0.56887  0.99299  0.17622  1.0000
  F   F220      1.0  0.58226  0.98277  0.65049  1.0000
  F   F221      1.0  0.81764  0.48308  0.17859  1.0000
  F   F222      1.0  0.82215  0.48203  0.67941  1.0000
  F   F223      1.0  0.81836  0.99424  0.17352  1.0000
  F   F224      1.0  0.81695  0.98699  0.67576  1.0000
  F   F225      1.0  0.23789  0.13635  0.43078  1.0000
  F   F226      1.0  0.24053  0.11937  0.92568  1.0000
  F   F227      1.0  0.24269  0.63085  0.42184  1.0000
  F   F228      1.0  0.23572  0.63268  0.94843  1.0000
  F   F229      1.0  0.48765  0.14071  0.42482  1.0000
  F   F230      1.0  0.49356  0.14300  0.91109  1.0000
  F   F231      1.0  0.48864  0.63585  0.43147  1.0000
  F   F232      1.0  0.48894  0.64034  0.95294  1.0000
  F   F233      1.0  0.74335  0.13480  0.43183  1.0000
  F   F234      1.0  0.74049  0.14339  0.92807  1.0000
  F   F235      1.0  0.74312  0.64410  0.42279  1.0000
  F   F236      1.0  0.74221  0.64251  0.92250  1.0000
  F   F237      1.0  0.99066  0.13034  0.44506  1.0000
  F   F238      1.0  0.99423  0.15443  0.90532  1.0000
  F   F239      1.0  0.99251  0.62431  0.43184  1.0000
  F   F240      1.0  0.99071  0.62874  0.93776  1.0000
  F   F241      1.0  0.18298  0.01501  0.32924  1.0000
  F   F242      1.0  0.17203  0.01167  0.83452  1.0000
  F   F243      1.0  0.17999  0.50682  0.32541  1.0000
  F   F244      1.0  0.17035  0.50994  0.85681  1.0000
  F   F245      1.0  0.42815  0.01878  0.32061  1.0000
  F   F246      1.0  0.43607  0.00980  0.81641  1.0000
  F   F247      1.0  0.43099  0.51697  0.30657  1.0000
  F   F248      1.0  0.43432  0.52458  0.81370  1.0000
  F   F249      1.0  0.68874  0.01227  0.31550  1.0000
  F   F250      1.0  0.68377  0.02127  0.82220  1.0000
  F   F251      1.0  0.67787  0.51934  0.32544  1.0000
  F   F252      1.0  0.68249  0.52200  0.81213  1.0000
  F   F253      1.0  0.93180  0.00695  0.33870  1.0000
  F   F254      1.0  0.93559  0.00733  0.81547  1.0000
  F   F255      1.0  0.93228  0.52044  0.31425  1.0000
  F   F256      1.0  0.93498  0.52336  0.81447  1.0000
  F   F257      1.0  0.00306  0.24919  0.99155  1.0000
  F   F258      1.0  0.00057  0.25735  0.50342  1.0000
  F   F259      1.0  0.99428  0.74275  0.01282  1.0000
  F   F260      1.0  0.00088  0.74263  0.50180  1.0000
  F   F261      1.0  0.24743  0.24232  0.00134  1.0000
  F   F262      1.0  0.24926  0.24887  0.50038  1.0000
  F   F263      1.0  0.24828  0.76186  0.99397  1.0000
  F   F264      1.0  0.25036  0.74079  0.50831  1.0000
  F   F265      1.0  0.50032  0.24927  0.99928  1.0000
  F   F266      1.0  0.49578  0.24408  0.50842  1.0000
  F   F267      1.0  0.51063  0.77400  0.99073  1.0000
  F   F268      1.0  0.49617  0.74593  0.49811  1.0000
  F   F269      1.0  0.74337  0.22403  0.02379  1.0000
  F   F270      1.0  0.75285  0.26367  0.49477  1.0000
  F   F271      1.0  0.74259  0.76923  0.98125  1.0000
  F   F272      1.0  0.74480  0.71912  0.53685  1.0000
  F   F273      1.0  0.13391  0.99720  0.24371  1.0000
  F   F274      1.0  0.12311  0.99913  0.75635  1.0000
  F   F275      1.0  0.12041  0.49798  0.26020  1.0000
  F   F276      1.0  0.13395  0.49791  0.73944  1.0000
  F   F277      1.0  0.37465  0.00329  0.24707  1.0000
  F   F278      1.0  0.38078  0.00469  0.72970  1.0000
  F   F279      1.0  0.37417  0.50076  0.24947  1.0000
  F   F280      1.0  0.37640  0.50561  0.74899  1.0000
  F   F281      1.0  0.63641  0.00525  0.23767  1.0000
  F   F282      1.0  0.62083  0.00602  0.74582  1.0000
  F   F283      1.0  0.61759  0.49388  0.26156  1.0000
  F   F284      1.0  0.60925  0.48905  0.78389  1.0000
  F   F285      1.0  0.87906  0.01082  0.24347  1.0000
  F   F286      1.0  0.87214  0.99698  0.74899  1.0000
  F   F287      1.0  0.88181  0.49873  0.23577  1.0000
  F   F288      1.0  0.88411  0.50938  0.73399  1.0000
  F   F289      1.0  0.03179  0.03328  0.04577  1.0000
  F   F290      1.0  0.04957  0.02225  0.52166  1.0000
  F   F291      1.0  0.04710  0.52557  0.02294  1.0000
  F   F292      1.0  0.04844  0.53366  0.51487  1.0000
  F   F293      1.0  0.29530  0.03592  0.01007  1.0000
  F   F294      1.0  0.28881  0.02308  0.51291  1.0000
  F   F295      1.0  0.30287  0.52132  0.01536  1.0000
  F   F296      1.0  0.29811  0.52868  0.51976  1.0000
  F   F297      1.0  0.54757  0.03546  0.02778  1.0000
  F   F298      1.0  0.54220  0.04057  0.53014  1.0000
  F   F299      1.0  0.54321  0.53092  0.02581  1.0000
  F   F300      1.0  0.54361  0.53663  0.51948  1.0000
  F   F301      1.0  0.79409  0.03884  0.02557  1.0000
  F   F302      1.0  0.79535  0.02874  0.52016  1.0000
  F   F303      1.0  0.78570  0.52844  0.02367  1.0000
  F   F304      1.0  0.79085  0.53746  0.53510  1.0000
  F   F305      1.0  0.23586  0.41758  0.23458  1.0000
  F   F306      1.0  0.23519  0.42397  0.71626  1.0000
  F   F307      1.0  0.23598  0.92074  0.21726  1.0000
  F   F308      1.0  0.23211  0.91575  0.70980  1.0000
  F   F309      1.0  0.48162  0.39818  0.24159  1.0000
  F   F310      1.0  0.48693  0.42258  0.72754  1.0000
  F   F311      1.0  0.48741  0.91775  0.23878  1.0000
  F   F312      1.0  0.48870  0.91346  0.72387  1.0000
  F   F313      1.0  0.73531  0.41965  0.22840  1.0000
  F   F314      1.0  0.73938  0.42727  0.71734  1.0000
  F   F315      1.0  0.73686  0.90136  0.23149  1.0000
  F   F316      1.0  0.73468  0.90009  0.74576  1.0000
  F   F317      1.0  0.98319  0.40123  0.22972  1.0000
  F   F318      1.0  0.98879  0.39448  0.74737  1.0000
  F   F319      1.0  0.97904  0.91663  0.23225  1.0000
  F   F320      1.0  0.98615  0.90027  0.73993  1.0000
  F   F321      1.0  0.21378  0.46107  0.46729  1.0000
  F   F322      1.0  0.20855  0.46513  0.97367  1.0000
  F   F323      1.0  0.20925  0.96476  0.47217  1.0000
  F   F324      1.0  0.21714  0.95968  0.95385  1.0000
  F   F325      1.0  0.45801  0.46974  0.47277  1.0000
  F   F326      1.0  0.45795  0.48223  0.96776  1.0000
  F   F327      1.0  0.45740  0.97451  0.46763  1.0000
  F   F328      1.0  0.46023  0.96994  0.96253  1.0000
  F   F329      1.0  0.70862  0.46470  0.47185  1.0000
  F   F330      1.0  0.70042  0.46891  0.98246  1.0000
  F   F331      1.0  0.69829  0.96881  0.49145  1.0000
  F   F332      1.0  0.70944  0.97322  0.97766  1.0000
  F   F333      1.0  0.95706  0.45813  0.47601  1.0000
  F   F334      1.0  0.95402  0.46727  0.97874  1.0000
  F   F335      1.0  0.96110  0.96357  0.47012  1.0000
  F   F336      1.0  0.95616  0.97146  0.97261  1.0000
  F   F337      1.0  0.01333  0.09371  0.26335  1.0000
  F   F338      1.0  0.01205  0.09257  0.77232  1.0000
  F   F339      1.0  0.01939  0.58095  0.27255  1.0000
  F   F340      1.0  0.01722  0.58592  0.77137  1.0000
  F   F341      1.0  0.26548  0.09513  0.27213  1.0000
  F   F342      1.0  0.26528  0.07529  0.76176  1.0000
  F   F343      1.0  0.26025  0.59227  0.26076  1.0000
  F   F344      1.0  0.26047  0.59579  0.78363  1.0000
  F   F345      1.0  0.51134  0.08919  0.26186  1.0000
  F   F346      1.0  0.51602  0.08155  0.75719  1.0000
  F   F347      1.0  0.51737  0.58793  0.25597  1.0000
  F   F348      1.0  0.51639  0.59903  0.77724  1.0000
  F   F349      1.0  0.76215  0.08876  0.27627  1.0000
  F   F350      1.0  0.76612  0.11195  0.76532  1.0000
  F   F351      1.0  0.76083  0.57852  0.27942  1.0000
  F   F352      1.0  0.76690  0.57922  0.78194  1.0000
  F   F353      1.0  0.09828  0.41203  0.45679  1.0000
  F   F354      1.0  0.10364  0.38917  0.97378  1.0000
  F   F355      1.0  0.10788  0.90407  0.45508  1.0000
  F   F356      1.0  0.09730  0.91285  0.98401  1.0000
  F   F357      1.0  0.35214  0.41189  0.47176  1.0000
  F   F358      1.0  0.35570  0.40876  0.94664  1.0000
  F   F359      1.0  0.35389  0.91404  0.45337  1.0000
  F   F360      1.0  0.35523  0.90659  0.94860  1.0000
  F   F361      1.0  0.60334  0.40567  0.45737  1.0000
  F   F362      1.0  0.59719  0.38955  0.97048  1.0000
  F   F363      1.0  0.61051  0.91986  0.45891  1.0000
  F   F364      1.0  0.60111  0.92009  0.94147  1.0000
  F   F365      1.0  0.85085  0.42468  0.46047  1.0000
  F   F366      1.0  0.84434  0.40034  0.96175  1.0000
  F   F367      1.0  0.85416  0.90469  0.46942  1.0000
  F   F368      1.0  0.85177  0.92608  0.94483  1.0000
  F   F369      1.0  0.04690  0.28377  0.29921  1.0000
  F   F370      1.0  0.06328  0.30305  0.77409  1.0000
  F   F371      1.0  0.03971  0.80241  0.29380  1.0000
  F   F372      1.0  0.04727  0.78214  0.80322  1.0000
  F   F373      1.0  0.29153  0.29272  0.30093  1.0000
  F   F374      1.0  0.29630  0.29627  0.78647  1.0000
  F   F375      1.0  0.29460  0.79045  0.28526  1.0000
  F   F376      1.0  0.29217  0.78341  0.79274  1.0000
  F   F377      1.0  0.55310  0.29210  0.28374  1.0000
  F   F378      1.0  0.55098  0.30051  0.78374  1.0000
  F   F379      1.0  0.55349  0.81069  0.28223  1.0000
  F   F380      1.0  0.54246  0.79995  0.79378  1.0000
  F   F381      1.0  0.79731  0.30201  0.28828  1.0000
  F   F382      1.0  0.79064  0.29949  0.79549  1.0000
  F   F383      1.0  0.80697  0.78936  0.28068  1.0000
  F   F384      1.0  0.80247  0.78460  0.78966  1.0000
