data_image0
_chemical_formula_structural       Hf96F384
_chemical_formula_sum              "Hf96 F384"
_cell_length_a       31.0181
_cell_length_b       15.5065
_cell_length_c       15.4981
_cell_angle_alpha    63.342
_cell_angle_beta     63.342
_cell_angle_gamma    80.1625

_space_group_name_H-M_alt    "P 1"
_space_group_IT_number       1

loop_
  _space_group_symop_operation_xyz
  'x, y, z'

loop_
  _atom_site_type_symbol
  _atom_site_label
  _atom_site_symmetry_multiplicity
  _atom_site_fract_x
  _atom_site_fract_y
  _atom_site_fract_z
  _atom_site_occupancy
  Hf  Hf1       1.0  0.19603  0.11304  0.37531  1.0000
  Hf  Hf2       1.0  0.19645  0.09807  0.87869  1.0000
  Hf  Hf3       1.0  0.19983  0.60802  0.37899  1.0000
  Hf  Hf4       1.0  0.19466  0.59996  0.87435  1.0000
  Hf  Hf5       1.0  0.44554  0.11481  0.36698  1.0000
  Hf  Hf6       1.0  0.44650  0.10420  0.87438  1.0000
  Hf  Hf7       1.0  0.44656  0.60299  0.36863  1.0000
  Hf  Hf8       1.0  0.44809  0.60529  0.87977  1.0000
  Hf  Hf9       1.0  0.69941  0.10933  0.36518  1.0000
  Hf  Hf10      1.0  0.70286  0.11121  0.87040  1.0000
  Hf  Hf11      1.0  0.69706  0.60927  0.37584  1.0000
  Hf  Hf12      1.0  0.69737  0.61217  0.86501  1.0000
  Hf  Hf13      1.0  0.94486  0.10408  0.38384  1.0000
  Hf  Hf14      1.0  0.94194  0.09801  0.88890  1.0000
  Hf  Hf15      1.0  0.94639  0.60679  0.37917  1.0000
  Hf  Hf16      1.0  0.94657  0.61051  0.87137  1.0000
  Hf  Hf17      1.0  0.04720  0.38099  0.14532  1.0000
  Hf  Hf18      1.0  0.05026  0.39157  0.63386  1.0000
  Hf  Hf19      1.0  0.05563  0.89151  0.12361  1.0000
  Hf  Hf20      1.0  0.05551  0.89533  0.62237  1.0000
  Hf  Hf21      1.0  0.30170  0.39524  0.12602  1.0000
  Hf  Hf22      1.0  0.30487  0.39379  0.61980  1.0000
  Hf  Hf23      1.0  0.30255  0.89103  0.12550  1.0000
  Hf  Hf24      1.0  0.30308  0.89366  0.62827  1.0000
  Hf  Hf25      1.0  0.55524  0.39539  0.12277  1.0000
  Hf  Hf26      1.0  0.55564  0.39086  0.62370  1.0000
  Hf  Hf27      1.0  0.55351  0.89391  0.11894  1.0000
  Hf  Hf28      1.0  0.55046  0.88972  0.62814  1.0000
  Hf  Hf29      1.0  0.80430  0.39413  0.12755  1.0000
  Hf  Hf30      1.0  0.80491  0.38939  0.62403  1.0000
  Hf  Hf31      1.0  0.80121  0.89007  0.12804  1.0000
  Hf  Hf32      1.0  0.80531  0.89403  0.62607  1.0000
  Hf  Hf33      1.0  0.05394  0.17854  0.42551  1.0000
  Hf  Hf34      1.0  0.05333  0.17652  0.92591  1.0000
  Hf  Hf35      1.0  0.05465  0.67318  0.43012  1.0000
  Hf  Hf36      1.0  0.05678  0.68021  0.91532  1.0000
  Hf  Hf37      1.0  0.30742  0.18344  0.41083  1.0000
  Hf  Hf38      1.0  0.30783  0.18539  0.91226  1.0000
  Hf  Hf39      1.0  0.30643  0.68236  0.42389  1.0000
  Hf  Hf40      1.0  0.30345  0.67598  0.92170  1.0000
  Hf  Hf41      1.0  0.55681  0.17723  0.41016  1.0000
  Hf  Hf42      1.0  0.55790  0.19203  0.90496  1.0000
  Hf  Hf43      1.0  0.55541  0.67626  0.41776  1.0000
  Hf  Hf44      1.0  0.55498  0.68043  0.91809  1.0000
  Hf  Hf45      1.0  0.80506  0.18581  0.41226  1.0000
  Hf  Hf46      1.0  0.80390  0.18509  0.92131  1.0000
  Hf  Hf47      1.0  0.80515  0.67571  0.42525  1.0000
  Hf  Hf48      1.0  0.80511  0.68958  0.91227  1.0000
  Hf  Hf49      1.0  0.15720  0.39124  0.33514  1.0000
  Hf  Hf50      1.0  0.15966  0.38654  0.83093  1.0000
  Hf  Hf51      1.0  0.15665  0.89076  0.33282  1.0000
  Hf  Hf52      1.0  0.16087  0.88654  0.83413  1.0000
  Hf  Hf53      1.0  0.40827  0.39352  0.32923  1.0000
  Hf  Hf54      1.0  0.41021  0.38951  0.83351  1.0000
  Hf  Hf55      1.0  0.40962  0.89462  0.33013  1.0000
  Hf  Hf56      1.0  0.41206  0.88916  0.83209  1.0000
  Hf  Hf57      1.0  0.65753  0.38538  0.33258  1.0000
  Hf  Hf58      1.0  0.66020  0.38812  0.82951  1.0000
  Hf  Hf59      1.0  0.65389  0.88753  0.33617  1.0000
  Hf  Hf60      1.0  0.66070  0.89277  0.82900  1.0000
  Hf  Hf61      1.0  0.90408  0.39005  0.33816  1.0000
  Hf  Hf62      1.0  0.90698  0.38496  0.82930  1.0000
  Hf  Hf63      1.0  0.91108  0.88637  0.32755  1.0000
  Hf  Hf64      1.0  0.90645  0.88194  0.84004  1.0000
  Hf  Hf65      1.0  0.19166  0.31248  0.08664  1.0000
  Hf  Hf66      1.0  0.19279  0.31586  0.58161  1.0000
  Hf  Hf67      1.0  0.19440  0.80715  0.09176  1.0000
  Hf  Hf68      1.0  0.19508  0.82105  0.58461  1.0000
  Hf  Hf69      1.0  0.44218  0.31550  0.08545  1.0000
  Hf  Hf70      1.0  0.44882  0.32410  0.57261  1.0000
  Hf  Hf71      1.0  0.44367  0.82070  0.08573  1.0000
  Hf  Hf72      1.0  0.44579  0.82408  0.58216  1.0000
  Hf  Hf73      1.0  0.69567  0.32105  0.07933  1.0000
  Hf  Hf74      1.0  0.69560  0.31870  0.58173  1.0000
  Hf  Hf75      1.0  0.69254  0.81796  0.08624  1.0000
  Hf  Hf76      1.0  0.69593  0.82136  0.57254  1.0000
  Hf  Hf77      1.0  0.94072  0.31904  0.08517  1.0000
  Hf  Hf78      1.0  0.94262  0.31781  0.58480  1.0000
  Hf  Hf79      1.0  0.94245  0.81309  0.08464  1.0000
  Hf  Hf80      1.0  0.94354  0.81346  0.58581  1.0000
  Hf  Hf81      1.0  0.09220  0.10970  0.17032  1.0000
  Hf  Hf82      1.0  0.09113  0.11053  0.66840  1.0000
  Hf  Hf83      1.0  0.08972  0.61178  0.16589  1.0000
  Hf  Hf84      1.0  0.09761  0.61396  0.66323  1.0000
  Hf  Hf85      1.0  0.34000  0.10985  0.16635  1.0000
  Hf  Hf86      1.0  0.34440  0.11796  0.65998  1.0000
  Hf  Hf87      1.0  0.34425  0.61365  0.16316  1.0000
  Hf  Hf88      1.0  0.34387  0.61179  0.66795  1.0000
  Hf  Hf89      1.0  0.59166  0.11893  0.15959  1.0000
  Hf  Hf90      1.0  0.59082  0.11391  0.66380  1.0000
  Hf  Hf91      1.0  0.59048  0.61154  0.17308  1.0000
  Hf  Hf92      1.0  0.59090  0.60607  0.67095  1.0000
  Hf  Hf93      1.0  0.84078  0.10967  0.17260  1.0000
  Hf  Hf94      1.0  0.84379  0.11348  0.66598  1.0000
  Hf  Hf95      1.0  0.83725  0.60923  0.17397  1.0000
  Hf  Hf96      1.0  0.84112  0.61665  0.66457  1.0000
  F   F1        1.0  0.08159  0.13355  0.30471  1.0000
  F   F2        1.0  0.07329  0.12542  0.81442  1.0000
  F   F3        1.0  0.08014  0.62426  0.30032  1.0000
  F   F4        1.0  0.07927  0.61091  0.80869  1.0000
  F   F5        1.0  0.32678  0.12403  0.30812  1.0000
  F   F6        1.0  0.33465  0.13545  0.78963  1.0000
  F   F7        1.0  0.33435  0.64876  0.29165  1.0000
  F   F8        1.0  0.33051  0.62542  0.80583  1.0000
  F   F9        1.0  0.58512  0.13052  0.29803  1.0000
  F   F10       1.0  0.57411  0.11376  0.80807  1.0000
  F   F11       1.0  0.57302  0.61101  0.32281  1.0000
  F   F12       1.0  0.58187  0.62289  0.80910  1.0000
  F   F13       1.0  0.83343  0.13472  0.29814  1.0000
  F   F14       1.0  0.83206  0.13393  0.79708  1.0000
  F   F15       1.0  0.82434  0.61216  0.32275  1.0000
  F   F16       1.0  0.82646  0.62603  0.81321  1.0000
  F   F17       1.0  0.18629  0.34022  0.44423  1.0000
  F   F18       1.0  0.18487  0.34337  0.94938  1.0000
  F   F19       1.0  0.18137  0.84245  0.45190  1.0000
  F   F20       1.0  0.18723  0.84941  0.94302  1.0000
  F   F21       1.0  0.43376  0.35083  0.43762  1.0000
  F   F22       1.0  0.43737  0.33305  0.94994  1.0000
  F   F23       1.0  0.43734  0.84119  0.44563  1.0000
  F   F24       1.0  0.42741  0.83916  0.96197  1.0000
  F   F25       1.0  0.68377  0.33911  0.44317  1.0000
  F   F26       1.0  0.69368  0.35407  0.93573  1.0000
  F   F27       1.0  0.68477  0.83893  0.44544  1.0000
  F   F28       1.0  0.68252  0.83601  0.95255  1.0000
  F   F29       1.0  0.93058  0.33378  0.44708  1.0000
  F   F30       1.0  0.93648  0.35581  0.93283  1.0000
  F   F31       1.0  0.93414  0.83124  0.45184  1.0000
  F   F32       1.0  0.92923  0.82892  0.95734  1.0000
  F   F33       1.0  0.16828  0.37224  0.19664  1.0000
  F   F34       1.0  0.16876  0.35378  0.69891  1.0000
  F   F35       1.0  0.16519  0.86093  0.20379  1.0000
  F   F36       1.0  0.17256  0.87433  0.69016  1.0000
  F   F37       1.0  0.41398  0.37908  0.19300  1.0000
  F   F38       1.0  0.42963  0.38065  0.68586  1.0000
  F   F39       1.0  0.42360  0.89277  0.17941  1.0000
  F   F40       1.0  0.42293  0.88072  0.68906  1.0000
  F   F41       1.0  0.67205  0.36549  0.19696  1.0000
  F   F42       1.0  0.67323  0.37522  0.69063  1.0000
  F   F43       1.0  0.66422  0.86791  0.20334  1.0000
  F   F44       1.0  0.67285  0.87320  0.67921  1.0000
  F   F45       1.0  0.91276  0.35634  0.21090  1.0000
  F   F46       1.0  0.92563  0.37553  0.69222  1.0000
  F   F47       1.0  0.92539  0.89317  0.17783  1.0000
  F   F48       1.0  0.92175  0.87026  0.70094  1.0000
  F   F49       1.0  0.06069  0.15657  0.06183  1.0000
  F   F50       1.0  0.06007  0.15269  0.56696  1.0000
  F   F51       1.0  0.05884  0.66563  0.05394  1.0000
  F   F52       1.0  0.06851  0.66377  0.55067  1.0000
  F   F53       1.0  0.31684  0.16923  0.04367  1.0000
  F   F54       1.0  0.31532  0.15730  0.55206  1.0000
  F   F55       1.0  0.31165  0.65307  0.05422  1.0000
  F   F56       1.0  0.31602  0.68257  0.54549  1.0000
  F   F57       1.0  0.56713  0.17595  0.04623  1.0000
  F   F58       1.0  0.56290  0.14806  0.55496  1.0000
  F   F59       1.0  0.56157  0.64848  0.06141  1.0000
  F   F60       1.0  0.55394  0.64195  0.57500  1.0000
  F   F61       1.0  0.82278  0.16501  0.04392  1.0000
  F   F62       1.0  0.81364  0.15815  0.55857  1.0000
  F   F63       1.0  0.81516  0.66713  0.05184  1.0000
  F   F64       1.0  0.81323  0.65811  0.55240  1.0000
  F   F65       1.0  0.20547  0.19844  0.20958  1.0000
  F   F66       1.0  0.20431  0.19158  0.70862  1.0000
  F   F67       1.0  0.19757  0.70421  0.22098  1.0000
  F   F68       1.0  0.20639  0.70519  0.71295  1.0000
  F   F69       1.0  0.45978  0.20573  0.20189  1.0000
  F   F70       1.0  0.44719  0.20280  0.70310  1.0000
  F   F71       1.0  0.45553  0.71246  0.20617  1.0000
  F   F72       1.0  0.45503  0.70573  0.70610  1.0000
  F   F73       1.0  0.70702  0.18988  0.21037  1.0000
  F   F74       1.0  0.70493  0.19359  0.71538  1.0000
  F   F75       1.0  0.70946  0.70850  0.21110  1.0000
  F   F76       1.0  0.69621  0.70120  0.70984  1.0000
  F   F77       1.0  0.95374  0.20737  0.19260  1.0000
  F   F78       1.0  0.95155  0.20013  0.69696  1.0000
  F   F79       1.0  0.94513  0.70729  0.21881  1.0000
  F   F80       1.0  0.95582  0.71350  0.70565  1.0000
  F   F81       1.0  0.14878  0.08774  0.04121  1.0000
  F   F82       1.0  0.14688  0.09663  0.54299  1.0000
  F   F83       1.0  0.14071  0.58434  0.03923  1.0000
  F   F84       1.0  0.15404  0.59559  0.53783  1.0000
  F   F85       1.0  0.40117  0.08766  0.03220  1.0000
  F   F86       1.0  0.40094  0.09378  0.52170  1.0000
  F   F87       1.0  0.39672  0.58602  0.03537  1.0000
  F   F88       1.0  0.39619  0.60455  0.53894  1.0000
  F   F89       1.0  0.65066  0.09630  0.03163  1.0000
  F   F90       1.0  0.64759  0.09610  0.53332  1.0000
  F   F91       1.0  0.64851  0.61626  0.04802  1.0000
  F   F92       1.0  0.64850  0.57974  0.54036  1.0000
  F   F93       1.0  0.89798  0.08412  0.05168  1.0000
  F   F94       1.0  0.89972  0.08111  0.54008  1.0000
  F   F95       1.0  0.90034  0.58926  0.03275  1.0000
  F   F96       1.0  0.89925  0.59531  0.53717  1.0000
  F   F97       1.0  0.14886  0.19496  0.13550  1.0000
  F   F98       1.0  0.14657  0.20545  0.62362  1.0000
  F   F99       1.0  0.15328  0.70776  0.10582  1.0000
  F   F100      1.0  0.15508  0.69737  0.63795  1.0000
  F   F101      1.0  0.40399  0.18592  0.13364  1.0000
  F   F102      1.0  0.40512  0.19193  0.60840  1.0000
  F   F103      1.0  0.40564  0.68341  0.12487  1.0000
  F   F104      1.0  0.40280  0.70022  0.61943  1.0000
  F   F105      1.0  0.65134  0.20094  0.11976  1.0000
  F   F106      1.0  0.65131  0.19271  0.62236  1.0000
  F   F107      1.0  0.64327  0.70495  0.15693  1.0000
  F   F108      1.0  0.65194  0.69776  0.61057  1.0000
  F   F109      1.0  0.89841  0.20525  0.11285  1.0000
  F   F110      1.0  0.90042  0.19416  0.61719  1.0000
  F   F111      1.0  0.89107  0.69405  0.12742  1.0000
  F   F112      1.0  0.90391  0.69701  0.62542  1.0000
  F   F113      1.0  0.09933  0.30225  0.38163  1.0000
  F   F114      1.0  0.10270  0.29229  0.87625  1.0000
  F   F115      1.0  0.10129  0.79166  0.37925  1.0000
  F   F116      1.0  0.09799  0.80379  0.87815  1.0000
  F   F117      1.0  0.35089  0.30314  0.38955  1.0000
  F   F118      1.0  0.35552  0.30209  0.86474  1.0000
  F   F119      1.0  0.35086  0.79466  0.34992  1.0000
  F   F120      1.0  0.35761  0.79859  0.87867  1.0000
  F   F121      1.0  0.59739  0.30244  0.36995  1.0000
  F   F122      1.0  0.59823  0.32679  0.86299  1.0000
  F   F123      1.0  0.58712  0.80364  0.39499  1.0000
  F   F124      1.0  0.59916  0.80245  0.87946  1.0000
  F   F125      1.0  0.84675  0.30764  0.38246  1.0000
  F   F126      1.0  0.84750  0.30770  0.86039  1.0000
  F   F127      1.0  0.85506  0.79226  0.37455  1.0000
  F   F128      1.0  0.84738  0.80996  0.87888  1.0000
  F   F129      1.0  0.06446  0.24886  0.14751  1.0000
  F   F130      1.0  0.05976  0.24535  0.64804  1.0000
  F   F131      1.0  0.06754  0.75733  0.13582  1.0000
  F   F132      1.0  0.07018  0.75610  0.64094  1.0000
  F   F133      1.0  0.31098  0.24330  0.16482  1.0000
  F   F134      1.0  0.32339  0.26183  0.61195  1.0000
  F   F135      1.0  0.31723  0.74984  0.13864  1.0000
  F   F136      1.0  0.30806  0.75150  0.65302  1.0000
  F   F137      1.0  0.56971  0.25640  0.14686  1.0000
  F   F138      1.0  0.56524  0.25079  0.64036  1.0000
  F   F139      1.0  0.56033  0.74911  0.14742  1.0000
  F   F140      1.0  0.56087  0.74929  0.64436  1.0000
  F   F141      1.0  0.80802  0.25597  0.14259  1.0000
  F   F142      1.0  0.81120  0.25261  0.63812  1.0000
  F   F143      1.0  0.80968  0.74687  0.15896  1.0000
  F   F144      1.0  0.81594  0.75419  0.64776  1.0000
  F   F145      1.0  0.12136  0.36789  0.10543  1.0000
  F   F146      1.0  0.12177  0.37790  0.60179  1.0000
  F   F147      1.0  0.12569  0.87848  0.10341  1.0000
  F   F148      1.0  0.12052  0.87585  0.61785  1.0000
  F   F149      1.0  0.37117  0.36701  0.10723  1.0000
  F   F150      1.0  0.37857  0.37247  0.61332  1.0000
  F   F151      1.0  0.37281  0.87629  0.11292  1.0000
  F   F152      1.0  0.37713  0.87067  0.60018  1.0000
  F   F153      1.0  0.62712  0.37408  0.10491  1.0000
  F   F154      1.0  0.62511  0.36635  0.62076  1.0000
  F   F155      1.0  0.62248  0.88929  0.09289  1.0000
  F   F156      1.0  0.62467  0.88625  0.59483  1.0000
  F   F157      1.0  0.87412  0.38776  0.09256  1.0000
  F   F158      1.0  0.87695  0.37251  0.60790  1.0000
  F   F159      1.0  0.86876  0.85069  0.12602  1.0000
  F   F160      1.0  0.87791  0.87364  0.61053  1.0000
  F   F161      1.0  0.18926  0.25978  0.34803  1.0000
  F   F162      1.0  0.18912  0.24611  0.86071  1.0000
  F   F163      1.0  0.19012  0.75092  0.35247  1.0000
  F   F164      1.0  0.18412  0.74791  0.86931  1.0000
  F   F165      1.0  0.44257  0.25500  0.33717  1.0000
  F   F166      1.0  0.44182  0.24589  0.84543  1.0000
  F   F167      1.0  0.42601  0.74888  0.35948  1.0000
  F   F168      1.0  0.44093  0.74772  0.84972  1.0000
  F   F169      1.0  0.69872  0.24784  0.33777  1.0000
  F   F170      1.0  0.69398  0.25451  0.84659  1.0000
  F   F171      1.0  0.68136  0.74526  0.36861  1.0000
  F   F172      1.0  0.68263  0.75436  0.85324  1.0000
  F   F173      1.0  0.93870  0.24576  0.34908  1.0000
  F   F174      1.0  0.93617  0.24862  0.84992  1.0000
  F   F175      1.0  0.93846  0.75027  0.35081  1.0000
  F   F176      1.0  0.94143  0.75214  0.85371  1.0000
  F   F177      1.0  0.12648  0.14225  0.39266  1.0000
  F   F178      1.0  0.12355  0.12027  0.90931  1.0000
  F   F179      1.0  0.12855  0.62051  0.39863  1.0000
  F   F180      1.0  0.12604  0.63672  0.88155  1.0000
  F   F181      1.0  0.37751  0.14340  0.37564  1.0000
  F   F182      1.0  0.37568  0.12691  0.88966  1.0000
  F   F183      1.0  0.37290  0.60404  0.40902  1.0000
  F   F184      1.0  0.37555  0.61821  0.89717  1.0000
  F   F185      1.0  0.62813  0.13646  0.38676  1.0000
  F   F186      1.0  0.62822  0.14625  0.87859  1.0000
  F   F187      1.0  0.62607  0.63758  0.38259  1.0000
  F   F188      1.0  0.62454  0.62244  0.90618  1.0000
  F   F189      1.0  0.87892  0.13068  0.38759  1.0000
  F   F190      1.0  0.87515  0.13117  0.88901  1.0000
  F   F191      1.0  0.87528  0.63006  0.38974  1.0000
  F   F192      1.0  0.87387  0.65407  0.88318  1.0000
  F   F193      1.0  0.00563  0.36257  0.07820  1.0000
  F   F194      1.0  0.00655  0.36516  0.57718  1.0000
  F   F195      1.0  0.00895  0.84483  0.07851  1.0000
  F   F196      1.0  0.00986  0.86142  0.56933  1.0000
  F   F197      1.0  0.25260  0.35245  0.08864  1.0000
  F   F198      1.0  0.25448  0.37323  0.57620  1.0000
  F   F199      1.0  0.25903  0.86058  0.07156  1.0000
  F   F200      1.0  0.25918  0.87974  0.55898  1.0000
  F   F201      1.0  0.50955  0.36183  0.07548  1.0000
  F   F202      1.0  0.51232  0.35206  0.56990  1.0000
  F   F203      1.0  0.50233  0.86397  0.07872  1.0000
  F   F204      1.0  0.51040  0.86151  0.56603  1.0000
  F   F205      1.0  0.76028  0.36365  0.05841  1.0000
  F   F206      1.0  0.75536  0.36762  0.57884  1.0000
  F   F207      1.0  0.75715  0.87390  0.06869  1.0000
  F   F208      1.0  0.76200  0.85786  0.56913  1.0000
  F   F209      1.0  0.06550  0.48913  0.18686  1.0000
  F   F210      1.0  0.06798  0.49205  0.67784  1.0000
  F   F211      1.0  0.07479  0.98942  0.16883  1.0000
  F   F212      1.0  0.06268  0.98802  0.68637  1.0000
  F   F213      1.0  0.31641  0.49337  0.16452  1.0000
  F   F214      1.0  0.32243  0.49135  0.66810  1.0000
  F   F215      1.0  0.31637  0.99370  0.16858  1.0000
  F   F216      1.0  0.31697  0.98628  0.67331  1.0000
  F   F217      1.0  0.57680  0.48733  0.16999  1.0000
  F   F218      1.0  0.56874  0.48341  0.68761  1.0000
  F   F219      1.0  0.56309  0.99091  0.18373  1.0000
  F   F220      1.0  0.56804  0.98136  0.69492  1.0000
  F   F221      1.0  0.81406  0.47968  0.18916  1.0000
  F   F222      1.0  0.81973  0.48806  0.67074  1.0000
  F   F223      1.0  0.81813  0.98760  0.17295  1.0000
  F   F224      1.0  0.81813  0.98863  0.67750  1.0000
  F   F225      1.0  0.24565  0.13965  0.42358  1.0000
  F   F226      1.0  0.24652  0.13736  0.92402  1.0000
  F   F227      1.0  0.24336  0.64440  0.42432  1.0000
  F   F228      1.0  0.24575  0.64035  0.91564  1.0000
  F   F229      1.0  0.49288  0.13655  0.42156  1.0000
  F   F230      1.0  0.49814  0.13804  0.91493  1.0000
  F   F231      1.0  0.48646  0.63862  0.42843  1.0000
  F   F232      1.0  0.49077  0.63502  0.93892  1.0000
  F   F233      1.0  0.74554  0.13477  0.42068  1.0000
  F   F234      1.0  0.74271  0.13130  0.93712  1.0000
  F   F235      1.0  0.73999  0.63988  0.42079  1.0000
  F   F236      1.0  0.74390  0.63779  0.92341  1.0000
  F   F237      1.0  0.98740  0.13478  0.44543  1.0000
  F   F238      1.0  0.98712  0.12733  0.94733  1.0000
  F   F239      1.0  0.99484  0.62068  0.43252  1.0000
  F   F240      1.0  0.99178  0.63721  0.93159  1.0000
  F   F241      1.0  0.17975  0.01673  0.32840  1.0000
  F   F242      1.0  0.17994  0.01855  0.82381  1.0000
  F   F243      1.0  0.18814  0.51385  0.31479  1.0000
  F   F244      1.0  0.18342  0.51820  0.81351  1.0000
  F   F245      1.0  0.42929  0.02079  0.32426  1.0000
  F   F246      1.0  0.42535  0.01496  0.82065  1.0000
  F   F247      1.0  0.43512  0.51833  0.30844  1.0000
  F   F248      1.0  0.43369  0.51166  0.82284  1.0000
  F   F249      1.0  0.67805  0.01985  0.31176  1.0000
  F   F250      1.0  0.68012  0.01552  0.83839  1.0000
  F   F251      1.0  0.68194  0.51543  0.33195  1.0000
  F   F252      1.0  0.68389  0.51976  0.81537  1.0000
  F   F253      1.0  0.92572  0.01458  0.32926  1.0000
  F   F254      1.0  0.93153  0.01268  0.82071  1.0000
  F   F255      1.0  0.92732  0.50829  0.34325  1.0000
  F   F256      1.0  0.92778  0.53428  0.82098  1.0000
  F   F257      1.0  0.99711  0.25169  0.99741  1.0000
  F   F258      1.0  0.00144  0.26051  0.48869  1.0000
  F   F259      1.0  0.99332  0.73846  0.01338  1.0000
  F   F260      1.0  0.00016  0.74170  0.49815  1.0000
  F   F261      1.0  0.24801  0.23782  0.01114  1.0000
  F   F262      1.0  0.25208  0.25215  0.50142  1.0000
  F   F263      1.0  0.24949  0.74593  0.00101  1.0000
  F   F264      1.0  0.25252  0.76247  0.48406  1.0000
  F   F265      1.0  0.50080  0.25255  0.99786  1.0000
  F   F266      1.0  0.49711  0.24092  0.50101  1.0000
  F   F267      1.0  0.49844  0.76305  0.98530  1.0000
  F   F268      1.0  0.49839  0.74864  0.50090  1.0000
  F   F269      1.0  0.75196  0.24417  0.00350  1.0000
  F   F270      1.0  0.74741  0.23865  0.50490  1.0000
  F   F271      1.0  0.74967  0.75104  0.99723  1.0000
  F   F272      1.0  0.74561  0.73572  0.50600  1.0000
  F   F273      1.0  0.12160  0.99724  0.26425  1.0000
  F   F274      1.0  0.12859  0.99931  0.74019  1.0000
  F   F275      1.0  0.12940  0.50971  0.23716  1.0000
  F   F276      1.0  0.12780  0.48105  0.74390  1.0000
  F   F277      1.0  0.37106  0.99468  0.25823  1.0000
  F   F278      1.0  0.37503  0.00553  0.74074  1.0000
  F   F279      1.0  0.36633  0.49430  0.26476  1.0000
  F   F280      1.0  0.37778  0.50062  0.75477  1.0000
  F   F281      1.0  0.62283  0.99935  0.24818  1.0000
  F   F282      1.0  0.63166  0.00851  0.74363  1.0000
  F   F283      1.0  0.63198  0.50394  0.24402  1.0000
  F   F284      1.0  0.63294  0.50311  0.74063  1.0000
  F   F285      1.0  0.86672  0.99508  0.26193  1.0000
  F   F286      1.0  0.87658  0.99667  0.75285  1.0000
  F   F287      1.0  0.87920  0.50914  0.23728  1.0000
  F   F288      1.0  0.88034  0.50656  0.73223  1.0000
  F   F289      1.0  0.04167  0.03152  0.03315  1.0000
  F   F290      1.0  0.04843  0.03359  0.50759  1.0000
  F   F291      1.0  0.04401  0.52545  0.02838  1.0000
  F   F292      1.0  0.03885  0.52934  0.53530  1.0000
  F   F293      1.0  0.29458  0.03823  0.01851  1.0000
  F   F294      1.0  0.29959  0.02751  0.50681  1.0000
  F   F295      1.0  0.28716  0.53162  0.02728  1.0000
  F   F296      1.0  0.28602  0.53790  0.54075  1.0000
  F   F297      1.0  0.55317  0.03152  0.01833  1.0000
  F   F298      1.0  0.54197  0.02425  0.51508  1.0000
  F   F299      1.0  0.54414  0.52145  0.02074  1.0000
  F   F300      1.0  0.54382  0.52017  0.52426  1.0000
  F   F301      1.0  0.79956  0.03246  0.01646  1.0000
  F   F302      1.0  0.79650  0.03667  0.51360  1.0000
  F   F303      1.0  0.79182  0.52984  0.03213  1.0000
  F   F304      1.0  0.79129  0.52616  0.53462  1.0000
  F   F305      1.0  0.23379  0.41851  0.22343  1.0000
  F   F306      1.0  0.23805  0.41526  0.72222  1.0000
  F   F307      1.0  0.23174  0.92576  0.21654  1.0000
  F   F308      1.0  0.23175  0.92795  0.72189  1.0000
  F   F309      1.0  0.48415  0.42385  0.21315  1.0000
  F   F310      1.0  0.49033  0.41656  0.71416  1.0000
  F   F311      1.0  0.48070  0.91481  0.23702  1.0000
  F   F312      1.0  0.48866  0.91281  0.72529  1.0000
  F   F313      1.0  0.73060  0.41628  0.22748  1.0000
  F   F314      1.0  0.73707  0.41595  0.72226  1.0000
  F   F315      1.0  0.73270  0.90336  0.23782  1.0000
  F   F316      1.0  0.73386  0.90833  0.73341  1.0000
  F   F317      1.0  0.97810  0.41146  0.24065  1.0000
  F   F318      1.0  0.98357  0.41080  0.73479  1.0000
  F   F319      1.0  0.98548  0.91464  0.23065  1.0000
  F   F320      1.0  0.98287  0.92150  0.72431  1.0000
  F   F321      1.0  0.20127  0.46890  0.49035  1.0000
  F   F322      1.0  0.20577  0.47687  0.97492  1.0000
  F   F323      1.0  0.20594  0.97381  0.46948  1.0000
  F   F324      1.0  0.20470  0.96968  0.98237  1.0000
  F   F325      1.0  0.46168  0.47310  0.46762  1.0000
  F   F326      1.0  0.46558  0.46132  0.96848  1.0000
  F   F327      1.0  0.45906  0.96904  0.47050  1.0000
  F   F328      1.0  0.46743  0.96464  0.95721  1.0000
  F   F329      1.0  0.70782  0.45556  0.47884  1.0000
  F   F330      1.0  0.70079  0.48754  0.98050  1.0000
  F   F331      1.0  0.71237  0.97082  0.47179  1.0000
  F   F332      1.0  0.70676  0.96156  0.98996  1.0000
  F   F333      1.0  0.96065  0.46467  0.46900  1.0000
  F   F334      1.0  0.95885  0.46431  0.98036  1.0000
  F   F335      1.0  0.96194  0.95978  0.46604  1.0000
  F   F336      1.0  0.95559  0.96209  0.97792  1.0000
  F   F337      1.0  0.01626  0.08672  0.27814  1.0000
  F   F338      1.0  0.01303  0.09263  0.78345  1.0000
  F   F339      1.0  0.01195  0.60790  0.26502  1.0000
  F   F340      1.0  0.01465  0.60016  0.75872  1.0000
  F   F341      1.0  0.26606  0.09238  0.26939  1.0000
  F   F342      1.0  0.26152  0.08255  0.77362  1.0000
  F   F343      1.0  0.26874  0.58250  0.26918  1.0000
  F   F344      1.0  0.26699  0.57598  0.77251  1.0000
  F   F345      1.0  0.51667  0.09702  0.26841  1.0000
  F   F346      1.0  0.50978  0.09848  0.75488  1.0000
  F   F347      1.0  0.51151  0.58972  0.26391  1.0000
  F   F348      1.0  0.51617  0.58147  0.78654  1.0000
  F   F349      1.0  0.77188  0.07410  0.28277  1.0000
  F   F350      1.0  0.76754  0.08188  0.77612  1.0000
  F   F351      1.0  0.76491  0.57628  0.28587  1.0000
  F   F352      1.0  0.76528  0.60281  0.75425  1.0000
  F   F353      1.0  0.10391  0.42137  0.45389  1.0000
  F   F354      1.0  0.10214  0.40464  0.94134  1.0000
  F   F355      1.0  0.10026  0.91102  0.46677  1.0000
  F   F356      1.0  0.10105  0.91170  0.96145  1.0000
  F   F357      1.0  0.35206  0.42315  0.46157  1.0000
  F   F358      1.0  0.34468  0.40429  0.96574  1.0000
  F   F359      1.0  0.35077  0.89121  0.45553  1.0000
  F   F360      1.0  0.35145  0.91106  0.96101  1.0000
  F   F361      1.0  0.60136  0.39938  0.46342  1.0000
  F   F362      1.0  0.60762  0.40789  0.95976  1.0000
  F   F363      1.0  0.59905  0.90348  0.46510  1.0000
  F   F364      1.0  0.59819  0.90962  0.94496  1.0000
  F   F365      1.0  0.84486  0.41324  0.46383  1.0000
  F   F366      1.0  0.84887  0.40752  0.96173  1.0000
  F   F367      1.0  0.85143  0.90324  0.47142  1.0000
  F   F368      1.0  0.85001  0.91531  0.96397  1.0000
  F   F369      1.0  0.04303  0.29946  0.29253  1.0000
  F   F370      1.0  0.04284  0.29656  0.79141  1.0000
  F   F371      1.0  0.04763  0.78061  0.29439  1.0000
  F   F372      1.0  0.04592  0.79859  0.78230  1.0000
  F   F373      1.0  0.29588  0.30140  0.29556  1.0000
  F   F374      1.0  0.29995  0.29085  0.77856  1.0000
  F   F375      1.0  0.28743  0.80091  0.28561  1.0000
  F   F376      1.0  0.29892  0.80337  0.79296  1.0000
  F   F377      1.0  0.54567  0.30788  0.28554  1.0000
  F   F378      1.0  0.54598  0.29631  0.78409  1.0000
  F   F379      1.0  0.54832  0.79912  0.28320  1.0000
  F   F380      1.0  0.54851  0.79214  0.78667  1.0000
  F   F381      1.0  0.79689  0.30565  0.28800  1.0000
  F   F382      1.0  0.79418  0.29248  0.78308  1.0000
  F   F383      1.0  0.79497  0.79003  0.30608  1.0000
  F   F384      1.0  0.79725  0.80690  0.78532  1.0000
