data_image0
_chemical_formula_structural       Hf96F384
_chemical_formula_sum              "Hf96 F384"
_cell_length_a       31.0133
_cell_length_b       15.5067
_cell_length_c       15.5001
_cell_angle_alpha    63.342
_cell_angle_beta     63.342
_cell_angle_gamma    80.1625

_space_group_name_H-M_alt    "P 1"
_space_group_IT_number       1

loop_
  _space_group_symop_operation_xyz
  'x, y, z'

loop_
  _atom_site_type_symbol
  _atom_site_label
  _atom_site_symmetry_multiplicity
  _atom_site_fract_x
  _atom_site_fract_y
  _atom_site_fract_z
  _atom_site_occupancy
  Hf  Hf1       1.0  0.19616  0.10130  0.37841  1.0000
  Hf  Hf2       1.0  0.19626  0.10345  0.87589  1.0000
  Hf  Hf3       1.0  0.19493  0.60065  0.38079  1.0000
  Hf  Hf4       1.0  0.19628  0.59951  0.87593  1.0000
  Hf  Hf5       1.0  0.44598  0.10568  0.38045  1.0000
  Hf  Hf6       1.0  0.44674  0.10180  0.87490  1.0000
  Hf  Hf7       1.0  0.44572  0.61098  0.37293  1.0000
  Hf  Hf8       1.0  0.44541  0.60669  0.87528  1.0000
  Hf  Hf9       1.0  0.70003  0.10753  0.36322  1.0000
  Hf  Hf10      1.0  0.69968  0.11190  0.86821  1.0000
  Hf  Hf11      1.0  0.69628  0.61640  0.36395  1.0000
  Hf  Hf12      1.0  0.69582  0.60664  0.87651  1.0000
  Hf  Hf13      1.0  0.94868  0.10532  0.36835  1.0000
  Hf  Hf14      1.0  0.94641  0.10817  0.86966  1.0000
  Hf  Hf15      1.0  0.94850  0.61316  0.35849  1.0000
  Hf  Hf16      1.0  0.94799  0.60953  0.87549  1.0000
  Hf  Hf17      1.0  0.05751  0.39027  0.12198  1.0000
  Hf  Hf18      1.0  0.05378  0.39339  0.62056  1.0000
  Hf  Hf19      1.0  0.05380  0.88801  0.13256  1.0000
  Hf  Hf20      1.0  0.05497  0.89150  0.62923  1.0000
  Hf  Hf21      1.0  0.30016  0.39768  0.13391  1.0000
  Hf  Hf22      1.0  0.30416  0.38368  0.62565  1.0000
  Hf  Hf23      1.0  0.30106  0.89144  0.13405  1.0000
  Hf  Hf24      1.0  0.30015  0.89348  0.62852  1.0000
  Hf  Hf25      1.0  0.55167  0.38811  0.12530  1.0000
  Hf  Hf26      1.0  0.55841  0.39163  0.62153  1.0000
  Hf  Hf27      1.0  0.54699  0.89077  0.13845  1.0000
  Hf  Hf28      1.0  0.55504  0.90054  0.62174  1.0000
  Hf  Hf29      1.0  0.80405  0.40406  0.11657  1.0000
  Hf  Hf30      1.0  0.80292  0.39526  0.63426  1.0000
  Hf  Hf31      1.0  0.80217  0.88810  0.12791  1.0000
  Hf  Hf32      1.0  0.80435  0.89740  0.61889  1.0000
  Hf  Hf33      1.0  0.05772  0.18329  0.41371  1.0000
  Hf  Hf34      1.0  0.05514  0.17514  0.91992  1.0000
  Hf  Hf35      1.0  0.05563  0.68479  0.42081  1.0000
  Hf  Hf36      1.0  0.05503  0.68406  0.91864  1.0000
  Hf  Hf37      1.0  0.30870  0.18084  0.41853  1.0000
  Hf  Hf38      1.0  0.30488  0.17719  0.91795  1.0000
  Hf  Hf39      1.0  0.30761  0.68069  0.41844  1.0000
  Hf  Hf40      1.0  0.30550  0.68155  0.91441  1.0000
  Hf  Hf41      1.0  0.55957  0.18852  0.41107  1.0000
  Hf  Hf42      1.0  0.55399  0.18444  0.91774  1.0000
  Hf  Hf43      1.0  0.55000  0.67382  0.43224  1.0000
  Hf  Hf44      1.0  0.55611  0.68709  0.91303  1.0000
  Hf  Hf45      1.0  0.81055  0.18720  0.40504  1.0000
  Hf  Hf46      1.0  0.80635  0.17713  0.92270  1.0000
  Hf  Hf47      1.0  0.80465  0.68294  0.42004  1.0000
  Hf  Hf48      1.0  0.80665  0.69379  0.91030  1.0000
  Hf  Hf49      1.0  0.15693  0.38044  0.33716  1.0000
  Hf  Hf50      1.0  0.16257  0.38784  0.83303  1.0000
  Hf  Hf51      1.0  0.15541  0.88327  0.34020  1.0000
  Hf  Hf52      1.0  0.15811  0.87983  0.84514  1.0000
  Hf  Hf53      1.0  0.40873  0.39088  0.33247  1.0000
  Hf  Hf54      1.0  0.40816  0.38585  0.83342  1.0000
  Hf  Hf55      1.0  0.40525  0.88441  0.33827  1.0000
  Hf  Hf56      1.0  0.41161  0.88552  0.83401  1.0000
  Hf  Hf57      1.0  0.65794  0.38476  0.33237  1.0000
  Hf  Hf58      1.0  0.65672  0.39116  0.83349  1.0000
  Hf  Hf59      1.0  0.65512  0.88832  0.33137  1.0000
  Hf  Hf60      1.0  0.65787  0.89793  0.83400  1.0000
  Hf  Hf61      1.0  0.91033  0.39776  0.32744  1.0000
  Hf  Hf62      1.0  0.90909  0.39474  0.82946  1.0000
  Hf  Hf63      1.0  0.91073  0.87878  0.33725  1.0000
  Hf  Hf64      1.0  0.90632  0.89751  0.83310  1.0000
  Hf  Hf65      1.0  0.19619  0.31552  0.08013  1.0000
  Hf  Hf66      1.0  0.19415  0.31104  0.58623  1.0000
  Hf  Hf67      1.0  0.19733  0.81806  0.08056  1.0000
  Hf  Hf68      1.0  0.19398  0.81673  0.58996  1.0000
  Hf  Hf69      1.0  0.44034  0.31495  0.08545  1.0000
  Hf  Hf70      1.0  0.44493  0.31890  0.58499  1.0000
  Hf  Hf71      1.0  0.44139  0.81688  0.08720  1.0000
  Hf  Hf72      1.0  0.44457  0.82153  0.57899  1.0000
  Hf  Hf73      1.0  0.69479  0.32118  0.08020  1.0000
  Hf  Hf74      1.0  0.69802  0.31583  0.57992  1.0000
  Hf  Hf75      1.0  0.69310  0.82723  0.07532  1.0000
  Hf  Hf76      1.0  0.69197  0.81517  0.59243  1.0000
  Hf  Hf77      1.0  0.94308  0.31745  0.08722  1.0000
  Hf  Hf78      1.0  0.94300  0.32027  0.57989  1.0000
  Hf  Hf79      1.0  0.94744  0.83017  0.07842  1.0000
  Hf  Hf80      1.0  0.94393  0.81278  0.58572  1.0000
  Hf  Hf81      1.0  0.09168  0.11302  0.16441  1.0000
  Hf  Hf82      1.0  0.09088  0.10931  0.66846  1.0000
  Hf  Hf83      1.0  0.09345  0.60527  0.16886  1.0000
  Hf  Hf84      1.0  0.09231  0.60790  0.67360  1.0000
  Hf  Hf85      1.0  0.33952  0.11113  0.16833  1.0000
  Hf  Hf86      1.0  0.34461  0.10731  0.66196  1.0000
  Hf  Hf87      1.0  0.33755  0.61234  0.16935  1.0000
  Hf  Hf88      1.0  0.34041  0.61578  0.66325  1.0000
  Hf  Hf89      1.0  0.58889  0.11329  0.16724  1.0000
  Hf  Hf90      1.0  0.59766  0.11683  0.65955  1.0000
  Hf  Hf91      1.0  0.59008  0.61526  0.16793  1.0000
  Hf  Hf92      1.0  0.59054  0.61123  0.67054  1.0000
  Hf  Hf93      1.0  0.84249  0.10964  0.16476  1.0000
  Hf  Hf94      1.0  0.84084  0.11957  0.65836  1.0000
  Hf  Hf95      1.0  0.84571  0.61208  0.16551  1.0000
  Hf  Hf96      1.0  0.83836  0.61809  0.67043  1.0000
  F   F1        1.0  0.07948  0.13022  0.30337  1.0000
  F   F2        1.0  0.07673  0.11237  0.80754  1.0000
  F   F3        1.0  0.07865  0.63873  0.29930  1.0000
  F   F4        1.0  0.07805  0.62503  0.81000  1.0000
  F   F5        1.0  0.32585  0.12487  0.31021  1.0000
  F   F6        1.0  0.32510  0.11350  0.81177  1.0000
  F   F7        1.0  0.32560  0.63080  0.30414  1.0000
  F   F8        1.0  0.33068  0.63608  0.79532  1.0000
  F   F9        1.0  0.58320  0.13402  0.29624  1.0000
  F   F10       1.0  0.57932  0.12817  0.80270  1.0000
  F   F11       1.0  0.57888  0.64972  0.29848  1.0000
  F   F12       1.0  0.57331  0.63448  0.80876  1.0000
  F   F13       1.0  0.82695  0.13495  0.29707  1.0000
  F   F14       1.0  0.83343  0.14839  0.79676  1.0000
  F   F15       1.0  0.83231  0.63372  0.29730  1.0000
  F   F16       1.0  0.82369  0.62421  0.81483  1.0000
  F   F17       1.0  0.18803  0.32968  0.45102  1.0000
  F   F18       1.0  0.18362  0.33140  0.95470  1.0000
  F   F19       1.0  0.17938  0.83208  0.45761  1.0000
  F   F20       1.0  0.19084  0.84172  0.94236  1.0000
  F   F21       1.0  0.43563  0.34036  0.44700  1.0000
  F   F22       1.0  0.43100  0.33406  0.95208  1.0000
  F   F23       1.0  0.43055  0.83607  0.45496  1.0000
  F   F24       1.0  0.44328  0.85200  0.94220  1.0000
  F   F25       1.0  0.68385  0.33687  0.44989  1.0000
  F   F26       1.0  0.69143  0.33391  0.94062  1.0000
  F   F27       1.0  0.67851  0.83654  0.45890  1.0000
  F   F28       1.0  0.69312  0.85893  0.93256  1.0000
  F   F29       1.0  0.94373  0.35829  0.43557  1.0000
  F   F30       1.0  0.93485  0.34377  0.94280  1.0000
  F   F31       1.0  0.93756  0.83215  0.45111  1.0000
  F   F32       1.0  0.94501  0.86387  0.93314  1.0000
  F   F33       1.0  0.17605  0.38095  0.18903  1.0000
  F   F34       1.0  0.17180  0.36831  0.69861  1.0000
  F   F35       1.0  0.17281  0.87641  0.19276  1.0000
  F   F36       1.0  0.17022  0.87524  0.70078  1.0000
  F   F37       1.0  0.41602  0.35840  0.20457  1.0000
  F   F38       1.0  0.42660  0.36609  0.70266  1.0000
  F   F39       1.0  0.41402  0.86277  0.20396  1.0000
  F   F40       1.0  0.42401  0.87448  0.69038  1.0000
  F   F41       1.0  0.67540  0.39850  0.17673  1.0000
  F   F42       1.0  0.67492  0.36953  0.69772  1.0000
  F   F43       1.0  0.67274  0.87662  0.19078  1.0000
  F   F44       1.0  0.67321  0.88965  0.68113  1.0000
  F   F45       1.0  0.92267  0.36497  0.19559  1.0000
  F   F46       1.0  0.92135  0.36859  0.69442  1.0000
  F   F47       1.0  0.91917  0.87725  0.19434  1.0000
  F   F48       1.0  0.91757  0.87294  0.69767  1.0000
  F   F49       1.0  0.06375  0.16040  0.05051  1.0000
  F   F50       1.0  0.06766  0.16736  0.54993  1.0000
  F   F51       1.0  0.07546  0.65522  0.04620  1.0000
  F   F52       1.0  0.06449  0.65475  0.56008  1.0000
  F   F53       1.0  0.31232  0.15399  0.05772  1.0000
  F   F54       1.0  0.32558  0.16594  0.53767  1.0000
  F   F55       1.0  0.31410  0.65968  0.05500  1.0000
  F   F56       1.0  0.31815  0.67203  0.54460  1.0000
  F   F57       1.0  0.55720  0.15411  0.06205  1.0000
  F   F58       1.0  0.56992  0.16725  0.54695  1.0000
  F   F59       1.0  0.56315  0.65425  0.05548  1.0000
  F   F60       1.0  0.56358  0.65757  0.55908  1.0000
  F   F61       1.0  0.80959  0.14808  0.06244  1.0000
  F   F62       1.0  0.81549  0.16622  0.54734  1.0000
  F   F63       1.0  0.82031  0.66007  0.04739  1.0000
  F   F64       1.0  0.80104  0.64916  0.56768  1.0000
  F   F65       1.0  0.20637  0.20009  0.20812  1.0000
  F   F66       1.0  0.20442  0.20168  0.71433  1.0000
  F   F67       1.0  0.19525  0.69890  0.21525  1.0000
  F   F68       1.0  0.21161  0.70277  0.71350  1.0000
  F   F69       1.0  0.45606  0.18560  0.22510  1.0000
  F   F70       1.0  0.45641  0.20569  0.71202  1.0000
  F   F71       1.0  0.45416  0.69836  0.20851  1.0000
  F   F72       1.0  0.45243  0.70126  0.72206  1.0000
  F   F73       1.0  0.69790  0.21060  0.20660  1.0000
  F   F74       1.0  0.71095  0.18837  0.70971  1.0000
  F   F75       1.0  0.70566  0.72113  0.21039  1.0000
  F   F76       1.0  0.70423  0.70393  0.71357  1.0000
  F   F77       1.0  0.95544  0.20717  0.21908  1.0000
  F   F78       1.0  0.95056  0.19843  0.69910  1.0000
  F   F79       1.0  0.95594  0.70392  0.20237  1.0000
  F   F80       1.0  0.96002  0.71051  0.71666  1.0000
  F   F81       1.0  0.14961  0.09838  0.03817  1.0000
  F   F82       1.0  0.14721  0.08613  0.54985  1.0000
  F   F83       1.0  0.15483  0.56877  0.02503  1.0000
  F   F84       1.0  0.14840  0.58033  0.54622  1.0000
  F   F85       1.0  0.40044  0.10249  0.04219  1.0000
  F   F86       1.0  0.40335  0.07751  0.53670  1.0000
  F   F87       1.0  0.39610  0.58834  0.04603  1.0000
  F   F88       1.0  0.39981  0.58610  0.52651  1.0000
  F   F89       1.0  0.64422  0.09010  0.04538  1.0000
  F   F90       1.0  0.65465  0.08661  0.52858  1.0000
  F   F91       1.0  0.64407  0.59068  0.05140  1.0000
  F   F92       1.0  0.64982  0.61058  0.54385  1.0000
  F   F93       1.0  0.90056  0.09533  0.04411  1.0000
  F   F94       1.0  0.89436  0.08314  0.54029  1.0000
  F   F95       1.0  0.90116  0.58687  0.04097  1.0000
  F   F96       1.0  0.89066  0.63055  0.53806  1.0000
  F   F97       1.0  0.15418  0.18620  0.13235  1.0000
  F   F98       1.0  0.14927  0.19344  0.62362  1.0000
  F   F99       1.0  0.15093  0.68495  0.10902  1.0000
  F   F100      1.0  0.15768  0.68331  0.62740  1.0000
  F   F101      1.0  0.39587  0.20268  0.15050  1.0000
  F   F102      1.0  0.40234  0.18725  0.61935  1.0000
  F   F103      1.0  0.40152  0.70209  0.11825  1.0000
  F   F104      1.0  0.40269  0.69105  0.62356  1.0000
  F   F105      1.0  0.65060  0.19132  0.11461  1.0000
  F   F106      1.0  0.65723  0.19383  0.61773  1.0000
  F   F107      1.0  0.64984  0.70333  0.12352  1.0000
  F   F108      1.0  0.65011  0.69301  0.65119  1.0000
  F   F109      1.0  0.90379  0.20780  0.12440  1.0000
  F   F110      1.0  0.89784  0.20865  0.60774  1.0000
  F   F111      1.0  0.90682  0.69212  0.12058  1.0000
  F   F112      1.0  0.90007  0.69704  0.65082  1.0000
  F   F113      1.0  0.10346  0.29920  0.35164  1.0000
  F   F114      1.0  0.10247  0.30958  0.88059  1.0000
  F   F115      1.0  0.09814  0.80815  0.38443  1.0000
  F   F116      1.0  0.09564  0.80645  0.86827  1.0000
  F   F117      1.0  0.34150  0.31227  0.38328  1.0000
  F   F118      1.0  0.34909  0.29741  0.85552  1.0000
  F   F119      1.0  0.34841  0.80114  0.38012  1.0000
  F   F120      1.0  0.34907  0.78565  0.88598  1.0000
  F   F121      1.0  0.59640  0.31693  0.37034  1.0000
  F   F122      1.0  0.59716  0.30566  0.86100  1.0000
  F   F123      1.0  0.59677  0.81793  0.36197  1.0000
  F   F124      1.0  0.59932  0.79827  0.86221  1.0000
  F   F125      1.0  0.84963  0.30931  0.36185  1.0000
  F   F126      1.0  0.85461  0.29122  0.87996  1.0000
  F   F127      1.0  0.84969  0.80115  0.38401  1.0000
  F   F128      1.0  0.84352  0.82229  0.86133  1.0000
  F   F129      1.0  0.07579  0.25301  0.12587  1.0000
  F   F130      1.0  0.05988  0.25231  0.65203  1.0000
  F   F131      1.0  0.06058  0.74901  0.15629  1.0000
  F   F132      1.0  0.06975  0.74597  0.63946  1.0000
  F   F133      1.0  0.32116  0.25115  0.14099  1.0000
  F   F134      1.0  0.31600  0.24797  0.64074  1.0000
  F   F135      1.0  0.31211  0.74679  0.14663  1.0000
  F   F136      1.0  0.30995  0.75699  0.64539  1.0000
  F   F137      1.0  0.55802  0.24390  0.16497  1.0000
  F   F138      1.0  0.56927  0.25386  0.63607  1.0000
  F   F139      1.0  0.55544  0.75102  0.14688  1.0000
  F   F140      1.0  0.56985  0.74805  0.63661  1.0000
  F   F141      1.0  0.82246  0.26128  0.12994  1.0000
  F   F142      1.0  0.81005  0.25864  0.64460  1.0000
  F   F143      1.0  0.81043  0.75131  0.14557  1.0000
  F   F144      1.0  0.81059  0.75261  0.63855  1.0000
  F   F145      1.0  0.12783  0.35429  0.12638  1.0000
  F   F146      1.0  0.12588  0.37346  0.60151  1.0000
  F   F147      1.0  0.12282  0.86429  0.10206  1.0000
  F   F148      1.0  0.12101  0.84574  0.63083  1.0000
  F   F149      1.0  0.37247  0.39007  0.08978  1.0000
  F   F150      1.0  0.37829  0.36221  0.61141  1.0000
  F   F151      1.0  0.37169  0.86653  0.10777  1.0000
  F   F152      1.0  0.37170  0.87063  0.60291  1.0000
  F   F153      1.0  0.62343  0.36705  0.10868  1.0000
  F   F154      1.0  0.62963  0.35941  0.61744  1.0000
  F   F155      1.0  0.62493  0.87270  0.10103  1.0000
  F   F156      1.0  0.62432  0.86920  0.61344  1.0000
  F   F157      1.0  0.87548  0.38927  0.09889  1.0000
  F   F158      1.0  0.87688  0.37820  0.59621  1.0000
  F   F159      1.0  0.87324  0.85407  0.11634  1.0000
  F   F160      1.0  0.87169  0.86357  0.60490  1.0000
  F   F161      1.0  0.18198  0.23970  0.37147  1.0000
  F   F162      1.0  0.19583  0.24887  0.84641  1.0000
  F   F163      1.0  0.17909  0.74175  0.36559  1.0000
  F   F164      1.0  0.18147  0.74473  0.87485  1.0000
  F   F165      1.0  0.43280  0.25057  0.36266  1.0000
  F   F166      1.0  0.42913  0.23735  0.87294  1.0000
  F   F167      1.0  0.43685  0.75076  0.34926  1.0000
  F   F168      1.0  0.43536  0.74522  0.87027  1.0000
  F   F169      1.0  0.68481  0.25693  0.34475  1.0000
  F   F170      1.0  0.68623  0.25363  0.84946  1.0000
  F   F171      1.0  0.67798  0.74099  0.36588  1.0000
  F   F172      1.0  0.67736  0.75477  0.86872  1.0000
  F   F173      1.0  0.93663  0.24867  0.36808  1.0000
  F   F174      1.0  0.94106  0.24384  0.84599  1.0000
  F   F175      1.0  0.93918  0.74783  0.34949  1.0000
  F   F176      1.0  0.92860  0.74277  0.88156  1.0000
  F   F177      1.0  0.12597  0.11917  0.39805  1.0000
  F   F178      1.0  0.12516  0.13319  0.89029  1.0000
  F   F179      1.0  0.12061  0.61843  0.41210  1.0000
  F   F180      1.0  0.13045  0.63676  0.87379  1.0000
  F   F181      1.0  0.37904  0.14390  0.37558  1.0000
  F   F182      1.0  0.37363  0.11969  0.90650  1.0000
  F   F183      1.0  0.37246  0.62558  0.39599  1.0000
  F   F184      1.0  0.37714  0.61826  0.89027  1.0000
  F   F185      1.0  0.62869  0.13850  0.38255  1.0000
  F   F186      1.0  0.62519  0.12332  0.89923  1.0000
  F   F187      1.0  0.62216  0.62288  0.40214  1.0000
  F   F188      1.0  0.62548  0.61123  0.90201  1.0000
  F   F189      1.0  0.88029  0.13812  0.37701  1.0000
  F   F190      1.0  0.87514  0.12417  0.90178  1.0000
  F   F191      1.0  0.87852  0.64592  0.38064  1.0000
  F   F192      1.0  0.87643  0.65706  0.86439  1.0000
  F   F193      1.0  0.01318  0.35427  0.06994  1.0000
  F   F194      1.0  0.00803  0.35944  0.55696  1.0000
  F   F195      1.0  0.00849  0.86975  0.06497  1.0000
  F   F196      1.0  0.01019  0.86353  0.58538  1.0000
  F   F197      1.0  0.25619  0.34732  0.10024  1.0000
  F   F198      1.0  0.25761  0.35573  0.57498  1.0000
  F   F199      1.0  0.25648  0.85121  0.08111  1.0000
  F   F200      1.0  0.25498  0.86256  0.57478  1.0000
  F   F201      1.0  0.50649  0.34473  0.08761  1.0000
  F   F202      1.0  0.51484  0.35827  0.56705  1.0000
  F   F203      1.0  0.50636  0.86369  0.06579  1.0000
  F   F204      1.0  0.51234  0.85940  0.57741  1.0000
  F   F205      1.0  0.75549  0.36052  0.08112  1.0000
  F   F206      1.0  0.75688  0.36278  0.56790  1.0000
  F   F207      1.0  0.75776  0.87452  0.04975  1.0000
  F   F208      1.0  0.75696  0.86682  0.57905  1.0000
  F   F209      1.0  0.07448  0.48631  0.15784  1.0000
  F   F210      1.0  0.06925  0.47821  0.67763  1.0000
  F   F211      1.0  0.06880  0.98208  0.17394  1.0000
  F   F212      1.0  0.07104  0.97925  0.67508  1.0000
  F   F213      1.0  0.30757  0.48564  0.19592  1.0000
  F   F214      1.0  0.32257  0.48761  0.65985  1.0000
  F   F215      1.0  0.31487  0.98136  0.18336  1.0000
  F   F216      1.0  0.32062  0.98543  0.66796  1.0000
  F   F217      1.0  0.56238  0.48868  0.17079  1.0000
  F   F218      1.0  0.57668  0.49276  0.65252  1.0000
  F   F219      1.0  0.56211  0.98260  0.18369  1.0000
  F   F220      1.0  0.56924  0.99617  0.66703  1.0000
  F   F221      1.0  0.81828  0.49334  0.16772  1.0000
  F   F222      1.0  0.82232  0.48996  0.67921  1.0000
  F   F223      1.0  0.82147  0.99060  0.16744  1.0000
  F   F224      1.0  0.81740  0.98395  0.66911  1.0000
  F   F225      1.0  0.24054  0.11548  0.44069  1.0000
  F   F226      1.0  0.23762  0.12570  0.94470  1.0000
  F   F227      1.0  0.23938  0.64365  0.41581  1.0000
  F   F228      1.0  0.24452  0.63304  0.91817  1.0000
  F   F229      1.0  0.49298  0.13482  0.42333  1.0000
  F   F230      1.0  0.49180  0.12709  0.94039  1.0000
  F   F231      1.0  0.48922  0.63111  0.43234  1.0000
  F   F232      1.0  0.48890  0.63593  0.92590  1.0000
  F   F233      1.0  0.74492  0.14123  0.40969  1.0000
  F   F234      1.0  0.74420  0.13779  0.92243  1.0000
  F   F235      1.0  0.74593  0.63789  0.42418  1.0000
  F   F236      1.0  0.73144  0.63336  0.93942  1.0000
  F   F237      1.0  0.99428  0.12110  0.42009  1.0000
  F   F238      1.0  0.99549  0.12349  0.93157  1.0000
  F   F239      1.0  0.99401  0.64195  0.42732  1.0000
  F   F240      1.0  0.99361  0.63277  0.92927  1.0000
  F   F241      1.0  0.18178  0.01337  0.31465  1.0000
  F   F242      1.0  0.17724  0.00660  0.82955  1.0000
  F   F243      1.0  0.17605  0.51295  0.33704  1.0000
  F   F244      1.0  0.18661  0.52816  0.79440  1.0000
  F   F245      1.0  0.42415  0.00689  0.34099  1.0000
  F   F246      1.0  0.43006  0.01214  0.82747  1.0000
  F   F247      1.0  0.42430  0.51348  0.33161  1.0000
  F   F248      1.0  0.43037  0.51334  0.81852  1.0000
  F   F249      1.0  0.68703  0.01592  0.31647  1.0000
  F   F250      1.0  0.68255  0.02953  0.81387  1.0000
  F   F251      1.0  0.68099  0.51601  0.31578  1.0000
  F   F252      1.0  0.67932  0.50940  0.83566  1.0000
  F   F253      1.0  0.92988  0.00579  0.32573  1.0000
  F   F254      1.0  0.92608  0.02529  0.82344  1.0000
  F   F255      1.0  0.92967  0.52770  0.30794  1.0000
  F   F256      1.0  0.92689  0.52179  0.82874  1.0000
  F   F257      1.0  0.99873  0.24493  0.00466  1.0000
  F   F258      1.0  0.99769  0.24218  0.48741  1.0000
  F   F259      1.0  0.00409  0.75162  0.99666  1.0000
  F   F260      1.0  0.00309  0.75874  0.49843  1.0000
  F   F261      1.0  0.25696  0.25474  0.99572  1.0000
  F   F262      1.0  0.25163  0.23946  0.50108  1.0000
  F   F263      1.0  0.25111  0.74539  0.00455  1.0000
  F   F264      1.0  0.24552  0.74009  0.50983  1.0000
  F   F265      1.0  0.50063  0.26136  0.98585  1.0000
  F   F266      1.0  0.49858  0.24193  0.49661  1.0000
  F   F267      1.0  0.49603  0.73472  0.00549  1.0000
  F   F268      1.0  0.50270  0.75517  0.50778  1.0000
  F   F269      1.0  0.75140  0.25340  0.99280  1.0000
  F   F270      1.0  0.75277  0.24604  0.49340  1.0000
  F   F271      1.0  0.74338  0.73665  0.01297  1.0000
  F   F272      1.0  0.75251  0.77158  0.48694  1.0000
  F   F273      1.0  0.12037  0.99760  0.25703  1.0000
  F   F274      1.0  0.12503  0.99459  0.75343  1.0000
  F   F275      1.0  0.12472  0.49659  0.25342  1.0000
  F   F276      1.0  0.12153  0.49278  0.75860  1.0000
  F   F277      1.0  0.37489  0.00005  0.24642  1.0000
  F   F278      1.0  0.37609  0.99462  0.75059  1.0000
  F   F279      1.0  0.37179  0.49618  0.26232  1.0000
  F   F280      1.0  0.37621  0.50739  0.73220  1.0000
  F   F281      1.0  0.62383  0.99731  0.24258  1.0000
  F   F282      1.0  0.62750  0.99951  0.74324  1.0000
  F   F283      1.0  0.62140  0.49939  0.25766  1.0000
  F   F284      1.0  0.62077  0.50120  0.75373  1.0000
  F   F285      1.0  0.87378  0.99260  0.25116  1.0000
  F   F286      1.0  0.87601  0.01398  0.73613  1.0000
  F   F287      1.0  0.86901  0.49420  0.25107  1.0000
  F   F288      1.0  0.87595  0.50567  0.75380  1.0000
  F   F289      1.0  0.04820  0.02495  0.02116  1.0000
  F   F290      1.0  0.04531  0.02719  0.53203  1.0000
  F   F291      1.0  0.04425  0.53088  0.02121  1.0000
  F   F292      1.0  0.04311  0.52895  0.51201  1.0000
  F   F293      1.0  0.29577  0.02708  0.02502  1.0000
  F   F294      1.0  0.29638  0.02806  0.52138  1.0000
  F   F295      1.0  0.29557  0.52312  0.02281  1.0000
  F   F296      1.0  0.29682  0.53904  0.51727  1.0000
  F   F297      1.0  0.54656  0.02013  0.02292  1.0000
  F   F298      1.0  0.54481  0.04245  0.51736  1.0000
  F   F299      1.0  0.54082  0.52581  0.01596  1.0000
  F   F300      1.0  0.53374  0.52729  0.52967  1.0000
  F   F301      1.0  0.78936  0.02894  0.02156  1.0000
  F   F302      1.0  0.79777  0.03932  0.51393  1.0000
  F   F303      1.0  0.79078  0.54040  0.02097  1.0000
  F   F304      1.0  0.80356  0.52474  0.51091  1.0000
  F   F305      1.0  0.22799  0.42931  0.23050  1.0000
  F   F306      1.0  0.23883  0.41241  0.72477  1.0000
  F   F307      1.0  0.23390  0.90802  0.22700  1.0000
  F   F308      1.0  0.23381  0.91307  0.72806  1.0000
  F   F309      1.0  0.48149  0.41247  0.22470  1.0000
  F   F310      1.0  0.48930  0.40562  0.72731  1.0000
  F   F311      1.0  0.47862  0.91941  0.21875  1.0000
  F   F312      1.0  0.48604  0.92804  0.72042  1.0000
  F   F313      1.0  0.73693  0.41170  0.23626  1.0000
  F   F314      1.0  0.73380  0.43107  0.71697  1.0000
  F   F315      1.0  0.73732  0.90752  0.23089  1.0000
  F   F316      1.0  0.73391  0.91815  0.72378  1.0000
  F   F317      1.0  0.98461  0.42762  0.21392  1.0000
  F   F318      1.0  0.98126  0.41508  0.72098  1.0000
  F   F319      1.0  0.98629  0.90985  0.23320  1.0000
  F   F320      1.0  0.97980  0.92114  0.73707  1.0000
  F   F321      1.0  0.20803  0.46190  0.47882  1.0000
  F   F322      1.0  0.22007  0.45722  0.95669  1.0000
  F   F323      1.0  0.19485  0.96139  0.48461  1.0000
  F   F324      1.0  0.21057  0.96721  0.96907  1.0000
  F   F325      1.0  0.45964  0.46540  0.47552  1.0000
  F   F326      1.0  0.45221  0.46629  0.98745  1.0000
  F   F327      1.0  0.46158  0.96274  0.48197  1.0000
  F   F328      1.0  0.45282  0.96866  0.99038  1.0000
  F   F329      1.0  0.70459  0.47451  0.47019  1.0000
  F   F330      1.0  0.70716  0.46426  0.97604  1.0000
  F   F331      1.0  0.71263  0.97372  0.45538  1.0000
  F   F332      1.0  0.70056  0.98092  0.97655  1.0000
  F   F333      1.0  0.94520  0.49221  0.48218  1.0000
  F   F334      1.0  0.95840  0.47032  0.97632  1.0000
  F   F335      1.0  0.95780  0.95217  0.47636  1.0000
  F   F336      1.0  0.95378  0.98112  0.98549  1.0000
  F   F337      1.0  0.01549  0.09384  0.25632  1.0000
  F   F338      1.0  0.01140  0.08515  0.77421  1.0000
  F   F339      1.0  0.01955  0.57477  0.27716  1.0000
  F   F340      1.0  0.01515  0.57360  0.78739  1.0000
  F   F341      1.0  0.26162  0.07593  0.28368  1.0000
  F   F342      1.0  0.26308  0.08507  0.76504  1.0000
  F   F343      1.0  0.26297  0.59344  0.26573  1.0000
  F   F344      1.0  0.27252  0.56982  0.77572  1.0000
  F   F345      1.0  0.51671  0.07128  0.29261  1.0000
  F   F346      1.0  0.51464  0.08829  0.76787  1.0000
  F   F347      1.0  0.51430  0.58303  0.28063  1.0000
  F   F348      1.0  0.51349  0.58428  0.76824  1.0000
  F   F349      1.0  0.76739  0.09880  0.24638  1.0000
  F   F350      1.0  0.77027  0.07835  0.78185  1.0000
  F   F351      1.0  0.76480  0.58782  0.26834  1.0000
  F   F352      1.0  0.75819  0.58986  0.77227  1.0000
  F   F353      1.0  0.09731  0.38438  0.46866  1.0000
  F   F354      1.0  0.10928  0.41743  0.96009  1.0000
  F   F355      1.0  0.09788  0.90653  0.46641  1.0000
  F   F356      1.0  0.09996  0.89474  0.96613  1.0000
  F   F357      1.0  0.34887  0.41003  0.47545  1.0000
  F   F358      1.0  0.34872  0.39996  0.94399  1.0000
  F   F359      1.0  0.34824  0.90075  0.46696  1.0000
  F   F360      1.0  0.35001  0.89239  0.96102  1.0000
  F   F361      1.0  0.60461  0.41637  0.46565  1.0000
  F   F362      1.0  0.60053  0.39946  0.96118  1.0000
  F   F363      1.0  0.60374  0.92002  0.45258  1.0000
  F   F364      1.0  0.60120  0.89216  0.95962  1.0000
  F   F365      1.0  0.85227  0.40154  0.45734  1.0000
  F   F366      1.0  0.84825  0.41423  0.95286  1.0000
  F   F367      1.0  0.85306  0.91036  0.46164  1.0000
  F   F368      1.0  0.85197  0.91415  0.95653  1.0000
  F   F369      1.0  0.04262  0.30503  0.28855  1.0000
  F   F370      1.0  0.04596  0.29293  0.79580  1.0000
  F   F371      1.0  0.04831  0.80781  0.29451  1.0000
  F   F372      1.0  0.03822  0.79214  0.79288  1.0000
  F   F373      1.0  0.29436  0.29893  0.29150  1.0000
  F   F374      1.0  0.29623  0.29340  0.78172  1.0000
  F   F375      1.0  0.29711  0.79491  0.28575  1.0000
  F   F376      1.0  0.29140  0.79379  0.80398  1.0000
  F   F377      1.0  0.54876  0.30524  0.28763  1.0000
  F   F378      1.0  0.54386  0.29742  0.79180  1.0000
  F   F379      1.0  0.53909  0.80324  0.30256  1.0000
  F   F380      1.0  0.54178  0.81068  0.78263  1.0000
  F   F381      1.0  0.80277  0.30418  0.27998  1.0000
  F   F382      1.0  0.79301  0.30571  0.79091  1.0000
  F   F383      1.0  0.79614  0.79474  0.29583  1.0000
  F   F384      1.0  0.79018  0.78877  0.79053  1.0000
