data_image0
_chemical_formula_structural       Hf96F384
_chemical_formula_sum              "Hf96 F384"
_cell_length_a       31.0291
_cell_length_b       15.5182
_cell_length_c       15.5072
_cell_angle_alpha    63.342
_cell_angle_beta     63.342
_cell_angle_gamma    80.1625

_space_group_name_H-M_alt    "P 1"
_space_group_IT_number       1

loop_
  _space_group_symop_operation_xyz
  'x, y, z'

loop_
  _atom_site_type_symbol
  _atom_site_label
  _atom_site_symmetry_multiplicity
  _atom_site_fract_x
  _atom_site_fract_y
  _atom_site_fract_z
  _atom_site_occupancy
  Hf  Hf1       1.0  0.19652  0.10113  0.37188  1.0000
  Hf  Hf2       1.0  0.19363  0.09810  0.88065  1.0000
  Hf  Hf3       1.0  0.19457  0.60789  0.37457  1.0000
  Hf  Hf4       1.0  0.20108  0.60429  0.86946  1.0000
  Hf  Hf5       1.0  0.44484  0.10959  0.37572  1.0000
  Hf  Hf6       1.0  0.44754  0.12038  0.86718  1.0000
  Hf  Hf7       1.0  0.44443  0.61698  0.37116  1.0000
  Hf  Hf8       1.0  0.44682  0.60894  0.87616  1.0000
  Hf  Hf9       1.0  0.70018  0.10991  0.37510  1.0000
  Hf  Hf10      1.0  0.69695  0.10948  0.87439  1.0000
  Hf  Hf11      1.0  0.69621  0.62228  0.35917  1.0000
  Hf  Hf12      1.0  0.69672  0.61059  0.87547  1.0000
  Hf  Hf13      1.0  0.94276  0.10167  0.37944  1.0000
  Hf  Hf14      1.0  0.94151  0.09941  0.88244  1.0000
  Hf  Hf15      1.0  0.94920  0.59725  0.38186  1.0000
  Hf  Hf16      1.0  0.94804  0.60786  0.86707  1.0000
  Hf  Hf17      1.0  0.05439  0.39094  0.12256  1.0000
  Hf  Hf18      1.0  0.05226  0.38619  0.63454  1.0000
  Hf  Hf19      1.0  0.05409  0.88836  0.12679  1.0000
  Hf  Hf20      1.0  0.04869  0.89239  0.63257  1.0000
  Hf  Hf21      1.0  0.30024  0.39314  0.12895  1.0000
  Hf  Hf22      1.0  0.30507  0.39355  0.62192  1.0000
  Hf  Hf23      1.0  0.30535  0.89402  0.11788  1.0000
  Hf  Hf24      1.0  0.30502  0.89136  0.62617  1.0000
  Hf  Hf25      1.0  0.55565  0.39885  0.11885  1.0000
  Hf  Hf26      1.0  0.55175  0.39110  0.62845  1.0000
  Hf  Hf27      1.0  0.55146  0.90251  0.12370  1.0000
  Hf  Hf28      1.0  0.55511  0.89016  0.62884  1.0000
  Hf  Hf29      1.0  0.80154  0.39813  0.12226  1.0000
  Hf  Hf30      1.0  0.80405  0.39552  0.62624  1.0000
  Hf  Hf31      1.0  0.80623  0.89623  0.12357  1.0000
  Hf  Hf32      1.0  0.80383  0.89312  0.62163  1.0000
  Hf  Hf33      1.0  0.05755  0.18650  0.41300  1.0000
  Hf  Hf34      1.0  0.05450  0.17168  0.92024  1.0000
  Hf  Hf35      1.0  0.05470  0.67742  0.42045  1.0000
  Hf  Hf36      1.0  0.05775  0.67669  0.91980  1.0000
  Hf  Hf37      1.0  0.30306  0.18286  0.41786  1.0000
  Hf  Hf38      1.0  0.30445  0.17807  0.91862  1.0000
  Hf  Hf39      1.0  0.30462  0.68198  0.41246  1.0000
  Hf  Hf40      1.0  0.30803  0.68410  0.91130  1.0000
  Hf  Hf41      1.0  0.55695  0.17550  0.42009  1.0000
  Hf  Hf42      1.0  0.55870  0.18736  0.91372  1.0000
  Hf  Hf43      1.0  0.55365  0.69259  0.41772  1.0000
  Hf  Hf44      1.0  0.55678  0.68346  0.92276  1.0000
  Hf  Hf45      1.0  0.80374  0.19057  0.41754  1.0000
  Hf  Hf46      1.0  0.80498  0.18134  0.91533  1.0000
  Hf  Hf47      1.0  0.80568  0.68624  0.41433  1.0000
  Hf  Hf48      1.0  0.80696  0.68431  0.91681  1.0000
  Hf  Hf49      1.0  0.15968  0.37715  0.34194  1.0000
  Hf  Hf50      1.0  0.15950  0.38271  0.83642  1.0000
  Hf  Hf51      1.0  0.16098  0.88809  0.32811  1.0000
  Hf  Hf52      1.0  0.16038  0.87983  0.83549  1.0000
  Hf  Hf53      1.0  0.40902  0.39427  0.33136  1.0000
  Hf  Hf54      1.0  0.40619  0.39459  0.83475  1.0000
  Hf  Hf55      1.0  0.40804  0.88941  0.33373  1.0000
  Hf  Hf56      1.0  0.41092  0.89516  0.82309  1.0000
  Hf  Hf57      1.0  0.65446  0.38710  0.33865  1.0000
  Hf  Hf58      1.0  0.66077  0.39144  0.83183  1.0000
  Hf  Hf59      1.0  0.66414  0.89688  0.32602  1.0000
  Hf  Hf60      1.0  0.66009  0.89781  0.82625  1.0000
  Hf  Hf61      1.0  0.90961  0.38401  0.33578  1.0000
  Hf  Hf62      1.0  0.90652  0.38662  0.83747  1.0000
  Hf  Hf63      1.0  0.90784  0.88529  0.33390  1.0000
  Hf  Hf64      1.0  0.90623  0.88183  0.84167  1.0000
  Hf  Hf65      1.0  0.19194  0.30809  0.09154  1.0000
  Hf  Hf66      1.0  0.19384  0.31663  0.58166  1.0000
  Hf  Hf67      1.0  0.19469  0.80917  0.08254  1.0000
  Hf  Hf68      1.0  0.19513  0.80817  0.58679  1.0000
  Hf  Hf69      1.0  0.44528  0.32067  0.08386  1.0000
  Hf  Hf70      1.0  0.44370  0.31606  0.58629  1.0000
  Hf  Hf71      1.0  0.44939  0.83211  0.06910  1.0000
  Hf  Hf72      1.0  0.44586  0.82525  0.58070  1.0000
  Hf  Hf73      1.0  0.69163  0.31263  0.09053  1.0000
  Hf  Hf74      1.0  0.69348  0.32651  0.57614  1.0000
  Hf  Hf75      1.0  0.69729  0.82432  0.07476  1.0000
  Hf  Hf76      1.0  0.69625  0.82009  0.57987  1.0000
  Hf  Hf77      1.0  0.94119  0.31541  0.08798  1.0000
  Hf  Hf78      1.0  0.94450  0.31427  0.58758  1.0000
  Hf  Hf79      1.0  0.94187  0.80872  0.09238  1.0000
  Hf  Hf80      1.0  0.94463  0.81818  0.58258  1.0000
  Hf  Hf81      1.0  0.08992  0.10399  0.17241  1.0000
  Hf  Hf82      1.0  0.09074  0.10689  0.66687  1.0000
  Hf  Hf83      1.0  0.09388  0.60197  0.16527  1.0000
  Hf  Hf84      1.0  0.09303  0.60631  0.66976  1.0000
  Hf  Hf85      1.0  0.34356  0.10979  0.17036  1.0000
  Hf  Hf86      1.0  0.33861  0.10657  0.66850  1.0000
  Hf  Hf87      1.0  0.34585  0.62092  0.15900  1.0000
  Hf  Hf88      1.0  0.33793  0.61489  0.66272  1.0000
  Hf  Hf89      1.0  0.59078  0.11341  0.16957  1.0000
  Hf  Hf90      1.0  0.58993  0.12059  0.66389  1.0000
  Hf  Hf91      1.0  0.58811  0.61811  0.17507  1.0000
  Hf  Hf92      1.0  0.59286  0.61645  0.66052  1.0000
  Hf  Hf93      1.0  0.84366  0.11507  0.16534  1.0000
  Hf  Hf94      1.0  0.84029  0.11248  0.66888  1.0000
  Hf  Hf95      1.0  0.84093  0.61256  0.16754  1.0000
  Hf  Hf96      1.0  0.84231  0.60621  0.66844  1.0000
  F   F1        1.0  0.07392  0.12128  0.30734  1.0000
  F   F2        1.0  0.08188  0.12267  0.80022  1.0000
  F   F3        1.0  0.07845  0.61039  0.31486  1.0000
  F   F4        1.0  0.07218  0.62371  0.81568  1.0000
  F   F5        1.0  0.32838  0.12941  0.31138  1.0000
  F   F6        1.0  0.33393  0.14740  0.78463  1.0000
  F   F7        1.0  0.33421  0.64107  0.29203  1.0000
  F   F8        1.0  0.32630  0.62415  0.80105  1.0000
  F   F9        1.0  0.57397  0.12735  0.30517  1.0000
  F   F10       1.0  0.57822  0.13579  0.80138  1.0000
  F   F11       1.0  0.57654  0.62974  0.30431  1.0000
  F   F12       1.0  0.57526  0.63036  0.80304  1.0000
  F   F13       1.0  0.83282  0.13977  0.29298  1.0000
  F   F14       1.0  0.82546  0.12660  0.80549  1.0000
  F   F15       1.0  0.83620  0.64046  0.29228  1.0000
  F   F16       1.0  0.82648  0.63269  0.80272  1.0000
  F   F17       1.0  0.18919  0.33682  0.45384  1.0000
  F   F18       1.0  0.17839  0.31558  0.96357  1.0000
  F   F19       1.0  0.17295  0.82008  0.46502  1.0000
  F   F20       1.0  0.18617  0.82987  0.94969  1.0000
  F   F21       1.0  0.44106  0.35395  0.43446  1.0000
  F   F22       1.0  0.42724  0.35217  0.94713  1.0000
  F   F23       1.0  0.42926  0.83832  0.45997  1.0000
  F   F24       1.0  0.44467  0.85280  0.92972  1.0000
  F   F25       1.0  0.68726  0.34774  0.43292  1.0000
  F   F26       1.0  0.68051  0.33037  0.96550  1.0000
  F   F27       1.0  0.69300  0.85098  0.43626  1.0000
  F   F28       1.0  0.69102  0.84094  0.93942  1.0000
  F   F29       1.0  0.94076  0.32791  0.45510  1.0000
  F   F30       1.0  0.93875  0.34391  0.93462  1.0000
  F   F31       1.0  0.93317  0.83165  0.45271  1.0000
  F   F32       1.0  0.93358  0.83549  0.95235  1.0000
  F   F33       1.0  0.16387  0.34314  0.21519  1.0000
  F   F34       1.0  0.16446  0.37005  0.70179  1.0000
  F   F35       1.0  0.17472  0.86400  0.20149  1.0000
  F   F36       1.0  0.16398  0.84255  0.71193  1.0000
  F   F37       1.0  0.42194  0.38190  0.19507  1.0000
  F   F38       1.0  0.42212  0.36556  0.69959  1.0000
  F   F39       1.0  0.42893  0.88789  0.18035  1.0000
  F   F40       1.0  0.42216  0.89465  0.68597  1.0000
  F   F41       1.0  0.67752  0.36333  0.19665  1.0000
  F   F42       1.0  0.67530  0.38049  0.69579  1.0000
  F   F43       1.0  0.67427  0.87618  0.18501  1.0000
  F   F44       1.0  0.67435  0.88193  0.68221  1.0000
  F   F45       1.0  0.92049  0.36987  0.20124  1.0000
  F   F46       1.0  0.92259  0.37729  0.69654  1.0000
  F   F47       1.0  0.92082  0.85551  0.20851  1.0000
  F   F48       1.0  0.91905  0.86916  0.70147  1.0000
  F   F49       1.0  0.05575  0.12847  0.06631  1.0000
  F   F50       1.0  0.07143  0.15507  0.54630  1.0000
  F   F51       1.0  0.06461  0.64615  0.05578  1.0000
  F   F52       1.0  0.06607  0.66347  0.55558  1.0000
  F   F53       1.0  0.31104  0.15029  0.05875  1.0000
  F   F54       1.0  0.31262  0.16276  0.55835  1.0000
  F   F55       1.0  0.31796  0.66651  0.05128  1.0000
  F   F56       1.0  0.30944  0.64842  0.55062  1.0000
  F   F57       1.0  0.56255  0.15928  0.05150  1.0000
  F   F58       1.0  0.56971  0.16606  0.54592  1.0000
  F   F59       1.0  0.56292  0.66653  0.05863  1.0000
  F   F60       1.0  0.56799  0.66197  0.54542  1.0000
  F   F61       1.0  0.82119  0.17131  0.04021  1.0000
  F   F62       1.0  0.81514  0.17503  0.54023  1.0000
  F   F63       1.0  0.81748  0.66913  0.04532  1.0000
  F   F64       1.0  0.82125  0.65408  0.54855  1.0000
  F   F65       1.0  0.20331  0.19262  0.21753  1.0000
  F   F66       1.0  0.20425  0.19265  0.70748  1.0000
  F   F67       1.0  0.20696  0.69241  0.21229  1.0000
  F   F68       1.0  0.21170  0.69401  0.70589  1.0000
  F   F69       1.0  0.44781  0.21155  0.22622  1.0000
  F   F70       1.0  0.44953  0.20649  0.72252  1.0000
  F   F71       1.0  0.45578  0.71164  0.21350  1.0000
  F   F72       1.0  0.45454  0.72005  0.70881  1.0000
  F   F73       1.0  0.70478  0.19990  0.22224  1.0000
  F   F74       1.0  0.69765  0.20105  0.71292  1.0000
  F   F75       1.0  0.70758  0.70194  0.20419  1.0000
  F   F76       1.0  0.70639  0.71121  0.71129  1.0000
  F   F77       1.0  0.94621  0.20251  0.22211  1.0000
  F   F78       1.0  0.95952  0.20258  0.71146  1.0000
  F   F79       1.0  0.95299  0.68918  0.21621  1.0000
  F   F80       1.0  0.94939  0.69660  0.71935  1.0000
  F   F81       1.0  0.14395  0.07071  0.04448  1.0000
  F   F82       1.0  0.15261  0.08029  0.52325  1.0000
  F   F83       1.0  0.15086  0.57998  0.03486  1.0000
  F   F84       1.0  0.15106  0.60975  0.54042  1.0000
  F   F85       1.0  0.39950  0.11310  0.03337  1.0000
  F   F86       1.0  0.39729  0.08266  0.53853  1.0000
  F   F87       1.0  0.39724  0.57559  0.04844  1.0000
  F   F88       1.0  0.39473  0.63134  0.52392  1.0000
  F   F89       1.0  0.64580  0.10797  0.03827  1.0000
  F   F90       1.0  0.65365  0.08240  0.54202  1.0000
  F   F91       1.0  0.64852  0.59966  0.03887  1.0000
  F   F92       1.0  0.65313  0.60238  0.52157  1.0000
  F   F93       1.0  0.89871  0.08371  0.05041  1.0000
  F   F94       1.0  0.89958  0.09325  0.54050  1.0000
  F   F95       1.0  0.89582  0.58213  0.03947  1.0000
  F   F96       1.0  0.90520  0.58042  0.54440  1.0000
  F   F97       1.0  0.14887  0.19118  0.13846  1.0000
  F   F98       1.0  0.14783  0.18560  0.62521  1.0000
  F   F99       1.0  0.15612  0.66427  0.13923  1.0000
  F   F100      1.0  0.14761  0.69969  0.64873  1.0000
  F   F101      1.0  0.40672  0.19205  0.12739  1.0000
  F   F102      1.0  0.40033  0.20652  0.60860  1.0000
  F   F103      1.0  0.40486  0.71612  0.11124  1.0000
  F   F104      1.0  0.39988  0.70236  0.63674  1.0000
  F   F105      1.0  0.64638  0.19710  0.15177  1.0000
  F   F106      1.0  0.65252  0.20383  0.61597  1.0000
  F   F107      1.0  0.65275  0.70334  0.11813  1.0000
  F   F108      1.0  0.65903  0.69426  0.62253  1.0000
  F   F109      1.0  0.90138  0.20083  0.12240  1.0000
  F   F110      1.0  0.90250  0.19552  0.64600  1.0000
  F   F111      1.0  0.90272  0.69257  0.10567  1.0000
  F   F112      1.0  0.89933  0.69155  0.63816  1.0000
  F   F113      1.0  0.09380  0.30129  0.37450  1.0000
  F   F114      1.0  0.10051  0.28653  0.90039  1.0000
  F   F115      1.0  0.08990  0.80148  0.34651  1.0000
  F   F116      1.0  0.10195  0.79622  0.88338  1.0000
  F   F117      1.0  0.34179  0.29901  0.36572  1.0000
  F   F118      1.0  0.34960  0.30403  0.87930  1.0000
  F   F119      1.0  0.35243  0.80156  0.37512  1.0000
  F   F120      1.0  0.35300  0.80174  0.86032  1.0000
  F   F121      1.0  0.59719  0.31225  0.36194  1.0000
  F   F122      1.0  0.59739  0.30526  0.87083  1.0000
  F   F123      1.0  0.60208  0.82338  0.35409  1.0000
  F   F124      1.0  0.60446  0.80232  0.86425  1.0000
  F   F125      1.0  0.85021  0.29673  0.37022  1.0000
  F   F126      1.0  0.85061  0.30489  0.86493  1.0000
  F   F127      1.0  0.84454  0.79995  0.39363  1.0000
  F   F128      1.0  0.84612  0.81765  0.88098  1.0000
  F   F129      1.0  0.06968  0.24725  0.12169  1.0000
  F   F130      1.0  0.05804  0.24825  0.64752  1.0000
  F   F131      1.0  0.07648  0.73922  0.12639  1.0000
  F   F132      1.0  0.06752  0.74599  0.64107  1.0000
  F   F133      1.0  0.32389  0.24661  0.13044  1.0000
  F   F134      1.0  0.31271  0.25819  0.64872  1.0000
  F   F135      1.0  0.31158  0.75014  0.15066  1.0000
  F   F136      1.0  0.31837  0.75568  0.61117  1.0000
  F   F137      1.0  0.56951  0.26073  0.13754  1.0000
  F   F138      1.0  0.55482  0.25801  0.63961  1.0000
  F   F139      1.0  0.56801  0.75703  0.15224  1.0000
  F   F140      1.0  0.56849  0.75294  0.62760  1.0000
  F   F141      1.0  0.80957  0.26036  0.14756  1.0000
  F   F142      1.0  0.81138  0.24258  0.65063  1.0000
  F   F143      1.0  0.81188  0.75944  0.14914  1.0000
  F   F144      1.0  0.81489  0.74725  0.64056  1.0000
  F   F145      1.0  0.12262  0.36352  0.12304  1.0000
  F   F146      1.0  0.12509  0.35269  0.61426  1.0000
  F   F147      1.0  0.12664  0.85870  0.10985  1.0000
  F   F148      1.0  0.11728  0.88618  0.60367  1.0000
  F   F149      1.0  0.37209  0.36408  0.11890  1.0000
  F   F150      1.0  0.37461  0.37183  0.60684  1.0000
  F   F151      1.0  0.38031  0.87221  0.10341  1.0000
  F   F152      1.0  0.37335  0.86565  0.61063  1.0000
  F   F153      1.0  0.62599  0.39626  0.10092  1.0000
  F   F154      1.0  0.62399  0.37329  0.60596  1.0000
  F   F155      1.0  0.62398  0.88067  0.09636  1.0000
  F   F156      1.0  0.62079  0.86332  0.62163  1.0000
  F   F157      1.0  0.87395  0.37024  0.10756  1.0000
  F   F158      1.0  0.87429  0.36952  0.60862  1.0000
  F   F159      1.0  0.87748  0.86301  0.11829  1.0000
  F   F160      1.0  0.87561  0.85737  0.60647  1.0000
  F   F161      1.0  0.18270  0.23688  0.37492  1.0000
  F   F162      1.0  0.19121  0.25105  0.84127  1.0000
  F   F163      1.0  0.18767  0.74519  0.35501  1.0000
  F   F164      1.0  0.18963  0.74115  0.86278  1.0000
  F   F165      1.0  0.42211  0.25154  0.37019  1.0000
  F   F166      1.0  0.43481  0.25880  0.85071  1.0000
  F   F167      1.0  0.43736  0.75888  0.34803  1.0000
  F   F168      1.0  0.43090  0.74965  0.86884  1.0000
  F   F169      1.0  0.67758  0.24661  0.36424  1.0000
  F   F170      1.0  0.69334  0.25263  0.84967  1.0000
  F   F171      1.0  0.68694  0.75871  0.35214  1.0000
  F   F172      1.0  0.69003  0.74762  0.85727  1.0000
  F   F173      1.0  0.93141  0.24583  0.36217  1.0000
  F   F174      1.0  0.92710  0.23580  0.87316  1.0000
  F   F175      1.0  0.93937  0.73931  0.36034  1.0000
  F   F176      1.0  0.92701  0.73988  0.86754  1.0000
  F   F177      1.0  0.12541  0.13343  0.37423  1.0000
  F   F178      1.0  0.12462  0.12541  0.89356  1.0000
  F   F179      1.0  0.12341  0.63658  0.39271  1.0000
  F   F180      1.0  0.12775  0.64400  0.87321  1.0000
  F   F181      1.0  0.37300  0.12104  0.40716  1.0000
  F   F182      1.0  0.37455  0.12066  0.90363  1.0000
  F   F183      1.0  0.37474  0.61358  0.38927  1.0000
  F   F184      1.0  0.37641  0.62590  0.89091  1.0000
  F   F185      1.0  0.62441  0.13156  0.38862  1.0000
  F   F186      1.0  0.62654  0.12880  0.89854  1.0000
  F   F187      1.0  0.62159  0.65332  0.38426  1.0000
  F   F188      1.0  0.62605  0.62353  0.88698  1.0000
  F   F189      1.0  0.87068  0.10677  0.41477  1.0000
  F   F190      1.0  0.87370  0.11770  0.89433  1.0000
  F   F191      1.0  0.87969  0.63947  0.37896  1.0000
  F   F192      1.0  0.87028  0.62132  0.90295  1.0000
  F   F193      1.0  0.00356  0.36268  0.06338  1.0000
  F   F194      1.0  0.01027  0.35682  0.56656  1.0000
  F   F195      1.0  0.01155  0.84771  0.08097  1.0000
  F   F196      1.0  0.00451  0.85048  0.58382  1.0000
  F   F197      1.0  0.25452  0.35411  0.09138  1.0000
  F   F198      1.0  0.25318  0.36566  0.58723  1.0000
  F   F199      1.0  0.25684  0.85079  0.07166  1.0000
  F   F200      1.0  0.25513  0.86533  0.58143  1.0000
  F   F201      1.0  0.50778  0.35987  0.07393  1.0000
  F   F202      1.0  0.50558  0.36794  0.55796  1.0000
  F   F203      1.0  0.51276  0.86376  0.06913  1.0000
  F   F204      1.0  0.50774  0.86793  0.58464  1.0000
  F   F205      1.0  0.76056  0.36210  0.05762  1.0000
  F   F206      1.0  0.75386  0.36904  0.57315  1.0000
  F   F207      1.0  0.76034  0.86497  0.06169  1.0000
  F   F208      1.0  0.76372  0.85914  0.56430  1.0000
  F   F209      1.0  0.06884  0.47507  0.17691  1.0000
  F   F210      1.0  0.07647  0.48414  0.65790  1.0000
  F   F211      1.0  0.06511  0.97040  0.19466  1.0000
  F   F212      1.0  0.06179  0.99396  0.67284  1.0000
  F   F213      1.0  0.31768  0.48348  0.17453  1.0000
  F   F214      1.0  0.31635  0.48217  0.67394  1.0000
  F   F215      1.0  0.32123  0.98463  0.16267  1.0000
  F   F216      1.0  0.32745  0.97863  0.67449  1.0000
  F   F217      1.0  0.56923  0.49615  0.17904  1.0000
  F   F218      1.0  0.57456  0.49337  0.66303  1.0000
  F   F219      1.0  0.57379  0.99568  0.16870  1.0000
  F   F220      1.0  0.56771  0.99114  0.67264  1.0000
  F   F221      1.0  0.81068  0.49640  0.17811  1.0000
  F   F222      1.0  0.81635  0.48125  0.68105  1.0000
  F   F223      1.0  0.82281  0.99259  0.16632  1.0000
  F   F224      1.0  0.81776  0.98600  0.66605  1.0000
  F   F225      1.0  0.24105  0.12182  0.43495  1.0000
  F   F226      1.0  0.23795  0.11870  0.94105  1.0000
  F   F227      1.0  0.24260  0.63672  0.42356  1.0000
  F   F228      1.0  0.24195  0.62370  0.93232  1.0000
  F   F229      1.0  0.49036  0.15246  0.41936  1.0000
  F   F230      1.0  0.49298  0.15408  0.92038  1.0000
  F   F231      1.0  0.49309  0.65324  0.41468  1.0000
  F   F232      1.0  0.49101  0.64363  0.91982  1.0000
  F   F233      1.0  0.74493  0.15848  0.40955  1.0000
  F   F234      1.0  0.73961  0.12934  0.93319  1.0000
  F   F235      1.0  0.74250  0.64655  0.41632  1.0000
  F   F236      1.0  0.74246  0.64350  0.92536  1.0000
  F   F237      1.0  0.98723  0.13928  0.41854  1.0000
  F   F238      1.0  0.99603  0.13207  0.93145  1.0000
  F   F239      1.0  0.98812  0.63445  0.44038  1.0000
  F   F240      1.0  0.98898  0.64554  0.91173  1.0000
  F   F241      1.0  0.18682  0.00818  0.32064  1.0000
  F   F242      1.0  0.18023  0.01224  0.81342  1.0000
  F   F243      1.0  0.18013  0.50258  0.33544  1.0000
  F   F244      1.0  0.17689  0.50953  0.82604  1.0000
  F   F245      1.0  0.42484  0.00640  0.34758  1.0000
  F   F246      1.0  0.42711  0.02554  0.81660  1.0000
  F   F247      1.0  0.43205  0.51337  0.31214  1.0000
  F   F248      1.0  0.43306  0.52165  0.81594  1.0000
  F   F249      1.0  0.68662  0.01987  0.32157  1.0000
  F   F250      1.0  0.68441  0.01004  0.82793  1.0000
  F   F251      1.0  0.68482  0.51365  0.33052  1.0000
  F   F252      1.0  0.68129  0.50148  0.83924  1.0000
  F   F253      1.0  0.93272  0.00861  0.32263  1.0000
  F   F254      1.0  0.93072  0.02086  0.82249  1.0000
  F   F255      1.0  0.93248  0.49588  0.33812  1.0000
  F   F256      1.0  0.92780  0.51434  0.81459  1.0000
  F   F257      1.0  0.99760  0.24220  0.00248  1.0000
  F   F258      1.0  0.00387  0.22757  0.51763  1.0000
  F   F259      1.0  0.99622  0.75062  0.99906  1.0000
  F   F260      1.0  0.00191  0.75613  0.49216  1.0000
  F   F261      1.0  0.24369  0.24060  0.01150  1.0000
  F   F262      1.0  0.25016  0.23877  0.50596  1.0000
  F   F263      1.0  0.24977  0.74913  0.99039  1.0000
  F   F264      1.0  0.24749  0.75345  0.49104  1.0000
  F   F265      1.0  0.49624  0.25157  0.99757  1.0000
  F   F266      1.0  0.50132  0.24664  0.50226  1.0000
  F   F267      1.0  0.50095  0.76052  0.98986  1.0000
  F   F268      1.0  0.50138  0.75488  0.51493  1.0000
  F   F269      1.0  0.74501  0.24334  0.99696  1.0000
  F   F270      1.0  0.74551  0.25536  0.49874  1.0000
  F   F271      1.0  0.75561  0.76413  0.98801  1.0000
  F   F272      1.0  0.75224  0.75413  0.49745  1.0000
  F   F273      1.0  0.13261  0.00552  0.23600  1.0000
  F   F274      1.0  0.12296  0.99970  0.74562  1.0000
  F   F275      1.0  0.12459  0.48693  0.24843  1.0000
  F   F276      1.0  0.11870  0.48567  0.76397  1.0000
  F   F277      1.0  0.36813  0.99276  0.26610  1.0000
  F   F278      1.0  0.37312  0.00160  0.76103  1.0000
  F   F279      1.0  0.36525  0.50066  0.26129  1.0000
  F   F280      1.0  0.37691  0.50404  0.73406  1.0000
  F   F281      1.0  0.63652  0.01242  0.23584  1.0000
  F   F282      1.0  0.62604  0.00645  0.74625  1.0000
  F   F283      1.0  0.63142  0.50766  0.23887  1.0000
  F   F284      1.0  0.63539  0.50891  0.73719  1.0000
  F   F285      1.0  0.87699  0.99398  0.24630  1.0000
  F   F286      1.0  0.87107  0.00283  0.75091  1.0000
  F   F287      1.0  0.86770  0.48981  0.26619  1.0000
  F   F288      1.0  0.86917  0.48677  0.75072  1.0000
  F   F289      1.0  0.04594  0.01556  0.01747  1.0000
  F   F290      1.0  0.04266  0.02701  0.51816  1.0000
  F   F291      1.0  0.04033  0.52332  0.02351  1.0000
  F   F292      1.0  0.04271  0.52556  0.52901  1.0000
  F   F293      1.0  0.29668  0.01766  0.99733  1.0000
  F   F294      1.0  0.28941  0.03314  0.54161  1.0000
  F   F295      1.0  0.29184  0.53655  0.02568  1.0000
  F   F296      1.0  0.29409  0.52661  0.50587  1.0000
  F   F297      1.0  0.54991  0.02685  0.01592  1.0000
  F   F298      1.0  0.53703  0.03882  0.52598  1.0000
  F   F299      1.0  0.54477  0.53574  0.02174  1.0000
  F   F300      1.0  0.54108  0.53257  0.53349  1.0000
  F   F301      1.0  0.78979  0.02937  0.02475  1.0000
  F   F302      1.0  0.78605  0.03831  0.52580  1.0000
  F   F303      1.0  0.78790  0.54124  0.02561  1.0000
  F   F304      1.0  0.79626  0.53936  0.51780  1.0000
  F   F305      1.0  0.22613  0.43289  0.21593  1.0000
  F   F306      1.0  0.23487  0.41175  0.73826  1.0000
  F   F307      1.0  0.24085  0.91775  0.21146  1.0000
  F   F308      1.0  0.23742  0.90373  0.73133  1.0000
  F   F309      1.0  0.48858  0.41347  0.22545  1.0000
  F   F310      1.0  0.48427  0.40932  0.72940  1.0000
  F   F311      1.0  0.48627  0.92542  0.23308  1.0000
  F   F312      1.0  0.48336  0.91670  0.72711  1.0000
  F   F313      1.0  0.73284  0.40169  0.23822  1.0000
  F   F314      1.0  0.73994  0.42967  0.71411  1.0000
  F   F315      1.0  0.73820  0.92056  0.21789  1.0000
  F   F316      1.0  0.73451  0.92090  0.71917  1.0000
  F   F317      1.0  0.98402  0.40777  0.22377  1.0000
  F   F318      1.0  0.98816  0.40157  0.73685  1.0000
  F   F319      1.0  0.98727  0.91846  0.22218  1.0000
  F   F320      1.0  0.98003  0.90394  0.74106  1.0000
  F   F321      1.0  0.20637  0.47656  0.47556  1.0000
  F   F322      1.0  0.20750  0.45897  0.96861  1.0000
  F   F323      1.0  0.20471  0.95258  0.47615  1.0000
  F   F324      1.0  0.20496  0.95778  0.98551  1.0000
  F   F325      1.0  0.44461  0.48286  0.48957  1.0000
  F   F326      1.0  0.45645  0.46734  0.97917  1.0000
  F   F327      1.0  0.46124  0.97382  0.47391  1.0000
  F   F328      1.0  0.46380  0.98180  0.97273  1.0000
  F   F329      1.0  0.70102  0.47163  0.48133  1.0000
  F   F330      1.0  0.70855  0.47272  0.97915  1.0000
  F   F331      1.0  0.71603  0.97206  0.47228  1.0000
  F   F332      1.0  0.69822  0.97247  0.98965  1.0000
  F   F333      1.0  0.95728  0.46481  0.48903  1.0000
  F   F334      1.0  0.95480  0.47061  0.96941  1.0000
  F   F335      1.0  0.95771  0.95919  0.47249  1.0000
  F   F336      1.0  0.95843  0.96350  0.99188  1.0000
  F   F337      1.0  0.01379  0.09472  0.26154  1.0000
  F   F338      1.0  0.01099  0.07908  0.78812  1.0000
  F   F339      1.0  0.01377  0.57375  0.28442  1.0000
  F   F340      1.0  0.01471  0.57182  0.76699  1.0000
  F   F341      1.0  0.26946  0.09552  0.26979  1.0000
  F   F342      1.0  0.26686  0.07919  0.77217  1.0000
  F   F343      1.0  0.26792  0.58231  0.28451  1.0000
  F   F344      1.0  0.26454  0.57324  0.77760  1.0000
  F   F345      1.0  0.51629  0.08941  0.27844  1.0000
  F   F346      1.0  0.51374  0.08829  0.76332  1.0000
  F   F347      1.0  0.51371  0.60225  0.27073  1.0000
  F   F348      1.0  0.51338  0.59971  0.76551  1.0000
  F   F349      1.0  0.76986  0.08414  0.28241  1.0000
  F   F350      1.0  0.76585  0.07894  0.77377  1.0000
  F   F351      1.0  0.76297  0.58672  0.27840  1.0000
  F   F352      1.0  0.76523  0.58048  0.77331  1.0000
  F   F353      1.0  0.10485  0.39616  0.46826  1.0000
  F   F354      1.0  0.10244  0.41416  0.97216  1.0000
  F   F355      1.0  0.09932  0.90117  0.44035  1.0000
  F   F356      1.0  0.10483  0.89049  0.96223  1.0000
  F   F357      1.0  0.35070  0.40022  0.46380  1.0000
  F   F358      1.0  0.34813  0.41941  0.95853  1.0000
  F   F359      1.0  0.34636  0.91490  0.45786  1.0000
  F   F360      1.0  0.35225  0.90328  0.96704  1.0000
  F   F361      1.0  0.59642  0.41398  0.45867  1.0000
  F   F362      1.0  0.59951  0.40480  0.95110  1.0000
  F   F363      1.0  0.60693  0.91390  0.45169  1.0000
  F   F364      1.0  0.60108  0.91969  0.94575  1.0000
  F   F365      1.0  0.85091  0.40763  0.46465  1.0000
  F   F366      1.0  0.85015  0.42066  0.96149  1.0000
  F   F367      1.0  0.84885  0.92019  0.46030  1.0000
  F   F368      1.0  0.85215  0.90283  0.97922  1.0000
  F   F369      1.0  0.04816  0.29519  0.28601  1.0000
  F   F370      1.0  0.04750  0.29440  0.79415  1.0000
  F   F371      1.0  0.04103  0.77753  0.27253  1.0000
  F   F372      1.0  0.04984  0.79366  0.79426  1.0000
  F   F373      1.0  0.28676  0.29460  0.28225  1.0000
  F   F374      1.0  0.29249  0.29758  0.80158  1.0000
  F   F375      1.0  0.30290  0.80789  0.28775  1.0000
  F   F376      1.0  0.29590  0.79209  0.78788  1.0000
  F   F377      1.0  0.54443  0.30876  0.27694  1.0000
  F   F378      1.0  0.54411  0.30810  0.78846  1.0000
  F   F379      1.0  0.54042  0.80313  0.29609  1.0000
  F   F380      1.0  0.54796  0.79236  0.78275  1.0000
  F   F381      1.0  0.80098  0.31028  0.28911  1.0000
  F   F382      1.0  0.79176  0.28620  0.79769  1.0000
  F   F383      1.0  0.79280  0.80885  0.30006  1.0000
  F   F384      1.0  0.80076  0.80848  0.78496  1.0000
