data_image0
_chemical_formula_structural       Hf96F384
_chemical_formula_sum              "Hf96 F384"
_cell_length_a       31.0115
_cell_length_b       15.5054
_cell_length_c       15.4999
_cell_angle_alpha    63.342
_cell_angle_beta     63.342
_cell_angle_gamma    80.1625

_space_group_name_H-M_alt    "P 1"
_space_group_IT_number       1

loop_
  _space_group_symop_operation_xyz
  'x, y, z'

loop_
  _atom_site_type_symbol
  _atom_site_label
  _atom_site_symmetry_multiplicity
  _atom_site_fract_x
  _atom_site_fract_y
  _atom_site_fract_z
  _atom_site_occupancy
  Hf  Hf1       1.0  0.19879  0.11134  0.37094  1.0000
  Hf  Hf2       1.0  0.19711  0.10921  0.87377  1.0000
  Hf  Hf3       1.0  0.19664  0.60942  0.36779  1.0000
  Hf  Hf4       1.0  0.19574  0.60819  0.87234  1.0000
  Hf  Hf5       1.0  0.44747  0.10849  0.37731  1.0000
  Hf  Hf6       1.0  0.44500  0.10147  0.88098  1.0000
  Hf  Hf7       1.0  0.44642  0.60694  0.37253  1.0000
  Hf  Hf8       1.0  0.44392  0.59713  0.89070  1.0000
  Hf  Hf9       1.0  0.69830  0.10597  0.37488  1.0000
  Hf  Hf10      1.0  0.69241  0.10509  0.87986  1.0000
  Hf  Hf11      1.0  0.69348  0.60823  0.37526  1.0000
  Hf  Hf12      1.0  0.69575  0.59873  0.88214  1.0000
  Hf  Hf13      1.0  0.94102  0.09994  0.38685  1.0000
  Hf  Hf14      1.0  0.94742  0.10938  0.87799  1.0000
  Hf  Hf15      1.0  0.94390  0.60446  0.37633  1.0000
  Hf  Hf16      1.0  0.95040  0.60948  0.86279  1.0000
  Hf  Hf17      1.0  0.05745  0.39488  0.11993  1.0000
  Hf  Hf18      1.0  0.05431  0.39155  0.62575  1.0000
  Hf  Hf19      1.0  0.05547  0.89000  0.11999  1.0000
  Hf  Hf20      1.0  0.05197  0.89668  0.62150  1.0000
  Hf  Hf21      1.0  0.30464  0.40191  0.12351  1.0000
  Hf  Hf22      1.0  0.30455  0.39813  0.62404  1.0000
  Hf  Hf23      1.0  0.30044  0.89504  0.12209  1.0000
  Hf  Hf24      1.0  0.30576  0.89135  0.62201  1.0000
  Hf  Hf25      1.0  0.55397  0.39247  0.12348  1.0000
  Hf  Hf26      1.0  0.55457  0.38728  0.62882  1.0000
  Hf  Hf27      1.0  0.55379  0.89100  0.12149  1.0000
  Hf  Hf28      1.0  0.55585  0.89343  0.62883  1.0000
  Hf  Hf29      1.0  0.80089  0.39878  0.12328  1.0000
  Hf  Hf30      1.0  0.80672  0.38700  0.62406  1.0000
  Hf  Hf31      1.0  0.80397  0.89502  0.12792  1.0000
  Hf  Hf32      1.0  0.80513  0.89407  0.62513  1.0000
  Hf  Hf33      1.0  0.05703  0.18056  0.41447  1.0000
  Hf  Hf34      1.0  0.05684  0.18442  0.91913  1.0000
  Hf  Hf35      1.0  0.05757  0.67642  0.41772  1.0000
  Hf  Hf36      1.0  0.05575  0.67714  0.91475  1.0000
  Hf  Hf37      1.0  0.31019  0.17820  0.41444  1.0000
  Hf  Hf38      1.0  0.30725  0.18581  0.91237  1.0000
  Hf  Hf39      1.0  0.30369  0.68719  0.41254  1.0000
  Hf  Hf40      1.0  0.30288  0.68603  0.91952  1.0000
  Hf  Hf41      1.0  0.55890  0.18407  0.41508  1.0000
  Hf  Hf42      1.0  0.55550  0.18177  0.91819  1.0000
  Hf  Hf43      1.0  0.55341  0.67898  0.41938  1.0000
  Hf  Hf44      1.0  0.55754  0.68206  0.91749  1.0000
  Hf  Hf45      1.0  0.80540  0.18603  0.41672  1.0000
  Hf  Hf46      1.0  0.80692  0.18355  0.92048  1.0000
  Hf  Hf47      1.0  0.80520  0.67705  0.41591  1.0000
  Hf  Hf48      1.0  0.80202  0.68577  0.91831  1.0000
  Hf  Hf49      1.0  0.15563  0.39059  0.33275  1.0000
  Hf  Hf50      1.0  0.15990  0.38769  0.83929  1.0000
  Hf  Hf51      1.0  0.15834  0.89234  0.32692  1.0000
  Hf  Hf52      1.0  0.16237  0.89302  0.82515  1.0000
  Hf  Hf53      1.0  0.40780  0.38785  0.33070  1.0000
  Hf  Hf54      1.0  0.40711  0.38444  0.83959  1.0000
  Hf  Hf55      1.0  0.40714  0.89902  0.32192  1.0000
  Hf  Hf56      1.0  0.40819  0.88376  0.83399  1.0000
  Hf  Hf57      1.0  0.65863  0.38747  0.33232  1.0000
  Hf  Hf58      1.0  0.65902  0.38766  0.82915  1.0000
  Hf  Hf59      1.0  0.65545  0.88174  0.34188  1.0000
  Hf  Hf60      1.0  0.65934  0.88972  0.83048  1.0000
  Hf  Hf61      1.0  0.91088  0.38117  0.33659  1.0000
  Hf  Hf62      1.0  0.90661  0.38760  0.83790  1.0000
  Hf  Hf63      1.0  0.90761  0.88521  0.33366  1.0000
  Hf  Hf64      1.0  0.90975  0.88251  0.83560  1.0000
  Hf  Hf65      1.0  0.19569  0.32272  0.08373  1.0000
  Hf  Hf66      1.0  0.19790  0.32436  0.57772  1.0000
  Hf  Hf67      1.0  0.19392  0.82304  0.07951  1.0000
  Hf  Hf68      1.0  0.19682  0.82708  0.57676  1.0000
  Hf  Hf69      1.0  0.44209  0.31356  0.09098  1.0000
  Hf  Hf70      1.0  0.44176  0.31136  0.59016  1.0000
  Hf  Hf71      1.0  0.44305  0.81715  0.08110  1.0000
  Hf  Hf72      1.0  0.44664  0.82369  0.57202  1.0000
  Hf  Hf73      1.0  0.69372  0.32156  0.07912  1.0000
  Hf  Hf74      1.0  0.69293  0.31378  0.58510  1.0000
  Hf  Hf75      1.0  0.69275  0.81765  0.08360  1.0000
  Hf  Hf76      1.0  0.69572  0.81765  0.58445  1.0000
  Hf  Hf77      1.0  0.93994  0.31986  0.08883  1.0000
  Hf  Hf78      1.0  0.94744  0.32151  0.58041  1.0000
  Hf  Hf79      1.0  0.94670  0.81915  0.07920  1.0000
  Hf  Hf80      1.0  0.94400  0.80924  0.58177  1.0000
  Hf  Hf81      1.0  0.09024  0.11216  0.16210  1.0000
  Hf  Hf82      1.0  0.09337  0.11702  0.66295  1.0000
  Hf  Hf83      1.0  0.08927  0.61623  0.16222  1.0000
  Hf  Hf84      1.0  0.09644  0.61067  0.66313  1.0000
  Hf  Hf85      1.0  0.33756  0.11791  0.16575  1.0000
  Hf  Hf86      1.0  0.34317  0.11192  0.66139  1.0000
  Hf  Hf87      1.0  0.34134  0.61235  0.17262  1.0000
  Hf  Hf88      1.0  0.34489  0.61706  0.66396  1.0000
  Hf  Hf89      1.0  0.59044  0.10903  0.17168  1.0000
  Hf  Hf90      1.0  0.58939  0.10729  0.66983  1.0000
  Hf  Hf91      1.0  0.58782  0.60939  0.16764  1.0000
  Hf  Hf92      1.0  0.59110  0.61257  0.66605  1.0000
  Hf  Hf93      1.0  0.84141  0.10931  0.17271  1.0000
  Hf  Hf94      1.0  0.84302  0.10432  0.67348  1.0000
  Hf  Hf95      1.0  0.83924  0.60274  0.17130  1.0000
  Hf  Hf96      1.0  0.83967  0.61263  0.66882  1.0000
  F   F1        1.0  0.07825  0.13339  0.29388  1.0000
  F   F2        1.0  0.08552  0.13011  0.80208  1.0000
  F   F3        1.0  0.07467  0.62026  0.29943  1.0000
  F   F4        1.0  0.08312  0.62922  0.79402  1.0000
  F   F5        1.0  0.33471  0.12067  0.30925  1.0000
  F   F6        1.0  0.32480  0.13914  0.80066  1.0000
  F   F7        1.0  0.32095  0.61519  0.31851  1.0000
  F   F8        1.0  0.32893  0.63750  0.80023  1.0000
  F   F9        1.0  0.58060  0.11169  0.31490  1.0000
  F   F10       1.0  0.57976  0.12589  0.80508  1.0000
  F   F11       1.0  0.57339  0.63310  0.30481  1.0000
  F   F12       1.0  0.58307  0.63996  0.79583  1.0000
  F   F13       1.0  0.82920  0.13921  0.29631  1.0000
  F   F14       1.0  0.82471  0.12013  0.81148  1.0000
  F   F15       1.0  0.83495  0.63776  0.29512  1.0000
  F   F16       1.0  0.82636  0.62977  0.79946  1.0000
  F   F17       1.0  0.18869  0.34876  0.43676  1.0000
  F   F18       1.0  0.18366  0.34174  0.94724  1.0000
  F   F19       1.0  0.18668  0.85256  0.42969  1.0000
  F   F20       1.0  0.19547  0.83829  0.93963  1.0000
  F   F21       1.0  0.42917  0.34305  0.45318  1.0000
  F   F22       1.0  0.43250  0.33833  0.95502  1.0000
  F   F23       1.0  0.43223  0.85405  0.44592  1.0000
  F   F24       1.0  0.43383  0.83114  0.95266  1.0000
  F   F25       1.0  0.68644  0.34890  0.44166  1.0000
  F   F26       1.0  0.68532  0.34632  0.94460  1.0000
  F   F27       1.0  0.68547  0.84126  0.45543  1.0000
  F   F28       1.0  0.68812  0.85350  0.93797  1.0000
  F   F29       1.0  0.93702  0.34296  0.44704  1.0000
  F   F30       1.0  0.92753  0.34280  0.95377  1.0000
  F   F31       1.0  0.93470  0.82913  0.44858  1.0000
  F   F32       1.0  0.94212  0.84563  0.93882  1.0000
  F   F33       1.0  0.16788  0.37530  0.19880  1.0000
  F   F34       1.0  0.16720  0.36920  0.70118  1.0000
  F   F35       1.0  0.17830  0.88522  0.17846  1.0000
  F   F36       1.0  0.17477  0.87441  0.69109  1.0000
  F   F37       1.0  0.42272  0.37813  0.19192  1.0000
  F   F38       1.0  0.42027  0.36602  0.70769  1.0000
  F   F39       1.0  0.42151  0.88825  0.18500  1.0000
  F   F40       1.0  0.42240  0.87439  0.69073  1.0000
  F   F41       1.0  0.66213  0.35216  0.20772  1.0000
  F   F42       1.0  0.67242  0.39125  0.68552  1.0000
  F   F43       1.0  0.66774  0.85444  0.20449  1.0000
  F   F44       1.0  0.66968  0.87784  0.69520  1.0000
  F   F45       1.0  0.92797  0.37787  0.19254  1.0000
  F   F46       1.0  0.92180  0.38344  0.69014  1.0000
  F   F47       1.0  0.92564  0.87650  0.19638  1.0000
  F   F48       1.0  0.91555  0.84569  0.70565  1.0000
  F   F49       1.0  0.05203  0.14721  0.06633  1.0000
  F   F50       1.0  0.06375  0.16088  0.54993  1.0000
  F   F51       1.0  0.06251  0.66100  0.05175  1.0000
  F   F52       1.0  0.07071  0.65250  0.54955  1.0000
  F   F53       1.0  0.32833  0.17855  0.03313  1.0000
  F   F54       1.0  0.31259  0.15581  0.55890  1.0000
  F   F55       1.0  0.31377  0.66269  0.05897  1.0000
  F   F56       1.0  0.32445  0.67852  0.54224  1.0000
  F   F57       1.0  0.56195  0.16120  0.05684  1.0000
  F   F58       1.0  0.55871  0.15707  0.55925  1.0000
  F   F59       1.0  0.55804  0.64232  0.06576  1.0000
  F   F60       1.0  0.56136  0.66533  0.55517  1.0000
  F   F61       1.0  0.82004  0.16744  0.05364  1.0000
  F   F62       1.0  0.82326  0.15869  0.55167  1.0000
  F   F63       1.0  0.80466  0.65310  0.06445  1.0000
  F   F64       1.0  0.80273  0.64783  0.57464  1.0000
  F   F65       1.0  0.21660  0.20762  0.20630  1.0000
  F   F66       1.0  0.20117  0.20040  0.71308  1.0000
  F   F67       1.0  0.20486  0.70796  0.20786  1.0000
  F   F68       1.0  0.20184  0.71264  0.71837  1.0000
  F   F69       1.0  0.45314  0.20631  0.21618  1.0000
  F   F70       1.0  0.45879  0.20558  0.70457  1.0000
  F   F71       1.0  0.45989  0.69853  0.20775  1.0000
  F   F72       1.0  0.44788  0.70865  0.69893  1.0000
  F   F73       1.0  0.70844  0.19720  0.21051  1.0000
  F   F74       1.0  0.68931  0.21070  0.72251  1.0000
  F   F75       1.0  0.70032  0.68582  0.21140  1.0000
  F   F76       1.0  0.70283  0.70476  0.72977  1.0000
  F   F77       1.0  0.94384  0.20042  0.20875  1.0000
  F   F78       1.0  0.95129  0.21616  0.71956  1.0000
  F   F79       1.0  0.94610  0.69757  0.21377  1.0000
  F   F80       1.0  0.96092  0.70038  0.70412  1.0000
  F   F81       1.0  0.15045  0.10891  0.03350  1.0000
  F   F82       1.0  0.14895  0.10240  0.52603  1.0000
  F   F83       1.0  0.14940  0.58956  0.03940  1.0000
  F   F84       1.0  0.15203  0.57662  0.53235  1.0000
  F   F85       1.0  0.39856  0.09297  0.03896  1.0000
  F   F86       1.0  0.39977  0.09856  0.53081  1.0000
  F   F87       1.0  0.40303  0.59101  0.05374  1.0000
  F   F88       1.0  0.39779  0.58167  0.53881  1.0000
  F   F89       1.0  0.65233  0.10289  0.04376  1.0000
  F   F90       1.0  0.64243  0.08055  0.54857  1.0000
  F   F91       1.0  0.64526  0.58494  0.03977  1.0000
  F   F92       1.0  0.65237  0.59888  0.53626  1.0000
  F   F93       1.0  0.90112  0.08791  0.04140  1.0000
  F   F94       1.0  0.90117  0.08653  0.55033  1.0000
  F   F95       1.0  0.89489  0.59699  0.02968  1.0000
  F   F96       1.0  0.89928  0.58695  0.54738  1.0000
  F   F97       1.0  0.15729  0.20203  0.13615  1.0000
  F   F98       1.0  0.15010  0.20504  0.61475  1.0000
  F   F99       1.0  0.14651  0.70507  0.13497  1.0000
  F   F100      1.0  0.16124  0.70498  0.59844  1.0000
  F   F101      1.0  0.40093  0.19736  0.11844  1.0000
  F   F102      1.0  0.39849  0.18980  0.63273  1.0000
  F   F103      1.0  0.39720  0.70461  0.15064  1.0000
  F   F104      1.0  0.39907  0.70497  0.60974  1.0000
  F   F105      1.0  0.65164  0.20470  0.14359  1.0000
  F   F106      1.0  0.65049  0.20176  0.62120  1.0000
  F   F107      1.0  0.64849  0.69861  0.11595  1.0000
  F   F108      1.0  0.65531  0.69536  0.62748  1.0000
  F   F109      1.0  0.90192  0.19454  0.11941  1.0000
  F   F110      1.0  0.90188  0.20847  0.62174  1.0000
  F   F111      1.0  0.89299  0.70501  0.10836  1.0000
  F   F112      1.0  0.90384  0.69275  0.63769  1.0000
  F   F113      1.0  0.09438  0.30984  0.38226  1.0000
  F   F114      1.0  0.10124  0.30068  0.88629  1.0000
  F   F115      1.0  0.10243  0.80883  0.36922  1.0000
  F   F116      1.0  0.09404  0.80229  0.85560  1.0000
  F   F117      1.0  0.34877  0.29713  0.38508  1.0000
  F   F118      1.0  0.34699  0.30812  0.86273  1.0000
  F   F119      1.0  0.34405  0.80852  0.36286  1.0000
  F   F120      1.0  0.35312  0.79834  0.86021  1.0000
  F   F121      1.0  0.59677  0.30415  0.39038  1.0000
  F   F122      1.0  0.60140  0.29431  0.86657  1.0000
  F   F123      1.0  0.59813  0.79527  0.37787  1.0000
  F   F124      1.0  0.59392  0.80445  0.88190  1.0000
  F   F125      1.0  0.85030  0.29594  0.36329  1.0000
  F   F126      1.0  0.84849  0.31154  0.87410  1.0000
  F   F127      1.0  0.84843  0.79170  0.39067  1.0000
  F   F128      1.0  0.84915  0.80666  0.88548  1.0000
  F   F129      1.0  0.07863  0.25390  0.11499  1.0000
  F   F130      1.0  0.06480  0.25090  0.65190  1.0000
  F   F131      1.0  0.06082  0.75388  0.13842  1.0000
  F   F132      1.0  0.07138  0.75629  0.61942  1.0000
  F   F133      1.0  0.30333  0.25345  0.16179  1.0000
  F   F134      1.0  0.31784  0.25384  0.63428  1.0000
  F   F135      1.0  0.31526  0.75227  0.13922  1.0000
  F   F136      1.0  0.30740  0.75201  0.65578  1.0000
  F   F137      1.0  0.56270  0.24940  0.15164  1.0000
  F   F138      1.0  0.56208  0.24933  0.64539  1.0000
  F   F139      1.0  0.56355  0.75002  0.12677  1.0000
  F   F140      1.0  0.56900  0.75033  0.64313  1.0000
  F   F141      1.0  0.81476  0.26328  0.15023  1.0000
  F   F142      1.0  0.82261  0.24736  0.63268  1.0000
  F   F143      1.0  0.80698  0.74853  0.15059  1.0000
  F   F144      1.0  0.82205  0.75516  0.63209  1.0000
  F   F145      1.0  0.12586  0.37695  0.10468  1.0000
  F   F146      1.0  0.12538  0.38292  0.59772  1.0000
  F   F147      1.0  0.12938  0.89241  0.08254  1.0000
  F   F148      1.0  0.12360  0.86512  0.61343  1.0000
  F   F149      1.0  0.37644  0.36424  0.10995  1.0000
  F   F150      1.0  0.37206  0.36670  0.62284  1.0000
  F   F151      1.0  0.36992  0.86621  0.12012  1.0000
  F   F152      1.0  0.37128  0.87220  0.62055  1.0000
  F   F153      1.0  0.62609  0.38788  0.08825  1.0000
  F   F154      1.0  0.62491  0.35982  0.61770  1.0000
  F   F155      1.0  0.62368  0.86058  0.11363  1.0000
  F   F156      1.0  0.62156  0.87877  0.61289  1.0000
  F   F157      1.0  0.87333  0.36449  0.12568  1.0000
  F   F158      1.0  0.87855  0.38331  0.59220  1.0000
  F   F159      1.0  0.87876  0.86418  0.11852  1.0000
  F   F160      1.0  0.87501  0.87326  0.59678  1.0000
  F   F161      1.0  0.19166  0.25208  0.35499  1.0000
  F   F162      1.0  0.19654  0.24979  0.84196  1.0000
  F   F163      1.0  0.18635  0.75672  0.34045  1.0000
  F   F164      1.0  0.17691  0.75277  0.86678  1.0000
  F   F165      1.0  0.42963  0.23996  0.37283  1.0000
  F   F166      1.0  0.43023  0.24574  0.86732  1.0000
  F   F167      1.0  0.43205  0.75405  0.35055  1.0000
  F   F168      1.0  0.43765  0.74244  0.85769  1.0000
  F   F169      1.0  0.68084  0.23995  0.37323  1.0000
  F   F170      1.0  0.68179  0.24260  0.85995  1.0000
  F   F171      1.0  0.68122  0.74683  0.36665  1.0000
  F   F172      1.0  0.68257  0.74865  0.86951  1.0000
  F   F173      1.0  0.93202  0.23622  0.37477  1.0000
  F   F174      1.0  0.93060  0.24518  0.86843  1.0000
  F   F175      1.0  0.93088  0.73752  0.36191  1.0000
  F   F176      1.0  0.93724  0.74784  0.86474  1.0000
  F   F177      1.0  0.12853  0.15017  0.37537  1.0000
  F   F178      1.0  0.12560  0.13191  0.89888  1.0000
  F   F179      1.0  0.12456  0.63135  0.38282  1.0000
  F   F180      1.0  0.12476  0.62584  0.89401  1.0000
  F   F181      1.0  0.37896  0.13278  0.38597  1.0000
  F   F182      1.0  0.37841  0.13731  0.87599  1.0000
  F   F183      1.0  0.37898  0.63477  0.37823  1.0000
  F   F184      1.0  0.37767  0.61607  0.89469  1.0000
  F   F185      1.0  0.62531  0.13812  0.38780  1.0000
  F   F186      1.0  0.61827  0.12110  0.90896  1.0000
  F   F187      1.0  0.62067  0.62483  0.39521  1.0000
  F   F188      1.0  0.62607  0.62372  0.89783  1.0000
  F   F189      1.0  0.87201  0.11605  0.39866  1.0000
  F   F190      1.0  0.87791  0.12503  0.89446  1.0000
  F   F191      1.0  0.87128  0.60895  0.41176  1.0000
  F   F192      1.0  0.87771  0.63940  0.87819  1.0000
  F   F193      1.0  0.00766  0.36023  0.07564  1.0000
  F   F194      1.0  0.00876  0.35264  0.57391  1.0000
  F   F195      1.0  0.01197  0.86177  0.05996  1.0000
  F   F196      1.0  0.00596  0.86500  0.57445  1.0000
  F   F197      1.0  0.26129  0.37697  0.05482  1.0000
  F   F198      1.0  0.25822  0.37336  0.57061  1.0000
  F   F199      1.0  0.26073  0.86675  0.05924  1.0000
  F   F200      1.0  0.26074  0.86771  0.55676  1.0000
  F   F201      1.0  0.50824  0.36460  0.07229  1.0000
  F   F202      1.0  0.50740  0.36392  0.57377  1.0000
  F   F203      1.0  0.50556  0.86003  0.07398  1.0000
  F   F204      1.0  0.51243  0.86744  0.56906  1.0000
  F   F205      1.0  0.75224  0.36452  0.08458  1.0000
  F   F206      1.0  0.76069  0.35250  0.57341  1.0000
  F   F207      1.0  0.75801  0.86893  0.06473  1.0000
  F   F208      1.0  0.75678  0.86006  0.58818  1.0000
  F   F209      1.0  0.06685  0.48418  0.17898  1.0000
  F   F210      1.0  0.06745  0.48882  0.67905  1.0000
  F   F211      1.0  0.06687  0.98070  0.17743  1.0000
  F   F212      1.0  0.06427  0.97962  0.68202  1.0000
  F   F213      1.0  0.32149  0.48909  0.16684  1.0000
  F   F214      1.0  0.32155  0.48473  0.67877  1.0000
  F   F215      1.0  0.32064  0.99242  0.16206  1.0000
  F   F216      1.0  0.32291  0.99082  0.65996  1.0000
  F   F217      1.0  0.56238  0.48159  0.18547  1.0000
  F   F218      1.0  0.57098  0.49046  0.66955  1.0000
  F   F219      1.0  0.57150  0.98497  0.17445  1.0000
  F   F220      1.0  0.55839  0.98703  0.69334  1.0000
  F   F221      1.0  0.81143  0.47486  0.18855  1.0000
  F   F222      1.0  0.81842  0.48667  0.67625  1.0000
  F   F223      1.0  0.82727  0.98846  0.16154  1.0000
  F   F224      1.0  0.81654  0.98154  0.68776  1.0000
  F   F225      1.0  0.24415  0.13715  0.43365  1.0000
  F   F226      1.0  0.23945  0.13850  0.92807  1.0000
  F   F227      1.0  0.23677  0.65016  0.42397  1.0000
  F   F228      1.0  0.24336  0.63550  0.92131  1.0000
  F   F229      1.0  0.49593  0.13121  0.43382  1.0000
  F   F230      1.0  0.49364  0.14469  0.91935  1.0000
  F   F231      1.0  0.48903  0.63329  0.42671  1.0000
  F   F232      1.0  0.49314  0.64229  0.92452  1.0000
  F   F233      1.0  0.74118  0.13196  0.43538  1.0000
  F   F234      1.0  0.74409  0.13020  0.93448  1.0000
  F   F235      1.0  0.74320  0.63729  0.42657  1.0000
  F   F236      1.0  0.74208  0.63630  0.93532  1.0000
  F   F237      1.0  0.98742  0.13403  0.43518  1.0000
  F   F238      1.0  0.99630  0.13373  0.92499  1.0000
  F   F239      1.0  0.99085  0.64261  0.42726  1.0000
  F   F240      1.0  0.99240  0.62174  0.92725  1.0000
  F   F241      1.0  0.18301  0.02189  0.32014  1.0000
  F   F242      1.0  0.18042  0.00689  0.82950  1.0000
  F   F243      1.0  0.17992  0.52443  0.32430  1.0000
  F   F244      1.0  0.17847  0.51402  0.83312  1.0000
  F   F245      1.0  0.42729  0.01962  0.32638  1.0000
  F   F246      1.0  0.42719  0.01119  0.83379  1.0000
  F   F247      1.0  0.43440  0.51752  0.30222  1.0000
  F   F248      1.0  0.44057  0.50015  0.82248  1.0000
  F   F249      1.0  0.68182  0.00817  0.33667  1.0000
  F   F250      1.0  0.67913  0.02530  0.81697  1.0000
  F   F251      1.0  0.67758  0.52186  0.32604  1.0000
  F   F252      1.0  0.68189  0.51690  0.81802  1.0000
  F   F253      1.0  0.92584  0.01178  0.32446  1.0000
  F   F254      1.0  0.93591  0.01168  0.82176  1.0000
  F   F255      1.0  0.93697  0.51049  0.30218  1.0000
  F   F256      1.0  0.93672  0.51257  0.82001  1.0000
  F   F257      1.0  0.00003  0.26708  0.98039  1.0000
  F   F258      1.0  0.99848  0.24057  0.50934  1.0000
  F   F259      1.0  0.99714  0.73066  0.00704  1.0000
  F   F260      1.0  0.00233  0.74440  0.50122  1.0000
  F   F261      1.0  0.25249  0.26440  0.99190  1.0000
  F   F262      1.0  0.25363  0.26303  0.49275  1.0000
  F   F263      1.0  0.24914  0.73468  0.01276  1.0000
  F   F264      1.0  0.25094  0.74789  0.50707  1.0000
  F   F265      1.0  0.49852  0.25470  0.99733  1.0000
  F   F266      1.0  0.50195  0.25160  0.49697  1.0000
  F   F267      1.0  0.50116  0.75927  0.99034  1.0000
  F   F268      1.0  0.49652  0.75322  0.48428  1.0000
  F   F269      1.0  0.75073  0.24676  0.99325  1.0000
  F   F270      1.0  0.74595  0.23521  0.52277  1.0000
  F   F271      1.0  0.75191  0.75196  0.99399  1.0000
  F   F272      1.0  0.75155  0.74827  0.50854  1.0000
  F   F273      1.0  0.13230  0.00990  0.23421  1.0000
  F   F274      1.0  0.12632  0.99637  0.73116  1.0000
  F   F275      1.0  0.12848  0.50209  0.24104  1.0000
  F   F276      1.0  0.13018  0.50496  0.74544  1.0000
  F   F277      1.0  0.37455  0.01005  0.24722  1.0000
  F   F278      1.0  0.36616  0.99699  0.77474  1.0000
  F   F279      1.0  0.36318  0.48890  0.26922  1.0000
  F   F280      1.0  0.37610  0.50555  0.75112  1.0000
  F   F281      1.0  0.63323  0.00181  0.24119  1.0000
  F   F282      1.0  0.61978  0.98888  0.75423  1.0000
  F   F283      1.0  0.62528  0.50455  0.23797  1.0000
  F   F284      1.0  0.62464  0.50323  0.74528  1.0000
  F   F285      1.0  0.86777  0.98933  0.26433  1.0000
  F   F286      1.0  0.87770  0.99722  0.75281  1.0000
  F   F287      1.0  0.87298  0.49592  0.24698  1.0000
  F   F288      1.0  0.86930  0.49867  0.75777  1.0000
  F   F289      1.0  0.05414  0.02403  0.00817  1.0000
  F   F290      1.0  0.04240  0.02597  0.52026  1.0000
  F   F291      1.0  0.04283  0.53145  0.03232  1.0000
  F   F292      1.0  0.04146  0.52991  0.52451  1.0000
  F   F293      1.0  0.29480  0.03941  0.01394  1.0000
  F   F294      1.0  0.29900  0.01726  0.51178  1.0000
  F   F295      1.0  0.28902  0.53963  0.03493  1.0000
  F   F296      1.0  0.28994  0.54229  0.53719  1.0000
  F   F297      1.0  0.54395  0.02302  0.02392  1.0000
  F   F298      1.0  0.54805  0.02526  0.52920  1.0000
  F   F299      1.0  0.54859  0.52922  0.02172  1.0000
  F   F300      1.0  0.54006  0.52635  0.53169  1.0000
  F   F301      1.0  0.78887  0.03169  0.03183  1.0000
  F   F302      1.0  0.79148  0.03212  0.53423  1.0000
  F   F303      1.0  0.79367  0.53220  0.01253  1.0000
  F   F304      1.0  0.78984  0.51386  0.52442  1.0000
  F   F305      1.0  0.23603  0.41237  0.22652  1.0000
  F   F306      1.0  0.23086  0.41142  0.73743  1.0000
  F   F307      1.0  0.23771  0.92053  0.21754  1.0000
  F   F308      1.0  0.23955  0.90530  0.72485  1.0000
  F   F309      1.0  0.48619  0.39724  0.23784  1.0000
  F   F310      1.0  0.48566  0.40265  0.73177  1.0000
  F   F311      1.0  0.48447  0.92448  0.22212  1.0000
  F   F312      1.0  0.47921  0.91698  0.72916  1.0000
  F   F313      1.0  0.72891  0.41667  0.22787  1.0000
  F   F314      1.0  0.73923  0.39481  0.74408  1.0000
  F   F315      1.0  0.73333  0.90708  0.23607  1.0000
  F   F316      1.0  0.73269  0.90931  0.73234  1.0000
  F   F317      1.0  0.98932  0.39797  0.23118  1.0000
  F   F318      1.0  0.98583  0.39672  0.73834  1.0000
  F   F319      1.0  0.98951  0.89859  0.23121  1.0000
  F   F320      1.0  0.97943  0.91595  0.71342  1.0000
  F   F321      1.0  0.21062  0.46786  0.47879  1.0000
  F   F322      1.0  0.20562  0.46893  0.97960  1.0000
  F   F323      1.0  0.20470  0.97716  0.47493  1.0000
  F   F324      1.0  0.20740  0.97672  0.97504  1.0000
  F   F325      1.0  0.45755  0.46462  0.47932  1.0000
  F   F326      1.0  0.45546  0.46996  0.99195  1.0000
  F   F327      1.0  0.46478  0.97384  0.46922  1.0000
  F   F328      1.0  0.45331  0.97011  0.98190  1.0000
  F   F329      1.0  0.70489  0.46525  0.47419  1.0000
  F   F330      1.0  0.71407  0.46808  0.96895  1.0000
  F   F331      1.0  0.71614  0.96629  0.47162  1.0000
  F   F332      1.0  0.69956  0.98110  0.98429  1.0000
  F   F333      1.0  0.95775  0.47510  0.47372  1.0000
  F   F334      1.0  0.95159  0.47382  0.98168  1.0000
  F   F335      1.0  0.95253  0.96711  0.47835  1.0000
  F   F336      1.0  0.96075  0.97353  0.96896  1.0000
  F   F337      1.0  0.00929  0.09878  0.26784  1.0000
  F   F338      1.0  0.01715  0.09013  0.77735  1.0000
  F   F339      1.0  0.01171  0.59779  0.25987  1.0000
  F   F340      1.0  0.01780  0.58247  0.76661  1.0000
  F   F341      1.0  0.26839  0.07562  0.28426  1.0000
  F   F342      1.0  0.26559  0.09045  0.76046  1.0000
  F   F343      1.0  0.26580  0.58270  0.26621  1.0000
  F   F344      1.0  0.26666  0.58982  0.77560  1.0000
  F   F345      1.0  0.51806  0.07295  0.28025  1.0000
  F   F346      1.0  0.51185  0.08662  0.78081  1.0000
  F   F347      1.0  0.51458  0.58702  0.27571  1.0000
  F   F348      1.0  0.51228  0.60706  0.77729  1.0000
  F   F349      1.0  0.76634  0.07529  0.27767  1.0000
  F   F350      1.0  0.76042  0.10197  0.76162  1.0000
  F   F351      1.0  0.76511  0.58860  0.28130  1.0000
  F   F352      1.0  0.76315  0.57725  0.78576  1.0000
  F   F353      1.0  0.09841  0.41239  0.45481  1.0000
  F   F354      1.0  0.09854  0.42386  0.95635  1.0000
  F   F355      1.0  0.10090  0.91680  0.45817  1.0000
  F   F356      1.0  0.10698  0.88912  0.95476  1.0000
  F   F357      1.0  0.35034  0.42138  0.46604  1.0000
  F   F358      1.0  0.35122  0.41281  0.96305  1.0000
  F   F359      1.0  0.35304  0.88287  0.47162  1.0000
  F   F360      1.0  0.34994  0.91405  0.95801  1.0000
  F   F361      1.0  0.60392  0.40371  0.46595  1.0000
  F   F362      1.0  0.60247  0.39659  0.95010  1.0000
  F   F363      1.0  0.60554  0.89966  0.46243  1.0000
  F   F364      1.0  0.60173  0.90889  0.95886  1.0000
  F   F365      1.0  0.85161  0.39370  0.46167  1.0000
  F   F366      1.0  0.84572  0.41755  0.97090  1.0000
  F   F367      1.0  0.84739  0.90693  0.46215  1.0000
  F   F368      1.0  0.85810  0.90709  0.97097  1.0000
  F   F369      1.0  0.04076  0.28658  0.29559  1.0000
  F   F370      1.0  0.05004  0.29798  0.78836  1.0000
  F   F371      1.0  0.05244  0.79094  0.29002  1.0000
  F   F372      1.0  0.03577  0.78654  0.79031  1.0000
  F   F373      1.0  0.30800  0.29281  0.28716  1.0000
  F   F374      1.0  0.29270  0.30941  0.78924  1.0000
  F   F375      1.0  0.28895  0.80481  0.29521  1.0000
  F   F376      1.0  0.28966  0.79366  0.80036  1.0000
  F   F377      1.0  0.55239  0.30084  0.28923  1.0000
  F   F378      1.0  0.54782  0.29762  0.78438  1.0000
  F   F379      1.0  0.54682  0.79586  0.28356  1.0000
  F   F380      1.0  0.54290  0.80472  0.79339  1.0000
  F   F381      1.0  0.78628  0.29323  0.30987  1.0000
  F   F382      1.0  0.80595  0.29200  0.78290  1.0000
  F   F383      1.0  0.80443  0.79792  0.29093  1.0000
  F   F384      1.0  0.80485  0.80736  0.78549  1.0000
