data_image0
_chemical_formula_structural       Hf96F384
_chemical_formula_sum              "Hf96 F384"
_cell_length_a       31.0292
_cell_length_b       15.5151
_cell_length_c       15.5105
_cell_angle_alpha    63.342
_cell_angle_beta     63.342
_cell_angle_gamma    80.1625

_space_group_name_H-M_alt    "P 1"
_space_group_IT_number       1

loop_
  _space_group_symop_operation_xyz
  'x, y, z'

loop_
  _atom_site_type_symbol
  _atom_site_label
  _atom_site_symmetry_multiplicity
  _atom_site_fract_x
  _atom_site_fract_y
  _atom_site_fract_z
  _atom_site_occupancy
  Hf  Hf1       1.0  0.19646  0.11300  0.36357  1.0000
  Hf  Hf2       1.0  0.19976  0.10606  0.87210  1.0000
  Hf  Hf3       1.0  0.19786  0.60415  0.37837  1.0000
  Hf  Hf4       1.0  0.19576  0.60929  0.87963  1.0000
  Hf  Hf5       1.0  0.44138  0.10232  0.39114  1.0000
  Hf  Hf6       1.0  0.44542  0.10546  0.87649  1.0000
  Hf  Hf7       1.0  0.44737  0.61381  0.36830  1.0000
  Hf  Hf8       1.0  0.44678  0.60893  0.88400  1.0000
  Hf  Hf9       1.0  0.69480  0.10406  0.37800  1.0000
  Hf  Hf10      1.0  0.69465  0.10172  0.87752  1.0000
  Hf  Hf11      1.0  0.69346  0.59680  0.38128  1.0000
  Hf  Hf12      1.0  0.69368  0.60949  0.87513  1.0000
  Hf  Hf13      1.0  0.94656  0.11083  0.37132  1.0000
  Hf  Hf14      1.0  0.95097  0.11622  0.86099  1.0000
  Hf  Hf15      1.0  0.94316  0.60692  0.38038  1.0000
  Hf  Hf16      1.0  0.94543  0.60830  0.88020  1.0000
  Hf  Hf17      1.0  0.05474  0.39856  0.12289  1.0000
  Hf  Hf18      1.0  0.05423  0.39640  0.61827  1.0000
  Hf  Hf19      1.0  0.05385  0.88895  0.12424  1.0000
  Hf  Hf20      1.0  0.05525  0.90173  0.61341  1.0000
  Hf  Hf21      1.0  0.30614  0.39409  0.12503  1.0000
  Hf  Hf22      1.0  0.30513  0.39259  0.62276  1.0000
  Hf  Hf23      1.0  0.30634  0.89481  0.11737  1.0000
  Hf  Hf24      1.0  0.30156  0.89963  0.62734  1.0000
  Hf  Hf25      1.0  0.55428  0.39706  0.12315  1.0000
  Hf  Hf26      1.0  0.55389  0.38759  0.62154  1.0000
  Hf  Hf27      1.0  0.54994  0.88348  0.13767  1.0000
  Hf  Hf28      1.0  0.55389  0.88886  0.62610  1.0000
  Hf  Hf29      1.0  0.80572  0.39121  0.12250  1.0000
  Hf  Hf30      1.0  0.80260  0.38597  0.63917  1.0000
  Hf  Hf31      1.0  0.80646  0.89173  0.12452  1.0000
  Hf  Hf32      1.0  0.80241  0.89209  0.62392  1.0000
  Hf  Hf33      1.0  0.05560  0.18175  0.40893  1.0000
  Hf  Hf34      1.0  0.05739  0.18918  0.91195  1.0000
  Hf  Hf35      1.0  0.05774  0.68393  0.41689  1.0000
  Hf  Hf36      1.0  0.05639  0.68588  0.91461  1.0000
  Hf  Hf37      1.0  0.30442  0.18475  0.41707  1.0000
  Hf  Hf38      1.0  0.31038  0.19266  0.91402  1.0000
  Hf  Hf39      1.0  0.30962  0.68782  0.41404  1.0000
  Hf  Hf40      1.0  0.30622  0.69127  0.91291  1.0000
  Hf  Hf41      1.0  0.55479  0.18023  0.41655  1.0000
  Hf  Hf42      1.0  0.55550  0.17303  0.91570  1.0000
  Hf  Hf43      1.0  0.55488  0.67297  0.42367  1.0000
  Hf  Hf44      1.0  0.55006  0.68556  0.92524  1.0000
  Hf  Hf45      1.0  0.80579  0.18047  0.41820  1.0000
  Hf  Hf46      1.0  0.80880  0.17440  0.92508  1.0000
  Hf  Hf47      1.0  0.80667  0.67625  0.42443  1.0000
  Hf  Hf48      1.0  0.80473  0.67433  0.92181  1.0000
  Hf  Hf49      1.0  0.15759  0.39465  0.32494  1.0000
  Hf  Hf50      1.0  0.16255  0.40501  0.81831  1.0000
  Hf  Hf51      1.0  0.15833  0.88618  0.33367  1.0000
  Hf  Hf52      1.0  0.16016  0.89474  0.82955  1.0000
  Hf  Hf53      1.0  0.40873  0.38567  0.33519  1.0000
  Hf  Hf54      1.0  0.40917  0.38810  0.83651  1.0000
  Hf  Hf55      1.0  0.40845  0.89720  0.32956  1.0000
  Hf  Hf56      1.0  0.40966  0.88880  0.82631  1.0000
  Hf  Hf57      1.0  0.65636  0.37874  0.34162  1.0000
  Hf  Hf58      1.0  0.66031  0.38723  0.83662  1.0000
  Hf  Hf59      1.0  0.65564  0.87402  0.33684  1.0000
  Hf  Hf60      1.0  0.65929  0.88717  0.83194  1.0000
  Hf  Hf61      1.0  0.90606  0.38806  0.33662  1.0000
  Hf  Hf62      1.0  0.90737  0.39048  0.83516  1.0000
  Hf  Hf63      1.0  0.90498  0.88280  0.34216  1.0000
  Hf  Hf64      1.0  0.90936  0.88815  0.83356  1.0000
  Hf  Hf65      1.0  0.19405  0.31988  0.07423  1.0000
  Hf  Hf66      1.0  0.19278  0.31201  0.58902  1.0000
  Hf  Hf67      1.0  0.19443  0.81050  0.08700  1.0000
  Hf  Hf68      1.0  0.19197  0.81533  0.58708  1.0000
  Hf  Hf69      1.0  0.44434  0.31925  0.08646  1.0000
  Hf  Hf70      1.0  0.44745  0.32225  0.57911  1.0000
  Hf  Hf71      1.0  0.44135  0.82677  0.07827  1.0000
  Hf  Hf72      1.0  0.44270  0.80884  0.58530  1.0000
  Hf  Hf73      1.0  0.69632  0.31254  0.08660  1.0000
  Hf  Hf74      1.0  0.69270  0.31282  0.58907  1.0000
  Hf  Hf75      1.0  0.69505  0.81499  0.08061  1.0000
  Hf  Hf76      1.0  0.69254  0.82149  0.57896  1.0000
  Hf  Hf77      1.0  0.94599  0.31946  0.08496  1.0000
  Hf  Hf78      1.0  0.94353  0.32073  0.57996  1.0000
  Hf  Hf79      1.0  0.94301  0.82398  0.08710  1.0000
  Hf  Hf80      1.0  0.94400  0.82052  0.58633  1.0000
  Hf  Hf81      1.0  0.09219  0.10937  0.16349  1.0000
  Hf  Hf82      1.0  0.09319  0.11205  0.65800  1.0000
  Hf  Hf83      1.0  0.08970  0.61190  0.16436  1.0000
  Hf  Hf84      1.0  0.09388  0.62192  0.66253  1.0000
  Hf  Hf85      1.0  0.34480  0.11471  0.16211  1.0000
  Hf  Hf86      1.0  0.34367  0.10848  0.67185  1.0000
  Hf  Hf87      1.0  0.34092  0.61783  0.16829  1.0000
  Hf  Hf88      1.0  0.33549  0.61412  0.66938  1.0000
  Hf  Hf89      1.0  0.59207  0.11096  0.16419  1.0000
  Hf  Hf90      1.0  0.58983  0.10830  0.66390  1.0000
  Hf  Hf91      1.0  0.58923  0.61322  0.16852  1.0000
  Hf  Hf92      1.0  0.59402  0.60675  0.66891  1.0000
  Hf  Hf93      1.0  0.84362  0.11244  0.16289  1.0000
  Hf  Hf94      1.0  0.84265  0.10312  0.67503  1.0000
  Hf  Hf95      1.0  0.84104  0.61883  0.16058  1.0000
  Hf  Hf96      1.0  0.84111  0.60978  0.67012  1.0000
  F   F1        1.0  0.07614  0.12687  0.29941  1.0000
  F   F2        1.0  0.07959  0.12471  0.79656  1.0000
  F   F3        1.0  0.07485  0.62910  0.29867  1.0000
  F   F4        1.0  0.07989  0.63249  0.80366  1.0000
  F   F5        1.0  0.33363  0.15634  0.28770  1.0000
  F   F6        1.0  0.33911  0.12879  0.80302  1.0000
  F   F7        1.0  0.32736  0.62396  0.31114  1.0000
  F   F8        1.0  0.32832  0.63222  0.80564  1.0000
  F   F9        1.0  0.57617  0.12842  0.29606  1.0000
  F   F10       1.0  0.57590  0.12208  0.80360  1.0000
  F   F11       1.0  0.58376  0.64794  0.28577  1.0000
  F   F12       1.0  0.57679  0.63996  0.79962  1.0000
  F   F13       1.0  0.82640  0.13651  0.29967  1.0000
  F   F14       1.0  0.83072  0.13532  0.80415  1.0000
  F   F15       1.0  0.82947  0.63515  0.29915  1.0000
  F   F16       1.0  0.82665  0.61541  0.80772  1.0000
  F   F17       1.0  0.18148  0.33997  0.44495  1.0000
  F   F18       1.0  0.19334  0.34556  0.93139  1.0000
  F   F19       1.0  0.18029  0.84844  0.44399  1.0000
  F   F20       1.0  0.17479  0.84716  0.95910  1.0000
  F   F21       1.0  0.44548  0.35429  0.42787  1.0000
  F   F22       1.0  0.43059  0.34347  0.95268  1.0000
  F   F23       1.0  0.42494  0.82759  0.45816  1.0000
  F   F24       1.0  0.43302  0.83437  0.94743  1.0000
  F   F25       1.0  0.67838  0.32971  0.46012  1.0000
  F   F26       1.0  0.68632  0.34415  0.94676  1.0000
  F   F27       1.0  0.69061  0.84708  0.43625  1.0000
  F   F28       1.0  0.68940  0.83873  0.94334  1.0000
  F   F29       1.0  0.93149  0.34122  0.45617  1.0000
  F   F30       1.0  0.93930  0.33970  0.94256  1.0000
  F   F31       1.0  0.92658  0.83748  0.45867  1.0000
  F   F32       1.0  0.93677  0.84726  0.95438  1.0000
  F   F33       1.0  0.17243  0.36664  0.18732  1.0000
  F   F34       1.0  0.17197  0.37078  0.69633  1.0000
  F   F35       1.0  0.17417  0.87744  0.19328  1.0000
  F   F36       1.0  0.17258  0.87487  0.69370  1.0000
  F   F37       1.0  0.42763  0.37972  0.19157  1.0000
  F   F38       1.0  0.42459  0.38234  0.69078  1.0000
  F   F39       1.0  0.41411  0.87788  0.19656  1.0000
  F   F40       1.0  0.42399  0.87387  0.68758  1.0000
  F   F41       1.0  0.67554  0.37413  0.19337  1.0000
  F   F42       1.0  0.67052  0.37718  0.69270  1.0000
  F   F43       1.0  0.67115  0.86402  0.20116  1.0000
  F   F44       1.0  0.67419  0.87129  0.69536  1.0000
  F   F45       1.0  0.91591  0.37016  0.20168  1.0000
  F   F46       1.0  0.92333  0.36664  0.70740  1.0000
  F   F47       1.0  0.92647  0.88334  0.19703  1.0000
  F   F48       1.0  0.92335  0.89090  0.68773  1.0000
  F   F49       1.0  0.07604  0.15569  0.03604  1.0000
  F   F50       1.0  0.06714  0.15120  0.54692  1.0000
  F   F51       1.0  0.06340  0.65229  0.05601  1.0000
  F   F52       1.0  0.05966  0.66293  0.55495  1.0000
  F   F53       1.0  0.32145  0.14844  0.04814  1.0000
  F   F54       1.0  0.31904  0.16621  0.55767  1.0000
  F   F55       1.0  0.31513  0.67233  0.05090  1.0000
  F   F56       1.0  0.29938  0.64040  0.57005  1.0000
  F   F57       1.0  0.56248  0.14670  0.05142  1.0000
  F   F58       1.0  0.56995  0.15605  0.54882  1.0000
  F   F59       1.0  0.55794  0.65357  0.06091  1.0000
  F   F60       1.0  0.56499  0.65027  0.55350  1.0000
  F   F61       1.0  0.80544  0.15775  0.07145  1.0000
  F   F62       1.0  0.80413  0.14319  0.56387  1.0000
  F   F63       1.0  0.80728  0.65395  0.05357  1.0000
  F   F64       1.0  0.82031  0.65367  0.54630  1.0000
  F   F65       1.0  0.20011  0.19416  0.20874  1.0000
  F   F66       1.0  0.20723  0.18427  0.70996  1.0000
  F   F67       1.0  0.20794  0.69949  0.21568  1.0000
  F   F68       1.0  0.20642  0.70257  0.70170  1.0000
  F   F69       1.0  0.44248  0.20842  0.21387  1.0000
  F   F70       1.0  0.45621  0.21506  0.70953  1.0000
  F   F71       1.0  0.45459  0.70253  0.20082  1.0000
  F   F72       1.0  0.45537  0.70373  0.71239  1.0000
  F   F73       1.0  0.70706  0.19918  0.21227  1.0000
  F   F74       1.0  0.69955  0.19290  0.71798  1.0000
  F   F75       1.0  0.70280  0.69882  0.22269  1.0000
  F   F76       1.0  0.69400  0.70469  0.71498  1.0000
  F   F77       1.0  0.95682  0.19977  0.21418  1.0000
  F   F78       1.0  0.95569  0.20004  0.70659  1.0000
  F   F79       1.0  0.94761  0.70623  0.22089  1.0000
  F   F80       1.0  0.95336  0.71220  0.71192  1.0000
  F   F81       1.0  0.15259  0.08711  0.03790  1.0000
  F   F82       1.0  0.15067  0.09990  0.53433  1.0000
  F   F83       1.0  0.14752  0.59336  0.02673  1.0000
  F   F84       1.0  0.14623  0.59203  0.52818  1.0000
  F   F85       1.0  0.40528  0.08623  0.03407  1.0000
  F   F86       1.0  0.39975  0.08753  0.54277  1.0000
  F   F87       1.0  0.39836  0.57999  0.04043  1.0000
  F   F88       1.0  0.38871  0.62981  0.52388  1.0000
  F   F89       1.0  0.64907  0.09124  0.03546  1.0000
  F   F90       1.0  0.65151  0.08507  0.53219  1.0000
  F   F91       1.0  0.64216  0.58239  0.05231  1.0000
  F   F92       1.0  0.64846  0.58740  0.54045  1.0000
  F   F93       1.0  0.90187  0.08657  0.05004  1.0000
  F   F94       1.0  0.89440  0.09812  0.54261  1.0000
  F   F95       1.0  0.90234  0.59017  0.03839  1.0000
  F   F96       1.0  0.89605  0.57319  0.54577  1.0000
  F   F97       1.0  0.14042  0.21410  0.11817  1.0000
  F   F98       1.0  0.14876  0.20301  0.62263  1.0000
  F   F99       1.0  0.15221  0.68753  0.12624  1.0000
  F   F100      1.0  0.15378  0.69472  0.61571  1.0000
  F   F101      1.0  0.40569  0.18620  0.11311  1.0000
  F   F102      1.0  0.40839  0.20019  0.60181  1.0000
  F   F103      1.0  0.40521  0.68728  0.13193  1.0000
  F   F104      1.0  0.40158  0.69301  0.62135  1.0000
  F   F105      1.0  0.65367  0.19444  0.11923  1.0000
  F   F106      1.0  0.64641  0.18552  0.63203  1.0000
  F   F107      1.0  0.64835  0.69209  0.12421  1.0000
  F   F108      1.0  0.65665  0.69772  0.61474  1.0000
  F   F109      1.0  0.90126  0.19591  0.12668  1.0000
  F   F110      1.0  0.90354  0.19198  0.63349  1.0000
  F   F111      1.0  0.90155  0.70125  0.12097  1.0000
  F   F112      1.0  0.89981  0.69045  0.65359  1.0000
  F   F113      1.0  0.10112  0.29483  0.36746  1.0000
  F   F114      1.0  0.09872  0.31500  0.85648  1.0000
  F   F115      1.0  0.09579  0.81815  0.37272  1.0000
  F   F116      1.0  0.10219  0.81108  0.86483  1.0000
  F   F117      1.0  0.34675  0.30029  0.36962  1.0000
  F   F118      1.0  0.34695  0.30109  0.89679  1.0000
  F   F119      1.0  0.35524  0.79916  0.39423  1.0000
  F   F120      1.0  0.34928  0.80240  0.86880  1.0000
  F   F121      1.0  0.59662  0.29450  0.38470  1.0000
  F   F122      1.0  0.60445  0.30522  0.86198  1.0000
  F   F123      1.0  0.59817  0.77858  0.38279  1.0000
  F   F124      1.0  0.59645  0.79631  0.85907  1.0000
  F   F125      1.0  0.85009  0.28827  0.40432  1.0000
  F   F126      1.0  0.85272  0.29378  0.87864  1.0000
  F   F127      1.0  0.84632  0.80699  0.37576  1.0000
  F   F128      1.0  0.84493  0.79933  0.88186  1.0000
  F   F129      1.0  0.06403  0.26549  0.13513  1.0000
  F   F130      1.0  0.06314  0.24951  0.64010  1.0000
  F   F131      1.0  0.06883  0.75053  0.13375  1.0000
  F   F132      1.0  0.06835  0.76400  0.62238  1.0000
  F   F133      1.0  0.32035  0.24828  0.13378  1.0000
  F   F134      1.0  0.31441  0.24859  0.65323  1.0000
  F   F135      1.0  0.31196  0.75222  0.16393  1.0000
  F   F136      1.0  0.30607  0.75060  0.64921  1.0000
  F   F137      1.0  0.56164  0.24665  0.15004  1.0000
  F   F138      1.0  0.55300  0.25033  0.63538  1.0000
  F   F139      1.0  0.56137  0.74816  0.14600  1.0000
  F   F140      1.0  0.57188  0.74764  0.62989  1.0000
  F   F141      1.0  0.81912  0.25473  0.13573  1.0000
  F   F142      1.0  0.81304  0.24203  0.64557  1.0000
  F   F143      1.0  0.81356  0.74677  0.14166  1.0000
  F   F144      1.0  0.82613  0.75076  0.62733  1.0000
  F   F145      1.0  0.12668  0.38177  0.08560  1.0000
  F   F146      1.0  0.12196  0.38058  0.60902  1.0000
  F   F147      1.0  0.12767  0.86898  0.11420  1.0000
  F   F148      1.0  0.12168  0.86311  0.61320  1.0000
  F   F149      1.0  0.37000  0.35709  0.13375  1.0000
  F   F150      1.0  0.37450  0.36363  0.61874  1.0000
  F   F151      1.0  0.38058  0.88728  0.08675  1.0000
  F   F152      1.0  0.37012  0.85722  0.61585  1.0000
  F   F153      1.0  0.62435  0.35719  0.11947  1.0000
  F   F154      1.0  0.62375  0.36105  0.60547  1.0000
  F   F155      1.0  0.62484  0.85598  0.10655  1.0000
  F   F156      1.0  0.62673  0.87958  0.60864  1.0000
  F   F157      1.0  0.88208  0.37138  0.09584  1.0000
  F   F158      1.0  0.87204  0.35918  0.62612  1.0000
  F   F159      1.0  0.87611  0.87883  0.10948  1.0000
  F   F160      1.0  0.87419  0.87414  0.60885  1.0000
  F   F161      1.0  0.18595  0.24567  0.34936  1.0000
  F   F162      1.0  0.18590  0.25874  0.83756  1.0000
  F   F163      1.0  0.18548  0.74414  0.37205  1.0000
  F   F164      1.0  0.19157  0.75626  0.85040  1.0000
  F   F165      1.0  0.42992  0.24523  0.36383  1.0000
  F   F166      1.0  0.43532  0.25782  0.85762  1.0000
  F   F167      1.0  0.44305  0.76198  0.32962  1.0000
  F   F168      1.0  0.43587  0.74788  0.85713  1.0000
  F   F169      1.0  0.67984  0.24117  0.36459  1.0000
  F   F170      1.0  0.68928  0.26085  0.83944  1.0000
  F   F171      1.0  0.67680  0.73970  0.37795  1.0000
  F   F172      1.0  0.67338  0.74492  0.86480  1.0000
  F   F173      1.0  0.94211  0.25602  0.35288  1.0000
  F   F174      1.0  0.93708  0.24747  0.86188  1.0000
  F   F175      1.0  0.92931  0.74225  0.37267  1.0000
  F   F176      1.0  0.93713  0.75606  0.85278  1.0000
  F   F177      1.0  0.12431  0.12162  0.39167  1.0000
  F   F178      1.0  0.13076  0.14375  0.86813  1.0000
  F   F179      1.0  0.12593  0.64978  0.36930  1.0000
  F   F180      1.0  0.13067  0.64446  0.87260  1.0000
  F   F181      1.0  0.37042  0.11284  0.41550  1.0000
  F   F182      1.0  0.37885  0.15096  0.88618  1.0000
  F   F183      1.0  0.37851  0.62653  0.38699  1.0000
  F   F184      1.0  0.37534  0.62111  0.90306  1.0000
  F   F185      1.0  0.62480  0.13246  0.38491  1.0000
  F   F186      1.0  0.62434  0.12729  0.88720  1.0000
  F   F187      1.0  0.62170  0.59887  0.40324  1.0000
  F   F188      1.0  0.62011  0.60932  0.91183  1.0000
  F   F189      1.0  0.87186  0.12481  0.39555  1.0000
  F   F190      1.0  0.87651  0.11636  0.91213  1.0000
  F   F191      1.0  0.87471  0.62263  0.39462  1.0000
  F   F192      1.0  0.87660  0.62077  0.89391  1.0000
  F   F193      1.0  0.00288  0.36741  0.08333  1.0000
  F   F194      1.0  0.00928  0.35641  0.56907  1.0000
  F   F195      1.0  0.00519  0.86141  0.08124  1.0000
  F   F196      1.0  0.00824  0.88600  0.55446  1.0000
  F   F197      1.0  0.26265  0.35524  0.06103  1.0000
  F   F198      1.0  0.25503  0.35707  0.57937  1.0000
  F   F199      1.0  0.26031  0.86149  0.06842  1.0000
  F   F200      1.0  0.25185  0.87027  0.58466  1.0000
  F   F201      1.0  0.50964  0.36722  0.06430  1.0000
  F   F202      1.0  0.50801  0.37229  0.56041  1.0000
  F   F203      1.0  0.50252  0.87396  0.07594  1.0000
  F   F204      1.0  0.50692  0.85907  0.58080  1.0000
  F   F205      1.0  0.76131  0.36137  0.07166  1.0000
  F   F206      1.0  0.75503  0.34509  0.59187  1.0000
  F   F207      1.0  0.76124  0.86902  0.06785  1.0000
  F   F208      1.0  0.75944  0.85180  0.58052  1.0000
  F   F209      1.0  0.06971  0.48723  0.17119  1.0000
  F   F210      1.0  0.06328  0.48764  0.68977  1.0000
  F   F211      1.0  0.07541  0.98238  0.16581  1.0000
  F   F212      1.0  0.06982  0.98464  0.67168  1.0000
  F   F213      1.0  0.31819  0.49237  0.17711  1.0000
  F   F214      1.0  0.31969  0.48810  0.66303  1.0000
  F   F215      1.0  0.32492  0.98065  0.16514  1.0000
  F   F216      1.0  0.32198  0.97556  0.68258  1.0000
  F   F217      1.0  0.57139  0.47853  0.17526  1.0000
  F   F218      1.0  0.57534  0.48216  0.68001  1.0000
  F   F219      1.0  0.57233  0.98501  0.17167  1.0000
  F   F220      1.0  0.57084  0.97993  0.67783  1.0000
  F   F221      1.0  0.81820  0.48830  0.16588  1.0000
  F   F222      1.0  0.81736  0.48106  0.69228  1.0000
  F   F223      1.0  0.81615  0.98729  0.16763  1.0000
  F   F224      1.0  0.81898  0.98351  0.67877  1.0000
  F   F225      1.0  0.23880  0.13557  0.42846  1.0000
  F   F226      1.0  0.25220  0.15790  0.88890  1.0000
  F   F227      1.0  0.24503  0.63108  0.43793  1.0000
  F   F228      1.0  0.24425  0.63551  0.93073  1.0000
  F   F229      1.0  0.49095  0.13042  0.43961  1.0000
  F   F230      1.0  0.49255  0.12303  0.93136  1.0000
  F   F231      1.0  0.48958  0.63309  0.43637  1.0000
  F   F232      1.0  0.48576  0.64459  0.93696  1.0000
  F   F233      1.0  0.74349  0.14402  0.42097  1.0000
  F   F234      1.0  0.74093  0.12945  0.93395  1.0000
  F   F235      1.0  0.73892  0.63179  0.43017  1.0000
  F   F236      1.0  0.73841  0.63906  0.92601  1.0000
  F   F237      1.0  0.99313  0.12863  0.42715  1.0000
  F   F238      1.0  0.99578  0.14400  0.92119  1.0000
  F   F239      1.0  0.99126  0.62413  0.42772  1.0000
  F   F240      1.0  0.98904  0.63546  0.93492  1.0000
  F   F241      1.0  0.18053  0.01033  0.31124  1.0000
  F   F242      1.0  0.17734  0.01061  0.83450  1.0000
  F   F243      1.0  0.17696  0.50938  0.33586  1.0000
  F   F244      1.0  0.18801  0.52900  0.80058  1.0000
  F   F245      1.0  0.42081  0.01553  0.33472  1.0000
  F   F246      1.0  0.41953  0.02487  0.84024  1.0000
  F   F247      1.0  0.43256  0.52135  0.31723  1.0000
  F   F248      1.0  0.43309  0.51961  0.82352  1.0000
  F   F249      1.0  0.67937  0.00593  0.32476  1.0000
  F   F250      1.0  0.67670  0.01272  0.83515  1.0000
  F   F251      1.0  0.68787  0.50627  0.31033  1.0000
  F   F252      1.0  0.68254  0.52436  0.82235  1.0000
  F   F253      1.0  0.92927  0.00865  0.32358  1.0000
  F   F254      1.0  0.93127  0.01393  0.82169  1.0000
  F   F255      1.0  0.93095  0.50840  0.32829  1.0000
  F   F256      1.0  0.93750  0.51569  0.82197  1.0000
  F   F257      1.0  0.00364  0.24037  0.01915  1.0000
  F   F258      1.0  0.00146  0.24857  0.49023  1.0000
  F   F259      1.0  0.00120  0.76783  0.99176  1.0000
  F   F260      1.0  0.99667  0.74524  0.50792  1.0000
  F   F261      1.0  0.24542  0.22905  0.02289  1.0000
  F   F262      1.0  0.25011  0.26048  0.49434  1.0000
  F   F263      1.0  0.24597  0.74447  0.00956  1.0000
  F   F264      1.0  0.24806  0.77616  0.48291  1.0000
  F   F265      1.0  0.50225  0.24649  0.99488  1.0000
  F   F266      1.0  0.50569  0.23966  0.50930  1.0000
  F   F267      1.0  0.50618  0.78232  0.98089  1.0000
  F   F268      1.0  0.50154  0.75247  0.49359  1.0000
  F   F269      1.0  0.75032  0.23670  0.99974  1.0000
  F   F270      1.0  0.74791  0.25749  0.48902  1.0000
  F   F271      1.0  0.74989  0.74508  0.00622  1.0000
  F   F272      1.0  0.75143  0.74216  0.50395  1.0000
  F   F273      1.0  0.12070  0.00565  0.25188  1.0000
  F   F274      1.0  0.12962  0.99610  0.74757  1.0000
  F   F275      1.0  0.12344  0.49650  0.24184  1.0000
  F   F276      1.0  0.13016  0.51630  0.74348  1.0000
  F   F277      1.0  0.36580  0.99457  0.26414  1.0000
  F   F278      1.0  0.38103  0.00032  0.73946  1.0000
  F   F279      1.0  0.37652  0.49688  0.25306  1.0000
  F   F280      1.0  0.37368  0.50521  0.74257  1.0000
  F   F281      1.0  0.61437  0.98419  0.26221  1.0000
  F   F282      1.0  0.62718  0.99667  0.73990  1.0000
  F   F283      1.0  0.62201  0.49378  0.25622  1.0000
  F   F284      1.0  0.62358  0.50402  0.76197  1.0000
  F   F285      1.0  0.86438  0.99242  0.25197  1.0000
  F   F286      1.0  0.87212  0.99781  0.76187  1.0000
  F   F287      1.0  0.87029  0.49718  0.26035  1.0000
  F   F288      1.0  0.87416  0.49055  0.75410  1.0000
  F   F289      1.0  0.04215  0.04257  0.02152  1.0000
  F   F290      1.0  0.03683  0.03863  0.52413  1.0000
  F   F291      1.0  0.04565  0.52949  0.01518  1.0000
  F   F292      1.0  0.05316  0.54034  0.50630  1.0000
  F   F293      1.0  0.30222  0.03161  0.00173  1.0000
  F   F294      1.0  0.29015  0.03956  0.53139  1.0000
  F   F295      1.0  0.29170  0.53487  0.02360  1.0000
  F   F296      1.0  0.30594  0.52102  0.50163  1.0000
  F   F297      1.0  0.54465  0.01387  0.02154  1.0000
  F   F298      1.0  0.54413  0.03117  0.51765  1.0000
  F   F299      1.0  0.53494  0.53389  0.03246  1.0000
  F   F300      1.0  0.53590  0.52356  0.53505  1.0000
  F   F301      1.0  0.79782  0.02398  0.02384  1.0000
  F   F302      1.0  0.79460  0.03124  0.50592  1.0000
  F   F303      1.0  0.78792  0.53164  0.03221  1.0000
  F   F304      1.0  0.78805  0.52645  0.53861  1.0000
  F   F305      1.0  0.22916  0.42529  0.21798  1.0000
  F   F306      1.0  0.23602  0.43365  0.70651  1.0000
  F   F307      1.0  0.24127  0.89755  0.22999  1.0000
  F   F308      1.0  0.23340  0.92335  0.73335  1.0000
  F   F309      1.0  0.49012  0.40024  0.22736  1.0000
  F   F310      1.0  0.48812  0.40452  0.73979  1.0000
  F   F311      1.0  0.48413  0.92879  0.22685  1.0000
  F   F312      1.0  0.48414  0.92586  0.73545  1.0000
  F   F313      1.0  0.73734  0.38561  0.23677  1.0000
  F   F314      1.0  0.73899  0.40789  0.73767  1.0000
  F   F315      1.0  0.73058  0.90635  0.23471  1.0000
  F   F316      1.0  0.73197  0.92279  0.73057  1.0000
  F   F317      1.0  0.98229  0.42256  0.23518  1.0000
  F   F318      1.0  0.98959  0.43336  0.70153  1.0000
  F   F319      1.0  0.98901  0.91096  0.23105  1.0000
  F   F320      1.0  0.98636  0.92119  0.72421  1.0000
  F   F321      1.0  0.20505  0.46901  0.48843  1.0000
  F   F322      1.0  0.20360  0.47174  0.97752  1.0000
  F   F323      1.0  0.20532  0.97418  0.48037  1.0000
  F   F324      1.0  0.21702  0.97063  0.96159  1.0000
  F   F325      1.0  0.44626  0.48208  0.49475  1.0000
  F   F326      1.0  0.45681  0.46245  0.98363  1.0000
  F   F327      1.0  0.45694  0.95989  0.46968  1.0000
  F   F328      1.0  0.45750  0.96482  0.97789  1.0000
  F   F329      1.0  0.70923  0.45669  0.47374  1.0000
  F   F330      1.0  0.70825  0.46612  0.97734  1.0000
  F   F331      1.0  0.71312  0.97793  0.47523  1.0000
  F   F332      1.0  0.70846  0.96062  0.97698  1.0000
  F   F333      1.0  0.96172  0.46421  0.46909  1.0000
  F   F334      1.0  0.96124  0.47354  0.97145  1.0000
  F   F335      1.0  0.95045  0.97290  0.46709  1.0000
  F   F336      1.0  0.95501  0.97991  0.97938  1.0000
  F   F337      1.0  0.01441  0.07259  0.26873  1.0000
  F   F338      1.0  0.01650  0.08424  0.77440  1.0000
  F   F339      1.0  0.01583  0.58788  0.26771  1.0000
  F   F340      1.0  0.01472  0.60460  0.77992  1.0000
  F   F341      1.0  0.26701  0.09362  0.26868  1.0000
  F   F342      1.0  0.26702  0.08364  0.76206  1.0000
  F   F343      1.0  0.26239  0.58702  0.28453  1.0000
  F   F344      1.0  0.26523  0.58468  0.77958  1.0000
  F   F345      1.0  0.50325  0.09836  0.27687  1.0000
  F   F346      1.0  0.51350  0.07326  0.77266  1.0000
  F   F347      1.0  0.51377  0.58113  0.28699  1.0000
  F   F348      1.0  0.51294  0.60342  0.76906  1.0000
  F   F349      1.0  0.76602  0.09439  0.26544  1.0000
  F   F350      1.0  0.76621  0.08278  0.77998  1.0000
  F   F351      1.0  0.76791  0.58562  0.26941  1.0000
  F   F352      1.0  0.76451  0.60743  0.75401  1.0000
  F   F353      1.0  0.10335  0.39479  0.45740  1.0000
  F   F354      1.0  0.10505  0.42271  0.94088  1.0000
  F   F355      1.0  0.10232  0.91642  0.46025  1.0000
  F   F356      1.0  0.09315  0.91310  0.95984  1.0000
  F   F357      1.0  0.35308  0.38341  0.46723  1.0000
  F   F358      1.0  0.35421  0.42305  0.96036  1.0000
  F   F359      1.0  0.34897  0.91473  0.47035  1.0000
  F   F360      1.0  0.35257  0.89577  0.95528  1.0000
  F   F361      1.0  0.59892  0.42286  0.44492  1.0000
  F   F362      1.0  0.60447  0.40838  0.95964  1.0000
  F   F363      1.0  0.59918  0.90199  0.45972  1.0000
  F   F364      1.0  0.60194  0.88587  0.96281  1.0000
  F   F365      1.0  0.85210  0.40964  0.47275  1.0000
  F   F366      1.0  0.84996  0.41871  0.96202  1.0000
  F   F367      1.0  0.84743  0.91021  0.46417  1.0000
  F   F368      1.0  0.84969  0.89735  0.96876  1.0000
  F   F369      1.0  0.04936  0.29899  0.27702  1.0000
  F   F370      1.0  0.04024  0.29867  0.79496  1.0000
  F   F371      1.0  0.04895  0.79877  0.28355  1.0000
  F   F372      1.0  0.04410  0.79793  0.78287  1.0000
  F   F373      1.0  0.27826  0.30283  0.29304  1.0000
  F   F374      1.0  0.30482  0.30659  0.79207  1.0000
  F   F375      1.0  0.31092  0.80205  0.29417  1.0000
  F   F376      1.0  0.29812  0.80672  0.79131  1.0000
  F   F377      1.0  0.54620  0.29956  0.28901  1.0000
  F   F378      1.0  0.55274  0.27747  0.78286  1.0000
  F   F379      1.0  0.54167  0.80139  0.29394  1.0000
  F   F380      1.0  0.54341  0.79898  0.77160  1.0000
  F   F381      1.0  0.80626  0.30974  0.27787  1.0000
  F   F382      1.0  0.79863  0.29748  0.79258  1.0000
  F   F383      1.0  0.79592  0.79866  0.28779  1.0000
  F   F384      1.0  0.79457  0.79692  0.78401  1.0000
