data_image0
_chemical_formula_structural       Hf96F384
_chemical_formula_sum              "Hf96 F384"
_cell_length_a       31.0281
_cell_length_b       15.517
_cell_length_c       15.5075
_cell_angle_alpha    63.342
_cell_angle_beta     63.342
_cell_angle_gamma    80.1625

_space_group_name_H-M_alt    "P 1"
_space_group_IT_number       1

loop_
  _space_group_symop_operation_xyz
  'x, y, z'

loop_
  _atom_site_type_symbol
  _atom_site_label
  _atom_site_symmetry_multiplicity
  _atom_site_fract_x
  _atom_site_fract_y
  _atom_site_fract_z
  _atom_site_occupancy
  Hf  Hf1       1.0  0.19522  0.11194  0.36708  1.0000
  Hf  Hf2       1.0  0.19373  0.12773  0.86587  1.0000
  Hf  Hf3       1.0  0.19862  0.61026  0.37057  1.0000
  Hf  Hf4       1.0  0.19535  0.60467  0.88385  1.0000
  Hf  Hf5       1.0  0.44566  0.09822  0.38454  1.0000
  Hf  Hf6       1.0  0.44720  0.10083  0.87348  1.0000
  Hf  Hf7       1.0  0.44757  0.60921  0.36982  1.0000
  Hf  Hf8       1.0  0.44792  0.60908  0.86401  1.0000
  Hf  Hf9       1.0  0.69711  0.09638  0.38426  1.0000
  Hf  Hf10      1.0  0.69545  0.09499  0.88612  1.0000
  Hf  Hf11      1.0  0.69465  0.59937  0.38950  1.0000
  Hf  Hf12      1.0  0.69876  0.60428  0.87364  1.0000
  Hf  Hf13      1.0  0.94424  0.11328  0.37282  1.0000
  Hf  Hf14      1.0  0.94773  0.11554  0.86993  1.0000
  Hf  Hf15      1.0  0.94649  0.61279  0.37515  1.0000
  Hf  Hf16      1.0  0.94729  0.61562  0.87065  1.0000
  Hf  Hf17      1.0  0.05141  0.39771  0.12772  1.0000
  Hf  Hf18      1.0  0.05075  0.40020  0.62137  1.0000
  Hf  Hf19      1.0  0.05487  0.90249  0.12101  1.0000
  Hf  Hf20      1.0  0.05582  0.90107  0.62031  1.0000
  Hf  Hf21      1.0  0.30455  0.39091  0.12083  1.0000
  Hf  Hf22      1.0  0.30018  0.39488  0.62733  1.0000
  Hf  Hf23      1.0  0.30694  0.89509  0.11041  1.0000
  Hf  Hf24      1.0  0.30537  0.88872  0.62668  1.0000
  Hf  Hf25      1.0  0.55363  0.38504  0.13472  1.0000
  Hf  Hf26      1.0  0.55035  0.38312  0.63023  1.0000
  Hf  Hf27      1.0  0.55296  0.88626  0.13280  1.0000
  Hf  Hf28      1.0  0.55037  0.88617  0.62927  1.0000
  Hf  Hf29      1.0  0.80114  0.40057  0.12149  1.0000
  Hf  Hf30      1.0  0.80054  0.38995  0.63098  1.0000
  Hf  Hf31      1.0  0.80392  0.89723  0.12562  1.0000
  Hf  Hf32      1.0  0.80523  0.89020  0.62660  1.0000
  Hf  Hf33      1.0  0.05203  0.18436  0.41945  1.0000
  Hf  Hf34      1.0  0.05640  0.19139  0.91054  1.0000
  Hf  Hf35      1.0  0.06059  0.69753  0.40442  1.0000
  Hf  Hf36      1.0  0.05360  0.68231  0.92166  1.0000
  Hf  Hf37      1.0  0.30723  0.18114  0.41036  1.0000
  Hf  Hf38      1.0  0.30631  0.18613  0.91069  1.0000
  Hf  Hf39      1.0  0.31082  0.68325  0.41046  1.0000
  Hf  Hf40      1.0  0.30562  0.68544  0.91578  1.0000
  Hf  Hf41      1.0  0.55421  0.17810  0.42591  1.0000
  Hf  Hf42      1.0  0.55403  0.17127  0.92462  1.0000
  Hf  Hf43      1.0  0.55826  0.67161  0.41547  1.0000
  Hf  Hf44      1.0  0.55771  0.67773  0.91233  1.0000
  Hf  Hf45      1.0  0.80571  0.18295  0.41572  1.0000
  Hf  Hf46      1.0  0.80666  0.18774  0.90881  1.0000
  Hf  Hf47      1.0  0.80897  0.68599  0.41608  1.0000
  Hf  Hf48      1.0  0.80763  0.68215  0.91660  1.0000
  Hf  Hf49      1.0  0.15645  0.39119  0.33127  1.0000
  Hf  Hf50      1.0  0.15453  0.39908  0.83309  1.0000
  Hf  Hf51      1.0  0.16253  0.89646  0.32763  1.0000
  Hf  Hf52      1.0  0.15970  0.89000  0.83035  1.0000
  Hf  Hf53      1.0  0.40813  0.38892  0.33440  1.0000
  Hf  Hf54      1.0  0.40907  0.38108  0.83547  1.0000
  Hf  Hf55      1.0  0.40703  0.89585  0.33111  1.0000
  Hf  Hf56      1.0  0.40897  0.88297  0.83380  1.0000
  Hf  Hf57      1.0  0.65581  0.38238  0.33662  1.0000
  Hf  Hf58      1.0  0.66160  0.37972  0.83572  1.0000
  Hf  Hf59      1.0  0.65887  0.88562  0.33755  1.0000
  Hf  Hf60      1.0  0.65935  0.88283  0.84415  1.0000
  Hf  Hf61      1.0  0.90589  0.39199  0.33263  1.0000
  Hf  Hf62      1.0  0.90492  0.38978  0.84198  1.0000
  Hf  Hf63      1.0  0.91027  0.89061  0.33428  1.0000
  Hf  Hf64      1.0  0.90867  0.89883  0.83334  1.0000
  Hf  Hf65      1.0  0.19523  0.32117  0.08071  1.0000
  Hf  Hf66      1.0  0.18990  0.32437  0.57694  1.0000
  Hf  Hf67      1.0  0.19443  0.81886  0.08199  1.0000
  Hf  Hf68      1.0  0.19401  0.81076  0.58651  1.0000
  Hf  Hf69      1.0  0.44610  0.30667  0.08540  1.0000
  Hf  Hf70      1.0  0.43974  0.31643  0.58758  1.0000
  Hf  Hf71      1.0  0.44635  0.81453  0.08207  1.0000
  Hf  Hf72      1.0  0.44528  0.81288  0.57784  1.0000
  Hf  Hf73      1.0  0.69679  0.31093  0.08625  1.0000
  Hf  Hf74      1.0  0.69177  0.30430  0.59837  1.0000
  Hf  Hf75      1.0  0.69540  0.81277  0.08875  1.0000
  Hf  Hf76      1.0  0.69181  0.80460  0.59437  1.0000
  Hf  Hf77      1.0  0.94318  0.32612  0.07917  1.0000
  Hf  Hf78      1.0  0.94281  0.31761  0.57974  1.0000
  Hf  Hf79      1.0  0.94645  0.83185  0.07507  1.0000
  Hf  Hf80      1.0  0.94742  0.82726  0.57735  1.0000
  Hf  Hf81      1.0  0.09091  0.11399  0.16373  1.0000
  Hf  Hf82      1.0  0.09222  0.11631  0.66456  1.0000
  Hf  Hf83      1.0  0.09128  0.62277  0.16533  1.0000
  Hf  Hf84      1.0  0.08782  0.61270  0.66882  1.0000
  Hf  Hf85      1.0  0.34314  0.11034  0.16211  1.0000
  Hf  Hf86      1.0  0.34073  0.11223  0.66351  1.0000
  Hf  Hf87      1.0  0.34344  0.60883  0.16388  1.0000
  Hf  Hf88      1.0  0.33761  0.60905  0.67346  1.0000
  Hf  Hf89      1.0  0.58935  0.10187  0.17199  1.0000
  Hf  Hf90      1.0  0.59145  0.10871  0.67097  1.0000
  Hf  Hf91      1.0  0.59336  0.61063  0.15995  1.0000
  Hf  Hf92      1.0  0.59259  0.59762  0.66849  1.0000
  Hf  Hf93      1.0  0.83974  0.11458  0.16473  1.0000
  Hf  Hf94      1.0  0.83990  0.11193  0.66646  1.0000
  Hf  Hf95      1.0  0.84157  0.61414  0.16470  1.0000
  Hf  Hf96      1.0  0.84360  0.60802  0.67747  1.0000
  F   F1        1.0  0.07608  0.13969  0.29997  1.0000
  F   F2        1.0  0.08308  0.12890  0.80429  1.0000
  F   F3        1.0  0.07637  0.63660  0.30447  1.0000
  F   F4        1.0  0.07682  0.63797  0.80360  1.0000
  F   F5        1.0  0.33098  0.13471  0.29487  1.0000
  F   F6        1.0  0.33033  0.12916  0.80034  1.0000
  F   F7        1.0  0.33168  0.62968  0.29837  1.0000
  F   F8        1.0  0.32343  0.63375  0.80719  1.0000
  F   F9        1.0  0.57643  0.10712  0.31329  1.0000
  F   F10       1.0  0.58137  0.12283  0.81319  1.0000
  F   F11       1.0  0.58362  0.62420  0.30235  1.0000
  F   F12       1.0  0.58336  0.62117  0.80529  1.0000
  F   F13       1.0  0.82929  0.12870  0.30365  1.0000
  F   F14       1.0  0.82756  0.13383  0.80027  1.0000
  F   F15       1.0  0.83074  0.61536  0.30705  1.0000
  F   F16       1.0  0.83419  0.60415  0.81748  1.0000
  F   F17       1.0  0.17852  0.34010  0.44825  1.0000
  F   F18       1.0  0.19192  0.35853  0.93354  1.0000
  F   F19       1.0  0.18820  0.84607  0.43982  1.0000
  F   F20       1.0  0.18885  0.84060  0.93782  1.0000
  F   F21       1.0  0.42753  0.33899  0.46002  1.0000
  F   F22       1.0  0.42989  0.33118  0.95399  1.0000
  F   F23       1.0  0.43415  0.84092  0.44249  1.0000
  F   F24       1.0  0.43229  0.83332  0.95163  1.0000
  F   F25       1.0  0.67458  0.33163  0.46055  1.0000
  F   F26       1.0  0.69248  0.33275  0.93792  1.0000
  F   F27       1.0  0.68318  0.83338  0.45111  1.0000
  F   F28       1.0  0.68890  0.83945  0.95202  1.0000
  F   F29       1.0  0.93959  0.35092  0.44472  1.0000
  F   F30       1.0  0.93515  0.34069  0.94895  1.0000
  F   F31       1.0  0.93966  0.84023  0.44756  1.0000
  F   F32       1.0  0.92858  0.85225  0.95353  1.0000
  F   F33       1.0  0.17662  0.38365  0.17999  1.0000
  F   F34       1.0  0.16081  0.38248  0.70000  1.0000
  F   F35       1.0  0.17147  0.86185  0.19999  1.0000
  F   F36       1.0  0.17159  0.87207  0.69678  1.0000
  F   F37       1.0  0.42424  0.37301  0.20015  1.0000
  F   F38       1.0  0.42198  0.38363  0.68991  1.0000
  F   F39       1.0  0.42381  0.87448  0.19020  1.0000
  F   F40       1.0  0.42053  0.86389  0.69600  1.0000
  F   F41       1.0  0.66646  0.35349  0.20125  1.0000
  F   F42       1.0  0.67965  0.36547  0.69525  1.0000
  F   F43       1.0  0.67362  0.86496  0.20433  1.0000
  F   F44       1.0  0.67176  0.86369  0.70570  1.0000
  F   F45       1.0  0.92245  0.37029  0.19671  1.0000
  F   F46       1.0  0.91743  0.35997  0.70440  1.0000
  F   F47       1.0  0.92587  0.88714  0.19009  1.0000
  F   F48       1.0  0.92159  0.87803  0.69971  1.0000
  F   F49       1.0  0.05943  0.15592  0.05888  1.0000
  F   F50       1.0  0.06784  0.15949  0.54931  1.0000
  F   F51       1.0  0.06134  0.66442  0.05900  1.0000
  F   F52       1.0  0.05735  0.66240  0.55408  1.0000
  F   F53       1.0  0.31480  0.16428  0.04803  1.0000
  F   F54       1.0  0.30971  0.15608  0.56362  1.0000
  F   F55       1.0  0.31621  0.65756  0.05268  1.0000
  F   F56       1.0  0.31790  0.66796  0.53771  1.0000
  F   F57       1.0  0.56827  0.16565  0.05153  1.0000
  F   F58       1.0  0.56455  0.15581  0.55626  1.0000
  F   F59       1.0  0.56760  0.65329  0.05145  1.0000
  F   F60       1.0  0.57022  0.64804  0.54418  1.0000
  F   F61       1.0  0.81149  0.15785  0.05280  1.0000
  F   F62       1.0  0.80787  0.15156  0.55185  1.0000
  F   F63       1.0  0.81286  0.65983  0.05296  1.0000
  F   F64       1.0  0.81413  0.65335  0.55781  1.0000
  F   F65       1.0  0.20749  0.20590  0.21008  1.0000
  F   F66       1.0  0.20380  0.22040  0.70728  1.0000
  F   F67       1.0  0.20613  0.70021  0.20912  1.0000
  F   F68       1.0  0.20857  0.69450  0.69465  1.0000
  F   F69       1.0  0.45522  0.20137  0.21653  1.0000
  F   F70       1.0  0.45892  0.19345  0.71174  1.0000
  F   F71       1.0  0.45808  0.70503  0.21020  1.0000
  F   F72       1.0  0.45623  0.69425  0.70383  1.0000
  F   F73       1.0  0.70175  0.18513  0.22704  1.0000
  F   F74       1.0  0.70366  0.19116  0.72469  1.0000
  F   F75       1.0  0.70464  0.69728  0.21596  1.0000
  F   F76       1.0  0.70954  0.70418  0.70973  1.0000
  F   F77       1.0  0.94933  0.19765  0.21787  1.0000
  F   F78       1.0  0.95750  0.20819  0.70921  1.0000
  F   F79       1.0  0.95152  0.71538  0.20070  1.0000
  F   F80       1.0  0.95138  0.71495  0.71520  1.0000
  F   F81       1.0  0.14643  0.09353  0.02991  1.0000
  F   F82       1.0  0.14674  0.08057  0.54203  1.0000
  F   F83       1.0  0.15299  0.61234  0.03207  1.0000
  F   F84       1.0  0.14176  0.59073  0.53696  1.0000
  F   F85       1.0  0.40166  0.10275  0.02414  1.0000
  F   F86       1.0  0.40332  0.08531  0.54152  1.0000
  F   F87       1.0  0.39957  0.60370  0.02588  1.0000
  F   F88       1.0  0.39514  0.58697  0.54957  1.0000
  F   F89       1.0  0.64683  0.09294  0.03865  1.0000
  F   F90       1.0  0.64687  0.09616  0.53816  1.0000
  F   F91       1.0  0.65258  0.58465  0.03517  1.0000
  F   F92       1.0  0.65108  0.57414  0.54502  1.0000
  F   F93       1.0  0.89575  0.09624  0.03560  1.0000
  F   F94       1.0  0.89768  0.07898  0.54431  1.0000
  F   F95       1.0  0.90077  0.57656  0.04175  1.0000
  F   F96       1.0  0.89803  0.61634  0.52977  1.0000
  F   F97       1.0  0.15060  0.20099  0.11987  1.0000
  F   F98       1.0  0.15376  0.19639  0.62352  1.0000
  F   F99       1.0  0.15109  0.70874  0.12827  1.0000
  F   F100      1.0  0.15324  0.68881  0.62010  1.0000
  F   F101      1.0  0.40495  0.19096  0.11998  1.0000
  F   F102      1.0  0.40000  0.19412  0.63285  1.0000
  F   F103      1.0  0.40707  0.68658  0.13385  1.0000
  F   F104      1.0  0.39634  0.70168  0.62789  1.0000
  F   F105      1.0  0.65372  0.18611  0.13483  1.0000
  F   F106      1.0  0.65742  0.18988  0.62559  1.0000
  F   F107      1.0  0.65041  0.69857  0.12482  1.0000
  F   F108      1.0  0.66123  0.67619  0.62909  1.0000
  F   F109      1.0  0.89759  0.19728  0.12969  1.0000
  F   F110      1.0  0.90236  0.20132  0.60663  1.0000
  F   F111      1.0  0.89753  0.69164  0.13158  1.0000
  F   F112      1.0  0.89707  0.70574  0.62581  1.0000
  F   F113      1.0  0.09984  0.30823  0.35539  1.0000
  F   F114      1.0  0.08906  0.30754  0.89277  1.0000
  F   F115      1.0  0.10161  0.81940  0.37056  1.0000
  F   F116      1.0  0.10056  0.78942  0.87683  1.0000
  F   F117      1.0  0.34692  0.29654  0.37095  1.0000
  F   F118      1.0  0.34940  0.30920  0.86028  1.0000
  F   F119      1.0  0.35222  0.80739  0.35881  1.0000
  F   F120      1.0  0.35136  0.79267  0.86251  1.0000
  F   F121      1.0  0.60099  0.29247  0.38031  1.0000
  F   F122      1.0  0.60138  0.27892  0.85669  1.0000
  F   F123      1.0  0.59611  0.81066  0.38022  1.0000
  F   F124      1.0  0.59973  0.80804  0.87602  1.0000
  F   F125      1.0  0.85281  0.29693  0.37281  1.0000
  F   F126      1.0  0.84599  0.30507  0.87824  1.0000
  F   F127      1.0  0.85936  0.79855  0.35887  1.0000
  F   F128      1.0  0.85423  0.80285  0.88459  1.0000
  F   F129      1.0  0.07177  0.25830  0.12880  1.0000
  F   F130      1.0  0.06013  0.24932  0.65092  1.0000
  F   F131      1.0  0.06521  0.76231  0.14254  1.0000
  F   F132      1.0  0.05930  0.75019  0.64231  1.0000
  F   F133      1.0  0.32026  0.25041  0.13240  1.0000
  F   F134      1.0  0.31426  0.25971  0.63520  1.0000
  F   F135      1.0  0.32577  0.75021  0.12644  1.0000
  F   F136      1.0  0.30703  0.74884  0.64915  1.0000
  F   F137      1.0  0.55735  0.23592  0.17029  1.0000
  F   F138      1.0  0.56873  0.24144  0.64582  1.0000
  F   F139      1.0  0.55928  0.74693  0.14470  1.0000
  F   F140      1.0  0.57822  0.73664  0.63587  1.0000
  F   F141      1.0  0.81615  0.25364  0.14742  1.0000
  F   F142      1.0  0.81594  0.24097  0.63615  1.0000
  F   F143      1.0  0.81192  0.75316  0.14540  1.0000
  F   F144      1.0  0.81287  0.74275  0.65914  1.0000
  F   F145      1.0  0.12396  0.37843  0.11310  1.0000
  F   F146      1.0  0.12187  0.37533  0.60759  1.0000
  F   F147      1.0  0.12765  0.88590  0.08713  1.0000
  F   F148      1.0  0.12369  0.86133  0.61747  1.0000
  F   F149      1.0  0.37632  0.36833  0.10669  1.0000
  F   F150      1.0  0.37192  0.37398  0.61122  1.0000
  F   F151      1.0  0.37276  0.87630  0.10132  1.0000
  F   F152      1.0  0.37858  0.88734  0.59062  1.0000
  F   F153      1.0  0.62478  0.37134  0.10190  1.0000
  F   F154      1.0  0.61866  0.35228  0.63944  1.0000
  F   F155      1.0  0.62667  0.86981  0.11050  1.0000
  F   F156      1.0  0.61987  0.85417  0.63297  1.0000
  F   F157      1.0  0.87390  0.37403  0.10491  1.0000
  F   F158      1.0  0.86966  0.36308  0.61262  1.0000
  F   F159      1.0  0.87119  0.85457  0.13174  1.0000
  F   F160      1.0  0.87584  0.87327  0.60922  1.0000
  F   F161      1.0  0.17683  0.24475  0.36809  1.0000
  F   F162      1.0  0.17444  0.25284  0.88026  1.0000
  F   F163      1.0  0.19029  0.75418  0.35327  1.0000
  F   F164      1.0  0.19408  0.74769  0.83501  1.0000
  F   F165      1.0  0.42993  0.24248  0.37475  1.0000
  F   F166      1.0  0.43867  0.25278  0.84754  1.0000
  F   F167      1.0  0.43664  0.75538  0.35436  1.0000
  F   F168      1.0  0.44238  0.75486  0.84380  1.0000
  F   F169      1.0  0.68910  0.25257  0.34808  1.0000
  F   F170      1.0  0.68189  0.24356  0.86323  1.0000
  F   F171      1.0  0.68685  0.73646  0.37011  1.0000
  F   F172      1.0  0.68891  0.73967  0.86588  1.0000
  F   F173      1.0  0.93847  0.24536  0.36139  1.0000
  F   F174      1.0  0.92972  0.25173  0.87118  1.0000
  F   F175      1.0  0.94456  0.75868  0.33186  1.0000
  F   F176      1.0  0.94307  0.75123  0.86138  1.0000
  F   F177      1.0  0.12700  0.14411  0.37415  1.0000
  F   F178      1.0  0.12716  0.14689  0.87517  1.0000
  F   F179      1.0  0.12889  0.64940  0.36011  1.0000
  F   F180      1.0  0.12383  0.61554  0.90406  1.0000
  F   F181      1.0  0.37792  0.11838  0.39130  1.0000
  F   F182      1.0  0.37784  0.13592  0.88011  1.0000
  F   F183      1.0  0.37613  0.62979  0.39466  1.0000
  F   F184      1.0  0.37718  0.63146  0.88690  1.0000
  F   F185      1.0  0.62765  0.12048  0.39426  1.0000
  F   F186      1.0  0.62390  0.09981  0.90649  1.0000
  F   F187      1.0  0.62248  0.61891  0.39772  1.0000
  F   F188      1.0  0.62933  0.64895  0.87929  1.0000
  F   F189      1.0  0.87497  0.12841  0.39718  1.0000
  F   F190      1.0  0.87696  0.16065  0.86368  1.0000
  F   F191      1.0  0.87931  0.63536  0.38806  1.0000
  F   F192      1.0  0.87691  0.64045  0.89857  1.0000
  F   F193      1.0  0.00351  0.37481  0.08063  1.0000
  F   F194      1.0  0.00555  0.36813  0.57001  1.0000
  F   F195      1.0  0.01137  0.86312  0.06860  1.0000
  F   F196      1.0  0.00898  0.87266  0.57216  1.0000
  F   F197      1.0  0.25642  0.34912  0.08119  1.0000
  F   F198      1.0  0.24840  0.36313  0.58834  1.0000
  F   F199      1.0  0.25240  0.85788  0.08228  1.0000
  F   F200      1.0  0.25521  0.86280  0.57870  1.0000
  F   F201      1.0  0.51038  0.35410  0.06835  1.0000
  F   F202      1.0  0.51364  0.34766  0.56690  1.0000
  F   F203      1.0  0.50882  0.87103  0.06022  1.0000
  F   F204      1.0  0.50484  0.84128  0.60431  1.0000
  F   F205      1.0  0.75896  0.35101  0.08601  1.0000
  F   F206      1.0  0.76094  0.34633  0.58592  1.0000
  F   F207      1.0  0.75605  0.85820  0.08156  1.0000
  F   F208      1.0  0.76318  0.86760  0.56154  1.0000
  F   F209      1.0  0.06990  0.49154  0.16704  1.0000
  F   F210      1.0  0.06366  0.48928  0.67533  1.0000
  F   F211      1.0  0.06705  0.99574  0.17125  1.0000
  F   F212      1.0  0.06278  0.99496  0.67576  1.0000
  F   F213      1.0  0.31764  0.48828  0.16815  1.0000
  F   F214      1.0  0.31667  0.49366  0.66830  1.0000
  F   F215      1.0  0.32437  0.98749  0.16723  1.0000
  F   F216      1.0  0.31849  0.98867  0.67837  1.0000
  F   F217      1.0  0.57189  0.49343  0.15640  1.0000
  F   F218      1.0  0.56581  0.46698  0.69028  1.0000
  F   F219      1.0  0.57127  0.98789  0.16700  1.0000
  F   F220      1.0  0.56615  0.98843  0.66505  1.0000
  F   F221      1.0  0.81732  0.48710  0.18391  1.0000
  F   F222      1.0  0.81363  0.48230  0.69517  1.0000
  F   F223      1.0  0.81051  0.98983  0.18628  1.0000
  F   F224      1.0  0.81203  0.98936  0.67974  1.0000
  F   F225      1.0  0.24084  0.15399  0.41321  1.0000
  F   F226      1.0  0.23830  0.14312  0.92878  1.0000
  F   F227      1.0  0.24149  0.63075  0.43033  1.0000
  F   F228      1.0  0.24317  0.64006  0.93106  1.0000
  F   F229      1.0  0.49516  0.13733  0.41515  1.0000
  F   F230      1.0  0.49331  0.13760  0.91720  1.0000
  F   F231      1.0  0.49413  0.64339  0.41665  1.0000
  F   F232      1.0  0.49347  0.63284  0.92351  1.0000
  F   F233      1.0  0.74213  0.14283  0.42552  1.0000
  F   F234      1.0  0.74032  0.13418  0.93051  1.0000
  F   F235      1.0  0.73677  0.62408  0.44832  1.0000
  F   F236      1.0  0.74404  0.63837  0.92313  1.0000
  F   F237      1.0  0.99035  0.12844  0.43615  1.0000
  F   F238      1.0  0.99418  0.16067  0.90687  1.0000
  F   F239      1.0  0.99585  0.64184  0.42491  1.0000
  F   F240      1.0  0.99076  0.63851  0.93878  1.0000
  F   F241      1.0  0.18593  0.02340  0.30087  1.0000
  F   F242      1.0  0.17844  0.02115  0.82544  1.0000
  F   F243      1.0  0.18008  0.51356  0.31700  1.0000
  F   F244      1.0  0.18458  0.51704  0.82966  1.0000
  F   F245      1.0  0.42957  0.01287  0.32715  1.0000
  F   F246      1.0  0.43082  0.00604  0.83712  1.0000
  F   F247      1.0  0.43625  0.51028  0.32073  1.0000
  F   F248      1.0  0.43562  0.51574  0.80618  1.0000
  F   F249      1.0  0.68341  0.99744  0.33516  1.0000
  F   F250      1.0  0.68272  0.00830  0.81749  1.0000
  F   F251      1.0  0.68158  0.51213  0.33410  1.0000
  F   F252      1.0  0.68367  0.51229  0.82766  1.0000
  F   F253      1.0  0.92596  0.01604  0.33651  1.0000
  F   F254      1.0  0.92840  0.02401  0.82399  1.0000
  F   F255      1.0  0.93084  0.52339  0.31996  1.0000
  F   F256      1.0  0.92085  0.53116  0.83044  1.0000
  F   F257      1.0  0.99896  0.25278  0.00527  1.0000
  F   F258      1.0  0.99926  0.24506  0.50567  1.0000
  F   F259      1.0  0.99827  0.76175  0.99434  1.0000
  F   F260      1.0  0.00233  0.75843  0.49855  1.0000
  F   F261      1.0  0.25149  0.25088  0.99466  1.0000
  F   F262      1.0  0.24977  0.25691  0.49810  1.0000
  F   F263      1.0  0.25337  0.76192  0.99206  1.0000
  F   F264      1.0  0.25246  0.76471  0.47870  1.0000
  F   F265      1.0  0.49744  0.23986  0.00132  1.0000
  F   F266      1.0  0.49442  0.22676  0.51801  1.0000
  F   F267      1.0  0.50629  0.75871  0.98734  1.0000
  F   F268      1.0  0.50261  0.74079  0.50111  1.0000
  F   F269      1.0  0.74893  0.24269  0.00615  1.0000
  F   F270      1.0  0.75012  0.26143  0.48075  1.0000
  F   F271      1.0  0.75550  0.75600  0.99164  1.0000
  F   F272      1.0  0.75144  0.74774  0.50280  1.0000
  F   F273      1.0  0.12831  0.00199  0.23766  1.0000
  F   F274      1.0  0.12650  0.00409  0.74444  1.0000
  F   F275      1.0  0.12414  0.51399  0.24290  1.0000
  F   F276      1.0  0.12367  0.51650  0.75286  1.0000
  F   F277      1.0  0.36469  0.98747  0.26529  1.0000
  F   F278      1.0  0.38247  0.00195  0.73784  1.0000
  F   F279      1.0  0.37579  0.49571  0.25271  1.0000
  F   F280      1.0  0.37711  0.50700  0.74220  1.0000
  F   F281      1.0  0.62897  0.99363  0.25219  1.0000
  F   F282      1.0  0.62634  0.00313  0.75314  1.0000
  F   F283      1.0  0.62239  0.49081  0.24648  1.0000
  F   F284      1.0  0.61989  0.48225  0.76126  1.0000
  F   F285      1.0  0.87130  0.99888  0.25394  1.0000
  F   F286      1.0  0.87010  0.00753  0.75782  1.0000
  F   F287      1.0  0.87419  0.48994  0.25142  1.0000
  F   F288      1.0  0.88024  0.49482  0.73982  1.0000
  F   F289      1.0  0.04509  0.03600  0.01722  1.0000
  F   F290      1.0  0.04793  0.03768  0.51519  1.0000
  F   F291      1.0  0.04308  0.52973  0.01672  1.0000
  F   F292      1.0  0.05027  0.52842  0.51200  1.0000
  F   F293      1.0  0.29795  0.03920  0.01393  1.0000
  F   F294      1.0  0.29048  0.03180  0.52809  1.0000
  F   F295      1.0  0.29085  0.51916  0.02380  1.0000
  F   F296      1.0  0.29444  0.53361  0.51836  1.0000
  F   F297      1.0  0.53546  0.02279  0.04728  1.0000
  F   F298      1.0  0.53493  0.03842  0.52747  1.0000
  F   F299      1.0  0.55345  0.51823  0.00764  1.0000
  F   F300      1.0  0.54052  0.52319  0.51935  1.0000
  F   F301      1.0  0.79368  0.02894  0.01115  1.0000
  F   F302      1.0  0.79731  0.02403  0.52195  1.0000
  F   F303      1.0  0.78923  0.53480  0.02692  1.0000
  F   F304      1.0  0.79872  0.52547  0.52357  1.0000
  F   F305      1.0  0.23270  0.39676  0.23083  1.0000
  F   F306      1.0  0.23138  0.41770  0.72395  1.0000
  F   F307      1.0  0.23747  0.93716  0.20503  1.0000
  F   F308      1.0  0.23863  0.91325  0.71267  1.0000
  F   F309      1.0  0.48463  0.39997  0.24369  1.0000
  F   F310      1.0  0.48477  0.41955  0.71481  1.0000
  F   F311      1.0  0.48424  0.90922  0.23240  1.0000
  F   F312      1.0  0.48279  0.92739  0.72317  1.0000
  F   F313      1.0  0.73483  0.42096  0.21652  1.0000
  F   F314      1.0  0.73519  0.42481  0.71536  1.0000
  F   F315      1.0  0.73671  0.90162  0.23915  1.0000
  F   F316      1.0  0.73818  0.89121  0.73937  1.0000
  F   F317      1.0  0.98258  0.42396  0.23178  1.0000
  F   F318      1.0  0.97972  0.43040  0.72856  1.0000
  F   F319      1.0  0.98666  0.92022  0.22650  1.0000
  F   F320      1.0  0.98588  0.92905  0.72086  1.0000
  F   F321      1.0  0.20432  0.46522  0.46937  1.0000
  F   F322      1.0  0.21087  0.47730  0.97722  1.0000
  F   F323      1.0  0.20482  0.97922  0.46321  1.0000
  F   F324      1.0  0.20312  0.96584  0.98811  1.0000
  F   F325      1.0  0.45594  0.47071  0.46995  1.0000
  F   F326      1.0  0.45989  0.47048  0.97050  1.0000
  F   F327      1.0  0.46702  0.96099  0.47286  1.0000
  F   F328      1.0  0.45578  0.95765  0.98170  1.0000
  F   F329      1.0  0.70747  0.44957  0.49704  1.0000
  F   F330      1.0  0.71290  0.45504  0.97504  1.0000
  F   F331      1.0  0.70463  0.95927  0.48687  1.0000
  F   F332      1.0  0.71229  0.96396  0.98312  1.0000
  F   F333      1.0  0.95051  0.48034  0.48332  1.0000
  F   F334      1.0  0.95781  0.47860  0.97058  1.0000
  F   F335      1.0  0.96404  0.97089  0.47127  1.0000
  F   F336      1.0  0.95283  0.97406  0.97291  1.0000
  F   F337      1.0  0.01577  0.09609  0.27016  1.0000
  F   F338      1.0  0.01364  0.07996  0.77935  1.0000
  F   F339      1.0  0.01441  0.58628  0.27921  1.0000
  F   F340      1.0  0.01462  0.57466  0.77263  1.0000
  F   F341      1.0  0.26923  0.09600  0.26437  1.0000
  F   F342      1.0  0.26179  0.09730  0.77917  1.0000
  F   F343      1.0  0.26918  0.58364  0.26953  1.0000
  F   F344      1.0  0.26412  0.59636  0.77315  1.0000
  F   F345      1.0  0.51404  0.07262  0.26734  1.0000
  F   F346      1.0  0.51871  0.08933  0.76928  1.0000
  F   F347      1.0  0.51971  0.58649  0.26659  1.0000
  F   F348      1.0  0.51729  0.58544  0.77492  1.0000
  F   F349      1.0  0.77058  0.07466  0.28240  1.0000
  F   F350      1.0  0.76440  0.07960  0.78098  1.0000
  F   F351      1.0  0.75944  0.57796  0.28746  1.0000
  F   F352      1.0  0.76555  0.57593  0.78598  1.0000
  F   F353      1.0  0.09727  0.41081  0.45789  1.0000
  F   F354      1.0  0.10137  0.40761  0.95744  1.0000
  F   F355      1.0  0.10455  0.91738  0.46284  1.0000
  F   F356      1.0  0.10042  0.89998  0.95030  1.0000
  F   F357      1.0  0.34961  0.41109  0.46010  1.0000
  F   F358      1.0  0.35314  0.41150  0.95535  1.0000
  F   F359      1.0  0.34783  0.91084  0.46461  1.0000
  F   F360      1.0  0.34268  0.91255  0.95431  1.0000
  F   F361      1.0  0.59676  0.40471  0.45762  1.0000
  F   F362      1.0  0.60103  0.37682  0.96486  1.0000
  F   F363      1.0  0.59978  0.91156  0.47268  1.0000
  F   F364      1.0  0.60390  0.90796  0.97065  1.0000
  F   F365      1.0  0.85202  0.40021  0.46232  1.0000
  F   F366      1.0  0.84549  0.40589  0.96995  1.0000
  F   F367      1.0  0.85248  0.89374  0.47178  1.0000
  F   F368      1.0  0.84837  0.92117  0.96851  1.0000
  F   F369      1.0  0.03957  0.29811  0.28820  1.0000
  F   F370      1.0  0.04440  0.30872  0.78725  1.0000
  F   F371      1.0  0.04796  0.80879  0.28367  1.0000
  F   F372      1.0  0.04591  0.80553  0.78968  1.0000
  F   F373      1.0  0.29764  0.30357  0.28392  1.0000
  F   F374      1.0  0.29170  0.30667  0.78200  1.0000
  F   F375      1.0  0.29852  0.80498  0.27187  1.0000
  F   F376      1.0  0.29318  0.79711  0.79014  1.0000
  F   F377      1.0  0.54574  0.30392  0.30126  1.0000
  F   F378      1.0  0.53304  0.29802  0.78772  1.0000
  F   F379      1.0  0.55162  0.80987  0.28320  1.0000
  F   F380      1.0  0.54184  0.79128  0.78882  1.0000
  F   F381      1.0  0.80304  0.30139  0.28413  1.0000
  F   F382      1.0  0.78410  0.29538  0.80490  1.0000
  F   F383      1.0  0.80072  0.79632  0.29304  1.0000
  F   F384      1.0  0.80310  0.80078  0.79187  1.0000
