data_image0
_chemical_formula_structural       Hf96F384
_chemical_formula_sum              "Hf96 F384"
_cell_length_a       31.011
_cell_length_b       15.5031
_cell_length_c       15.496
_cell_angle_alpha    63.342
_cell_angle_beta     63.342
_cell_angle_gamma    80.1625

_space_group_name_H-M_alt    "P 1"
_space_group_IT_number       1

loop_
  _space_group_symop_operation_xyz
  'x, y, z'

loop_
  _atom_site_type_symbol
  _atom_site_label
  _atom_site_symmetry_multiplicity
  _atom_site_fract_x
  _atom_site_fract_y
  _atom_site_fract_z
  _atom_site_occupancy
  Hf  Hf1       1.0  0.19536  0.10729  0.37479  1.0000
  Hf  Hf2       1.0  0.19499  0.10360  0.88649  1.0000
  Hf  Hf3       1.0  0.19688  0.60718  0.37379  1.0000
  Hf  Hf4       1.0  0.19153  0.60740  0.88191  1.0000
  Hf  Hf5       1.0  0.44513  0.10357  0.37717  1.0000
  Hf  Hf6       1.0  0.45055  0.10999  0.86345  1.0000
  Hf  Hf7       1.0  0.44938  0.60985  0.37032  1.0000
  Hf  Hf8       1.0  0.44592  0.60243  0.88123  1.0000
  Hf  Hf9       1.0  0.69276  0.10836  0.38366  1.0000
  Hf  Hf10      1.0  0.69890  0.10908  0.87366  1.0000
  Hf  Hf11      1.0  0.69780  0.61570  0.37144  1.0000
  Hf  Hf12      1.0  0.69598  0.61257  0.87111  1.0000
  Hf  Hf13      1.0  0.94791  0.10666  0.37134  1.0000
  Hf  Hf14      1.0  0.94861  0.10629  0.86692  1.0000
  Hf  Hf15      1.0  0.94757  0.61790  0.37234  1.0000
  Hf  Hf16      1.0  0.94622  0.60878  0.87213  1.0000
  Hf  Hf17      1.0  0.05140  0.39255  0.13289  1.0000
  Hf  Hf18      1.0  0.05197  0.39074  0.62015  1.0000
  Hf  Hf19      1.0  0.05559  0.88925  0.12710  1.0000
  Hf  Hf20      1.0  0.05658  0.89028  0.62530  1.0000
  Hf  Hf21      1.0  0.30344  0.39171  0.12512  1.0000
  Hf  Hf22      1.0  0.30486  0.39028  0.62326  1.0000
  Hf  Hf23      1.0  0.30578  0.88832  0.12518  1.0000
  Hf  Hf24      1.0  0.30264  0.88796  0.63099  1.0000
  Hf  Hf25      1.0  0.55480  0.39573  0.11774  1.0000
  Hf  Hf26      1.0  0.55296  0.39238  0.61912  1.0000
  Hf  Hf27      1.0  0.55122  0.89302  0.12821  1.0000
  Hf  Hf28      1.0  0.55363  0.89276  0.61948  1.0000
  Hf  Hf29      1.0  0.80377  0.39897  0.12834  1.0000
  Hf  Hf30      1.0  0.80408  0.39096  0.62368  1.0000
  Hf  Hf31      1.0  0.80462  0.89665  0.12107  1.0000
  Hf  Hf32      1.0  0.80158  0.89488  0.62270  1.0000
  Hf  Hf33      1.0  0.05440  0.18366  0.42233  1.0000
  Hf  Hf34      1.0  0.05563  0.18051  0.91627  1.0000
  Hf  Hf35      1.0  0.05248  0.68368  0.41982  1.0000
  Hf  Hf36      1.0  0.05381  0.68553  0.92025  1.0000
  Hf  Hf37      1.0  0.30278  0.18065  0.41799  1.0000
  Hf  Hf38      1.0  0.30637  0.18560  0.90864  1.0000
  Hf  Hf39      1.0  0.30603  0.67707  0.41803  1.0000
  Hf  Hf40      1.0  0.30783  0.68635  0.91798  1.0000
  Hf  Hf41      1.0  0.55553  0.17742  0.41970  1.0000
  Hf  Hf42      1.0  0.55728  0.18411  0.91747  1.0000
  Hf  Hf43      1.0  0.55877  0.69025  0.41047  1.0000
  Hf  Hf44      1.0  0.55481  0.67876  0.91600  1.0000
  Hf  Hf45      1.0  0.80643  0.19362  0.41100  1.0000
  Hf  Hf46      1.0  0.80773  0.18379  0.91275  1.0000
  Hf  Hf47      1.0  0.80552  0.68890  0.41461  1.0000
  Hf  Hf48      1.0  0.80683  0.67871  0.91821  1.0000
  Hf  Hf49      1.0  0.16362  0.38352  0.32976  1.0000
  Hf  Hf50      1.0  0.15712  0.38532  0.83692  1.0000
  Hf  Hf51      1.0  0.15780  0.88155  0.33783  1.0000
  Hf  Hf52      1.0  0.15604  0.89484  0.83455  1.0000
  Hf  Hf53      1.0  0.40893  0.38784  0.33119  1.0000
  Hf  Hf54      1.0  0.40880  0.38404  0.83767  1.0000
  Hf  Hf55      1.0  0.40532  0.88010  0.34354  1.0000
  Hf  Hf56      1.0  0.41299  0.88630  0.83064  1.0000
  Hf  Hf57      1.0  0.65932  0.39312  0.32027  1.0000
  Hf  Hf58      1.0  0.66068  0.38661  0.82890  1.0000
  Hf  Hf59      1.0  0.66058  0.89484  0.32407  1.0000
  Hf  Hf60      1.0  0.65636  0.89070  0.83338  1.0000
  Hf  Hf61      1.0  0.91001  0.38880  0.33055  1.0000
  Hf  Hf62      1.0  0.90561  0.38578  0.83417  1.0000
  Hf  Hf63      1.0  0.90937  0.89390  0.32471  1.0000
  Hf  Hf64      1.0  0.91102  0.88475  0.83357  1.0000
  Hf  Hf65      1.0  0.19319  0.31381  0.08170  1.0000
  Hf  Hf66      1.0  0.19348  0.31430  0.59554  1.0000
  Hf  Hf67      1.0  0.19411  0.82030  0.09201  1.0000
  Hf  Hf68      1.0  0.19276  0.81451  0.59255  1.0000
  Hf  Hf69      1.0  0.43911  0.30526  0.09567  1.0000
  Hf  Hf70      1.0  0.44455  0.32236  0.57530  1.0000
  Hf  Hf71      1.0  0.44517  0.81505  0.08419  1.0000
  Hf  Hf72      1.0  0.44218  0.81394  0.58945  1.0000
  Hf  Hf73      1.0  0.69596  0.32194  0.07967  1.0000
  Hf  Hf74      1.0  0.69573  0.32446  0.57596  1.0000
  Hf  Hf75      1.0  0.69431  0.81791  0.07858  1.0000
  Hf  Hf76      1.0  0.69373  0.81613  0.58148  1.0000
  Hf  Hf77      1.0  0.94660  0.32203  0.07591  1.0000
  Hf  Hf78      1.0  0.94581  0.32139  0.57965  1.0000
  Hf  Hf79      1.0  0.94646  0.82142  0.08126  1.0000
  Hf  Hf80      1.0  0.94256  0.81343  0.58731  1.0000
  Hf  Hf81      1.0  0.09140  0.11022  0.16876  1.0000
  Hf  Hf82      1.0  0.09200  0.10915  0.66715  1.0000
  Hf  Hf83      1.0  0.09386  0.60587  0.17333  1.0000
  Hf  Hf84      1.0  0.09220  0.61176  0.66987  1.0000
  Hf  Hf85      1.0  0.34051  0.11142  0.16541  1.0000
  Hf  Hf86      1.0  0.33971  0.10631  0.66626  1.0000
  Hf  Hf87      1.0  0.34106  0.60720  0.17328  1.0000
  Hf  Hf88      1.0  0.33686  0.60446  0.67385  1.0000
  Hf  Hf89      1.0  0.59273  0.11120  0.16165  1.0000
  Hf  Hf90      1.0  0.59145  0.11367  0.66991  1.0000
  Hf  Hf91      1.0  0.58936  0.61151  0.16348  1.0000
  Hf  Hf92      1.0  0.58995  0.60653  0.66931  1.0000
  Hf  Hf93      1.0  0.84075  0.11177  0.17061  1.0000
  Hf  Hf94      1.0  0.84297  0.10765  0.66442  1.0000
  Hf  Hf95      1.0  0.84261  0.61248  0.16863  1.0000
  Hf  Hf96      1.0  0.83769  0.61445  0.66615  1.0000
  F   F1        1.0  0.08061  0.13509  0.30678  1.0000
  F   F2        1.0  0.08275  0.13602  0.80267  1.0000
  F   F3        1.0  0.07919  0.63719  0.30462  1.0000
  F   F4        1.0  0.08045  0.62469  0.80627  1.0000
  F   F5        1.0  0.32822  0.14666  0.28952  1.0000
  F   F6        1.0  0.32767  0.12240  0.80878  1.0000
  F   F7        1.0  0.32655  0.61828  0.31148  1.0000
  F   F8        1.0  0.32456  0.61585  0.81812  1.0000
  F   F9        1.0  0.58082  0.11998  0.30493  1.0000
  F   F10       1.0  0.58059  0.11692  0.81517  1.0000
  F   F11       1.0  0.59012  0.63276  0.29920  1.0000
  F   F12       1.0  0.57889  0.63186  0.79944  1.0000
  F   F13       1.0  0.82861  0.11916  0.31556  1.0000
  F   F14       1.0  0.82968  0.14056  0.78881  1.0000
  F   F15       1.0  0.83073  0.62625  0.30077  1.0000
  F   F16       1.0  0.82670  0.63443  0.80346  1.0000
  F   F17       1.0  0.18795  0.34224  0.44420  1.0000
  F   F18       1.0  0.18628  0.34818  0.94288  1.0000
  F   F19       1.0  0.18732  0.83174  0.44385  1.0000
  F   F20       1.0  0.18539  0.84548  0.95679  1.0000
  F   F21       1.0  0.43874  0.34957  0.44183  1.0000
  F   F22       1.0  0.43720  0.33692  0.95199  1.0000
  F   F23       1.0  0.42869  0.83299  0.45955  1.0000
  F   F24       1.0  0.44046  0.83395  0.94350  1.0000
  F   F25       1.0  0.68732  0.34464  0.43117  1.0000
  F   F26       1.0  0.68047  0.33856  0.95370  1.0000
  F   F27       1.0  0.68621  0.83688  0.44459  1.0000
  F   F28       1.0  0.69466  0.84598  0.93104  1.0000
  F   F29       1.0  0.94053  0.34906  0.44469  1.0000
  F   F30       1.0  0.94056  0.34640  0.93803  1.0000
  F   F31       1.0  0.93433  0.83700  0.45412  1.0000
  F   F32       1.0  0.94066  0.83998  0.94070  1.0000
  F   F33       1.0  0.17033  0.36772  0.20094  1.0000
  F   F34       1.0  0.16699  0.36893  0.70321  1.0000
  F   F35       1.0  0.16758  0.87097  0.20403  1.0000
  F   F36       1.0  0.16825  0.87503  0.69886  1.0000
  F   F37       1.0  0.41692  0.37108  0.19744  1.0000
  F   F38       1.0  0.42317  0.36665  0.69769  1.0000
  F   F39       1.0  0.41913  0.86854  0.20567  1.0000
  F   F40       1.0  0.42249  0.87258  0.69506  1.0000
  F   F41       1.0  0.68133  0.39465  0.17225  1.0000
  F   F42       1.0  0.67481  0.37701  0.68682  1.0000
  F   F43       1.0  0.67491  0.87575  0.18225  1.0000
  F   F44       1.0  0.66400  0.85804  0.70343  1.0000
  F   F45       1.0  0.91705  0.35346  0.20372  1.0000
  F   F46       1.0  0.91879  0.36889  0.69580  1.0000
  F   F47       1.0  0.92542  0.89483  0.18571  1.0000
  F   F48       1.0  0.92042  0.86185  0.70236  1.0000
  F   F49       1.0  0.06668  0.16104  0.05740  1.0000
  F   F50       1.0  0.06200  0.15410  0.55679  1.0000
  F   F51       1.0  0.05991  0.64884  0.06437  1.0000
  F   F52       1.0  0.06529  0.66811  0.55468  1.0000
  F   F53       1.0  0.31259  0.14406  0.05699  1.0000
  F   F54       1.0  0.31173  0.16038  0.55171  1.0000
  F   F55       1.0  0.31452  0.66515  0.05338  1.0000
  F   F56       1.0  0.31289  0.65629  0.55447  1.0000
  F   F57       1.0  0.57324  0.16525  0.03927  1.0000
  F   F58       1.0  0.56640  0.16307  0.54892  1.0000
  F   F59       1.0  0.55704  0.65739  0.06778  1.0000
  F   F60       1.0  0.56153  0.66321  0.55055  1.0000
  F   F61       1.0  0.82087  0.17332  0.04086  1.0000
  F   F62       1.0  0.80606  0.16266  0.55337  1.0000
  F   F63       1.0  0.81808  0.66369  0.05242  1.0000
  F   F64       1.0  0.81062  0.67000  0.54889  1.0000
  F   F65       1.0  0.19872  0.19643  0.21518  1.0000
  F   F66       1.0  0.20411  0.19761  0.71901  1.0000
  F   F67       1.0  0.20645  0.70103  0.20680  1.0000
  F   F68       1.0  0.20323  0.70696  0.72530  1.0000
  F   F69       1.0  0.46004  0.20097  0.21636  1.0000
  F   F70       1.0  0.45832  0.19671  0.70786  1.0000
  F   F71       1.0  0.46214  0.70683  0.20403  1.0000
  F   F72       1.0  0.46165  0.70677  0.69448  1.0000
  F   F73       1.0  0.69430  0.20597  0.21127  1.0000
  F   F74       1.0  0.70696  0.21203  0.70268  1.0000
  F   F75       1.0  0.69736  0.70083  0.21515  1.0000
  F   F76       1.0  0.70705  0.70290  0.70760  1.0000
  F   F77       1.0  0.95592  0.19840  0.20480  1.0000
  F   F78       1.0  0.96142  0.20326  0.70451  1.0000
  F   F79       1.0  0.95635  0.70997  0.20844  1.0000
  F   F80       1.0  0.95973  0.68662  0.70691  1.0000
  F   F81       1.0  0.15132  0.09085  0.04354  1.0000
  F   F82       1.0  0.15134  0.08130  0.54515  1.0000
  F   F83       1.0  0.14400  0.57680  0.05107  1.0000
  F   F84       1.0  0.15225  0.59802  0.54514  1.0000
  F   F85       1.0  0.39564  0.09156  0.03982  1.0000
  F   F86       1.0  0.39528  0.08225  0.53517  1.0000
  F   F87       1.0  0.39840  0.58927  0.04929  1.0000
  F   F88       1.0  0.39283  0.59169  0.54132  1.0000
  F   F89       1.0  0.65228  0.07281  0.03472  1.0000
  F   F90       1.0  0.64775  0.10253  0.54154  1.0000
  F   F91       1.0  0.64734  0.57975  0.04208  1.0000
  F   F92       1.0  0.65179  0.60126  0.54738  1.0000
  F   F93       1.0  0.89776  0.07656  0.05473  1.0000
  F   F94       1.0  0.89417  0.10611  0.53267  1.0000
  F   F95       1.0  0.89948  0.59765  0.03774  1.0000
  F   F96       1.0  0.89947  0.60743  0.53572  1.0000
  F   F97       1.0  0.15253  0.20314  0.11085  1.0000
  F   F98       1.0  0.15116  0.19695  0.62649  1.0000
  F   F99       1.0  0.15429  0.69369  0.12601  1.0000
  F   F100      1.0  0.14936  0.69906  0.63137  1.0000
  F   F101      1.0  0.39962  0.19803  0.12674  1.0000
  F   F102      1.0  0.39651  0.20244  0.63520  1.0000
  F   F103      1.0  0.40316  0.69086  0.13244  1.0000
  F   F104      1.0  0.39730  0.69988  0.63940  1.0000
  F   F105      1.0  0.65105  0.19437  0.11375  1.0000
  F   F106      1.0  0.64871  0.20702  0.62932  1.0000
  F   F107      1.0  0.64901  0.70261  0.11094  1.0000
  F   F108      1.0  0.65500  0.70391  0.63491  1.0000
  F   F109      1.0  0.89896  0.20590  0.12386  1.0000
  F   F110      1.0  0.90236  0.20361  0.61939  1.0000
  F   F111      1.0  0.90336  0.70897  0.12745  1.0000
  F   F112      1.0  0.89904  0.70324  0.64075  1.0000
  F   F113      1.0  0.09869  0.29190  0.37820  1.0000
  F   F114      1.0  0.09900  0.29736  0.87918  1.0000
  F   F115      1.0  0.10085  0.80044  0.37315  1.0000
  F   F116      1.0  0.09843  0.80024  0.88257  1.0000
  F   F117      1.0  0.35029  0.29398  0.36565  1.0000
  F   F118      1.0  0.35047  0.29009  0.88123  1.0000
  F   F119      1.0  0.34151  0.80335  0.40356  1.0000
  F   F120      1.0  0.35180  0.80093  0.86938  1.0000
  F   F121      1.0  0.60158  0.29328  0.36926  1.0000
  F   F122      1.0  0.60396  0.30734  0.86645  1.0000
  F   F123      1.0  0.60373  0.79363  0.37040  1.0000
  F   F124      1.0  0.59799  0.79921  0.88558  1.0000
  F   F125      1.0  0.84619  0.30488  0.39336  1.0000
  F   F126      1.0  0.84849  0.30033  0.86150  1.0000
  F   F127      1.0  0.85027  0.81018  0.36595  1.0000
  F   F128      1.0  0.84883  0.79874  0.87920  1.0000
  F   F129      1.0  0.05782  0.24115  0.15756  1.0000
  F   F130      1.0  0.06057  0.23842  0.65221  1.0000
  F   F131      1.0  0.07158  0.74741  0.14133  1.0000
  F   F132      1.0  0.06430  0.74726  0.64705  1.0000
  F   F133      1.0  0.32024  0.25848  0.11507  1.0000
  F   F134      1.0  0.31107  0.25173  0.64581  1.0000
  F   F135      1.0  0.31473  0.74417  0.15258  1.0000
  F   F136      1.0  0.31628  0.74627  0.64641  1.0000
  F   F137      1.0  0.56309  0.25840  0.14009  1.0000
  F   F138      1.0  0.56893  0.25518  0.63525  1.0000
  F   F139      1.0  0.55703  0.74927  0.15585  1.0000
  F   F140      1.0  0.56612  0.74750  0.64467  1.0000
  F   F141      1.0  0.81233  0.25539  0.14601  1.0000
  F   F142      1.0  0.81458  0.24475  0.64169  1.0000
  F   F143      1.0  0.82417  0.76406  0.11763  1.0000
  F   F144      1.0  0.80514  0.74775  0.65660  1.0000
  F   F145      1.0  0.12228  0.36295  0.11601  1.0000
  F   F146      1.0  0.12550  0.35495  0.61553  1.0000
  F   F147      1.0  0.12203  0.87062  0.12114  1.0000
  F   F148      1.0  0.12992  0.87755  0.59606  1.0000
  F   F149      1.0  0.37270  0.36948  0.11914  1.0000
  F   F150      1.0  0.37595  0.38600  0.59650  1.0000
  F   F151      1.0  0.37713  0.86734  0.10971  1.0000
  F   F152      1.0  0.37135  0.87075  0.62201  1.0000
  F   F153      1.0  0.62489  0.36087  0.12564  1.0000
  F   F154      1.0  0.62731  0.38746  0.58895  1.0000
  F   F155      1.0  0.62405  0.86551  0.11410  1.0000
  F   F156      1.0  0.62457  0.88013  0.59986  1.0000
  F   F157      1.0  0.87512  0.38175  0.09762  1.0000
  F   F158      1.0  0.87244  0.35695  0.61196  1.0000
  F   F159      1.0  0.87677  0.87552  0.10534  1.0000
  F   F160      1.0  0.87159  0.87645  0.61113  1.0000
  F   F161      1.0  0.18862  0.24667  0.35671  1.0000
  F   F162      1.0  0.18599  0.24896  0.86202  1.0000
  F   F163      1.0  0.19002  0.74563  0.34900  1.0000
  F   F164      1.0  0.16936  0.74566  0.88830  1.0000
  F   F165      1.0  0.43020  0.24507  0.36572  1.0000
  F   F166      1.0  0.43207  0.24461  0.86219  1.0000
  F   F167      1.0  0.42738  0.74482  0.36727  1.0000
  F   F168      1.0  0.44227  0.74737  0.84735  1.0000
  F   F169      1.0  0.68978  0.25395  0.33855  1.0000
  F   F170      1.0  0.69064  0.25241  0.85685  1.0000
  F   F171      1.0  0.68541  0.75631  0.35304  1.0000
  F   F172      1.0  0.68199  0.75200  0.86655  1.0000
  F   F173      1.0  0.93872  0.25170  0.36027  1.0000
  F   F174      1.0  0.92992  0.24856  0.86022  1.0000
  F   F175      1.0  0.94205  0.76420  0.34287  1.0000
  F   F176      1.0  0.94227  0.74983  0.84409  1.0000
  F   F177      1.0  0.12728  0.12891  0.40044  1.0000
  F   F178      1.0  0.12424  0.12126  0.91087  1.0000
  F   F179      1.0  0.12297  0.63660  0.39339  1.0000
  F   F180      1.0  0.12234  0.61714  0.90614  1.0000
  F   F181      1.0  0.37180  0.12295  0.39006  1.0000
  F   F182      1.0  0.37730  0.12491  0.88270  1.0000
  F   F183      1.0  0.37786  0.64046  0.38168  1.0000
  F   F184      1.0  0.37709  0.63545  0.89025  1.0000
  F   F185      1.0  0.62203  0.12821  0.40169  1.0000
  F   F186      1.0  0.63049  0.14547  0.88191  1.0000
  F   F187      1.0  0.62355  0.60970  0.42235  1.0000
  F   F188      1.0  0.62396  0.63510  0.89291  1.0000
  F   F189      1.0  0.88033  0.14665  0.37930  1.0000
  F   F190      1.0  0.87938  0.13067  0.88214  1.0000
  F   F191      1.0  0.87612  0.63766  0.38009  1.0000
  F   F192      1.0  0.87420  0.62931  0.89189  1.0000
  F   F193      1.0  0.00686  0.36024  0.07749  1.0000
  F   F194      1.0  0.01295  0.35947  0.55669  1.0000
  F   F195      1.0  0.01036  0.86351  0.07153  1.0000
  F   F196      1.0  0.00409  0.85535  0.57924  1.0000
  F   F197      1.0  0.25449  0.35642  0.08173  1.0000
  F   F198      1.0  0.25564  0.36007  0.57450  1.0000
  F   F199      1.0  0.25847  0.85167  0.08060  1.0000
  F   F200      1.0  0.25191  0.85656  0.59396  1.0000
  F   F201      1.0  0.50421  0.36543  0.07622  1.0000
  F   F202      1.0  0.50728  0.35537  0.56806  1.0000
  F   F203      1.0  0.50636  0.87157  0.06232  1.0000
  F   F204      1.0  0.50892  0.86655  0.57327  1.0000
  F   F205      1.0  0.75945  0.37317  0.06123  1.0000
  F   F206      1.0  0.76096  0.37569  0.55620  1.0000
  F   F207      1.0  0.75894  0.86547  0.07375  1.0000
  F   F208      1.0  0.75430  0.86828  0.57244  1.0000
  F   F209      1.0  0.06984  0.48227  0.17741  1.0000
  F   F210      1.0  0.07561  0.48479  0.65520  1.0000
  F   F211      1.0  0.07492  0.98624  0.16175  1.0000
  F   F212      1.0  0.06808  0.98396  0.67318  1.0000
  F   F213      1.0  0.32010  0.48123  0.18459  1.0000
  F   F214      1.0  0.31762  0.48346  0.68379  1.0000
  F   F215      1.0  0.31422  0.97503  0.18114  1.0000
  F   F216      1.0  0.31341  0.98483  0.67772  1.0000
  F   F217      1.0  0.56417  0.48476  0.17630  1.0000
  F   F218      1.0  0.57320  0.49890  0.65344  1.0000
  F   F219      1.0  0.56713  0.98551  0.16971  1.0000
  F   F220      1.0  0.57469  0.98554  0.66524  1.0000
  F   F221      1.0  0.81605  0.48445  0.19513  1.0000
  F   F222      1.0  0.82281  0.49044  0.65277  1.0000
  F   F223      1.0  0.81537  0.98749  0.17790  1.0000
  F   F224      1.0  0.81119  0.99156  0.68201  1.0000
  F   F225      1.0  0.24232  0.14067  0.42253  1.0000
  F   F226      1.0  0.24453  0.14888  0.92075  1.0000
  F   F227      1.0  0.24322  0.63612  0.42728  1.0000
  F   F228      1.0  0.24120  0.63173  0.92959  1.0000
  F   F229      1.0  0.49047  0.12083  0.43287  1.0000
  F   F230      1.0  0.49818  0.15060  0.90580  1.0000
  F   F231      1.0  0.49411  0.64381  0.40967  1.0000
  F   F232      1.0  0.49328  0.62459  0.92710  1.0000
  F   F233      1.0  0.74376  0.15393  0.42124  1.0000
  F   F234      1.0  0.74128  0.12987  0.93347  1.0000
  F   F235      1.0  0.74155  0.64584  0.42802  1.0000
  F   F236      1.0  0.74037  0.64271  0.93725  1.0000
  F   F237      1.0  0.99074  0.14216  0.42121  1.0000
  F   F238      1.0  0.98962  0.13791  0.92406  1.0000
  F   F239      1.0  0.99442  0.64015  0.42406  1.0000
  F   F240      1.0  0.99587  0.64522  0.91515  1.0000
  F   F241      1.0  0.17672  0.01118  0.33430  1.0000
  F   F242      1.0  0.17390  0.01688  0.83145  1.0000
  F   F243      1.0  0.18259  0.51841  0.32244  1.0000
  F   F244      1.0  0.17787  0.51840  0.82211  1.0000
  F   F245      1.0  0.43056  0.00679  0.33746  1.0000
  F   F246      1.0  0.43321  0.00976  0.82468  1.0000
  F   F247      1.0  0.43098  0.52346  0.31899  1.0000
  F   F248      1.0  0.43016  0.51671  0.82633  1.0000
  F   F249      1.0  0.67871  0.02121  0.32759  1.0000
  F   F250      1.0  0.67523  0.01582  0.84054  1.0000
  F   F251      1.0  0.68478  0.52134  0.31046  1.0000
  F   F252      1.0  0.68178  0.51694  0.82753  1.0000
  F   F253      1.0  0.92865  0.00597  0.33431  1.0000
  F   F254      1.0  0.93325  0.01185  0.82280  1.0000
  F   F255      1.0  0.92908  0.52044  0.33231  1.0000
  F   F256      1.0  0.92609  0.50800  0.83389  1.0000
  F   F257      1.0  0.99808  0.24295  0.00620  1.0000
  F   F258      1.0  0.99539  0.23851  0.50801  1.0000
  F   F259      1.0  0.99621  0.74863  0.99779  1.0000
  F   F260      1.0  0.99852  0.74634  0.50307  1.0000
  F   F261      1.0  0.25180  0.25228  0.99299  1.0000
  F   F262      1.0  0.24660  0.24494  0.50232  1.0000
  F   F263      1.0  0.24956  0.75668  0.99959  1.0000
  F   F264      1.0  0.24961  0.75609  0.50264  1.0000
  F   F265      1.0  0.50229  0.24941  0.00317  1.0000
  F   F266      1.0  0.50037  0.25007  0.50172  1.0000
  F   F267      1.0  0.49774  0.74110  0.00578  1.0000
  F   F268      1.0  0.49722  0.75640  0.49249  1.0000
  F   F269      1.0  0.75066  0.26121  0.98863  1.0000
  F   F270      1.0  0.74805  0.26701  0.48740  1.0000
  F   F271      1.0  0.75574  0.74486  0.00496  1.0000
  F   F272      1.0  0.75204  0.75263  0.50062  1.0000
  F   F273      1.0  0.11890  0.99705  0.26648  1.0000
  F   F274      1.0  0.11733  0.99601  0.76031  1.0000
  F   F275      1.0  0.12531  0.48897  0.25417  1.0000
  F   F276      1.0  0.12059  0.49275  0.75912  1.0000
  F   F277      1.0  0.37261  0.00451  0.26182  1.0000
  F   F278      1.0  0.37289  0.99785  0.74515  1.0000
  F   F279      1.0  0.36981  0.48392  0.26523  1.0000
  F   F280      1.0  0.37485  0.48886  0.75945  1.0000
  F   F281      1.0  0.62878  0.99855  0.23295  1.0000
  F   F282      1.0  0.62522  0.99485  0.74847  1.0000
  F   F283      1.0  0.61930  0.49146  0.25360  1.0000
  F   F284      1.0  0.62489  0.49703  0.75550  1.0000
  F   F285      1.0  0.88141  0.01184  0.24337  1.0000
  F   F286      1.0  0.87854  0.00446  0.74393  1.0000
  F   F287      1.0  0.88421  0.50583  0.24487  1.0000
  F   F288      1.0  0.87295  0.51165  0.73633  1.0000
  F   F289      1.0  0.03770  0.04371  0.02308  1.0000
  F   F290      1.0  0.04539  0.02747  0.51890  1.0000
  F   F291      1.0  0.03612  0.53008  0.02994  1.0000
  F   F292      1.0  0.04296  0.53240  0.52197  1.0000
  F   F293      1.0  0.29680  0.02365  0.01275  1.0000
  F   F294      1.0  0.28812  0.02995  0.53023  1.0000
  F   F295      1.0  0.29615  0.53009  0.02605  1.0000
  F   F296      1.0  0.29195  0.53065  0.52712  1.0000
  F   F297      1.0  0.53567  0.03782  0.02628  1.0000
  F   F298      1.0  0.54054  0.03431  0.51794  1.0000
  F   F299      1.0  0.54317  0.53473  0.01677  1.0000
  F   F300      1.0  0.54252  0.52801  0.52195  1.0000
  F   F301      1.0  0.79561  0.03943  0.02458  1.0000
  F   F302      1.0  0.79217  0.03074  0.51565  1.0000
  F   F303      1.0  0.79460  0.53416  0.02572  1.0000
  F   F304      1.0  0.79234  0.53755  0.51410  1.0000
  F   F305      1.0  0.23132  0.42285  0.22289  1.0000
  F   F306      1.0  0.23357  0.40205  0.73183  1.0000
  F   F307      1.0  0.23532  0.91413  0.21635  1.0000
  F   F308      1.0  0.22848  0.92542  0.72450  1.0000
  F   F309      1.0  0.48018  0.40748  0.23032  1.0000
  F   F310      1.0  0.48693  0.39113  0.74095  1.0000
  F   F311      1.0  0.47964  0.91093  0.22717  1.0000
  F   F312      1.0  0.48816  0.91063  0.72259  1.0000
  F   F313      1.0  0.73707  0.41769  0.21999  1.0000
  F   F314      1.0  0.73520  0.41128  0.72989  1.0000
  F   F315      1.0  0.73786  0.91775  0.22416  1.0000
  F   F316      1.0  0.72608  0.92526  0.71683  1.0000
  F   F317      1.0  0.98431  0.41550  0.22861  1.0000
  F   F318      1.0  0.98284  0.40967  0.72636  1.0000
  F   F319      1.0  0.99064  0.92473  0.21658  1.0000
  F   F320      1.0  0.98621  0.90669  0.72320  1.0000
  F   F321      1.0  0.19801  0.46834  0.48335  1.0000
  F   F322      1.0  0.20402  0.46779  0.98362  1.0000
  F   F323      1.0  0.21135  0.96547  0.47276  1.0000
  F   F324      1.0  0.20508  0.97211  0.98604  1.0000
  F   F325      1.0  0.45834  0.47379  0.46828  1.0000
  F   F326      1.0  0.45778  0.46230  0.97547  1.0000
  F   F327      1.0  0.45546  0.96069  0.48884  1.0000
  F   F328      1.0  0.45019  0.97327  0.97652  1.0000
  F   F329      1.0  0.71372  0.48073  0.45994  1.0000
  F   F330      1.0  0.70435  0.47753  0.97027  1.0000
  F   F331      1.0  0.70846  0.97753  0.47099  1.0000
  F   F332      1.0  0.71062  0.96344  0.96676  1.0000
  F   F333      1.0  0.95596  0.47238  0.49188  1.0000
  F   F334      1.0  0.95823  0.47376  0.99081  1.0000
  F   F335      1.0  0.95023  0.97543  0.48365  1.0000
  F   F336      1.0  0.96233  0.97524  0.97486  1.0000
  F   F337      1.0  0.02044  0.07861  0.27202  1.0000
  F   F338      1.0  0.01882  0.07178  0.77207  1.0000
  F   F339      1.0  0.01765  0.59555  0.27556  1.0000
  F   F340      1.0  0.01509  0.57388  0.78049  1.0000
  F   F341      1.0  0.26443  0.09219  0.26561  1.0000
  F   F342      1.0  0.26343  0.08191  0.77283  1.0000
  F   F343      1.0  0.26404  0.57737  0.28258  1.0000
  F   F344      1.0  0.26138  0.58888  0.77423  1.0000
  F   F345      1.0  0.51894  0.08894  0.26857  1.0000
  F   F346      1.0  0.51919  0.08760  0.76004  1.0000
  F   F347      1.0  0.51519  0.58098  0.27683  1.0000
  F   F348      1.0  0.51552  0.57567  0.78080  1.0000
  F   F349      1.0  0.76130  0.09912  0.27871  1.0000
  F   F350      1.0  0.76301  0.08755  0.77244  1.0000
  F   F351      1.0  0.76744  0.60551  0.26840  1.0000
  F   F352      1.0  0.76848  0.57322  0.77208  1.0000
  F   F353      1.0  0.10053  0.39433  0.46936  1.0000
  F   F354      1.0  0.10092  0.40553  0.96145  1.0000
  F   F355      1.0  0.10193  0.88953  0.46729  1.0000
  F   F356      1.0  0.09552  0.91768  0.96696  1.0000
  F   F357      1.0  0.35070  0.40359  0.46168  1.0000
  F   F358      1.0  0.35774  0.41635  0.96161  1.0000
  F   F359      1.0  0.35045  0.92039  0.46160  1.0000
  F   F360      1.0  0.35633  0.87936  0.97415  1.0000
  F   F361      1.0  0.60358  0.41648  0.44243  1.0000
  F   F362      1.0  0.60145  0.39954  0.96640  1.0000
  F   F363      1.0  0.60432  0.90050  0.44245  1.0000
  F   F364      1.0  0.59866  0.91117  0.97648  1.0000
  F   F365      1.0  0.85394  0.41483  0.45641  1.0000
  F   F366      1.0  0.84711  0.40198  0.95167  1.0000
  F   F367      1.0  0.85416  0.90205  0.46116  1.0000
  F   F368      1.0  0.85373  0.92020  0.95188  1.0000
  F   F369      1.0  0.04071  0.29844  0.29528  1.0000
  F   F370      1.0  0.03970  0.29622  0.79962  1.0000
  F   F371      1.0  0.04437  0.80441  0.29884  1.0000
  F   F372      1.0  0.05313  0.81541  0.77223  1.0000
  F   F373      1.0  0.29105  0.30393  0.27986  1.0000
  F   F374      1.0  0.29783  0.30413  0.77877  1.0000
  F   F375      1.0  0.30021  0.79536  0.28904  1.0000
  F   F376      1.0  0.29154  0.79457  0.80026  1.0000
  F   F377      1.0  0.53876  0.28872  0.29053  1.0000
  F   F378      1.0  0.56064  0.30330  0.78048  1.0000
  F   F379      1.0  0.55106  0.80764  0.28695  1.0000
  F   F380      1.0  0.54565  0.79699  0.78576  1.0000
  F   F381      1.0  0.80258  0.31177  0.28890  1.0000
  F   F382      1.0  0.79388  0.28934  0.79580  1.0000
  F   F383      1.0  0.79573  0.80063  0.28964  1.0000
  F   F384      1.0  0.79721  0.79874  0.77909  1.0000
