data_image0
_chemical_formula_structural       Hf96F384
_chemical_formula_sum              "Hf96 F384"
_cell_length_a       31.0157
_cell_length_b       15.5058
_cell_length_c       15.5
_cell_angle_alpha    63.342
_cell_angle_beta     63.342
_cell_angle_gamma    80.1625

_space_group_name_H-M_alt    "P 1"
_space_group_IT_number       1

loop_
  _space_group_symop_operation_xyz
  'x, y, z'

loop_
  _atom_site_type_symbol
  _atom_site_label
  _atom_site_symmetry_multiplicity
  _atom_site_fract_x
  _atom_site_fract_y
  _atom_site_fract_z
  _atom_site_occupancy
  Hf  Hf1       1.0  0.19441  0.11921  0.36985  1.0000
  Hf  Hf2       1.0  0.19896  0.11547  0.87340  1.0000
  Hf  Hf3       1.0  0.19692  0.60679  0.37795  1.0000
  Hf  Hf4       1.0  0.19518  0.60601  0.87623  1.0000
  Hf  Hf5       1.0  0.44565  0.10057  0.37687  1.0000
  Hf  Hf6       1.0  0.44617  0.11250  0.87147  1.0000
  Hf  Hf7       1.0  0.44797  0.61294  0.36345  1.0000
  Hf  Hf8       1.0  0.44945  0.60530  0.87014  1.0000
  Hf  Hf9       1.0  0.69564  0.10497  0.37619  1.0000
  Hf  Hf10      1.0  0.69565  0.10190  0.87936  1.0000
  Hf  Hf11      1.0  0.69632  0.60916  0.37677  1.0000
  Hf  Hf12      1.0  0.69791  0.60291  0.87306  1.0000
  Hf  Hf13      1.0  0.94790  0.10461  0.37418  1.0000
  Hf  Hf14      1.0  0.95067  0.11084  0.86032  1.0000
  Hf  Hf15      1.0  0.94632  0.60608  0.38011  1.0000
  Hf  Hf16      1.0  0.94474  0.61178  0.88281  1.0000
  Hf  Hf17      1.0  0.05430  0.39114  0.12228  1.0000
  Hf  Hf18      1.0  0.05808  0.40038  0.62079  1.0000
  Hf  Hf19      1.0  0.05713  0.89655  0.11508  1.0000
  Hf  Hf20      1.0  0.05510  0.89156  0.62572  1.0000
  Hf  Hf21      1.0  0.30397  0.39418  0.12639  1.0000
  Hf  Hf22      1.0  0.30471  0.39510  0.62010  1.0000
  Hf  Hf23      1.0  0.30094  0.89018  0.12640  1.0000
  Hf  Hf24      1.0  0.30409  0.89655  0.62887  1.0000
  Hf  Hf25      1.0  0.55311  0.39028  0.12529  1.0000
  Hf  Hf26      1.0  0.55398  0.38799  0.62640  1.0000
  Hf  Hf27      1.0  0.55433  0.89308  0.12635  1.0000
  Hf  Hf28      1.0  0.55122  0.88806  0.62828  1.0000
  Hf  Hf29      1.0  0.80559  0.38704  0.13174  1.0000
  Hf  Hf30      1.0  0.80185  0.39567  0.62446  1.0000
  Hf  Hf31      1.0  0.80018  0.89556  0.12833  1.0000
  Hf  Hf32      1.0  0.80415  0.89299  0.61804  1.0000
  Hf  Hf33      1.0  0.05133  0.18101  0.41581  1.0000
  Hf  Hf34      1.0  0.05923  0.18866  0.90802  1.0000
  Hf  Hf35      1.0  0.05564  0.68406  0.41061  1.0000
  Hf  Hf36      1.0  0.05711  0.68340  0.91708  1.0000
  Hf  Hf37      1.0  0.30363  0.18074  0.41991  1.0000
  Hf  Hf38      1.0  0.30493  0.18035  0.91948  1.0000
  Hf  Hf39      1.0  0.30714  0.68476  0.41515  1.0000
  Hf  Hf40      1.0  0.30371  0.68112  0.92168  1.0000
  Hf  Hf41      1.0  0.55398  0.18474  0.42167  1.0000
  Hf  Hf42      1.0  0.55478  0.17911  0.91671  1.0000
  Hf  Hf43      1.0  0.55783  0.68365  0.41534  1.0000
  Hf  Hf44      1.0  0.55552  0.67754  0.92354  1.0000
  Hf  Hf45      1.0  0.80543  0.17227  0.42166  1.0000
  Hf  Hf46      1.0  0.80574  0.18902  0.91492  1.0000
  Hf  Hf47      1.0  0.80569  0.68270  0.42348  1.0000
  Hf  Hf48      1.0  0.80451  0.68045  0.91723  1.0000
  Hf  Hf49      1.0  0.15592  0.39003  0.33156  1.0000
  Hf  Hf50      1.0  0.16111  0.39585  0.82654  1.0000
  Hf  Hf51      1.0  0.15698  0.88751  0.33496  1.0000
  Hf  Hf52      1.0  0.16008  0.88686  0.83529  1.0000
  Hf  Hf53      1.0  0.41095  0.38966  0.32708  1.0000
  Hf  Hf54      1.0  0.40526  0.38602  0.83877  1.0000
  Hf  Hf55      1.0  0.41006  0.89383  0.32241  1.0000
  Hf  Hf56      1.0  0.40839  0.88423  0.84015  1.0000
  Hf  Hf57      1.0  0.66127  0.38838  0.33253  1.0000
  Hf  Hf58      1.0  0.65890  0.38379  0.83947  1.0000
  Hf  Hf59      1.0  0.65359  0.89118  0.33626  1.0000
  Hf  Hf60      1.0  0.65693  0.88915  0.83547  1.0000
  Hf  Hf61      1.0  0.90778  0.38028  0.33660  1.0000
  Hf  Hf62      1.0  0.91125  0.38971  0.82882  1.0000
  Hf  Hf63      1.0  0.91020  0.89564  0.32433  1.0000
  Hf  Hf64      1.0  0.90235  0.89281  0.83839  1.0000
  Hf  Hf65      1.0  0.19138  0.32129  0.08491  1.0000
  Hf  Hf66      1.0  0.19569  0.31925  0.58118  1.0000
  Hf  Hf67      1.0  0.19388  0.81120  0.08797  1.0000
  Hf  Hf68      1.0  0.19548  0.81761  0.58086  1.0000
  Hf  Hf69      1.0  0.44490  0.31415  0.08260  1.0000
  Hf  Hf70      1.0  0.44287  0.31547  0.58372  1.0000
  Hf  Hf71      1.0  0.44251  0.81469  0.07913  1.0000
  Hf  Hf72      1.0  0.44555  0.82243  0.57801  1.0000
  Hf  Hf73      1.0  0.69411  0.31388  0.08995  1.0000
  Hf  Hf74      1.0  0.69278  0.31216  0.59069  1.0000
  Hf  Hf75      1.0  0.69569  0.81725  0.08291  1.0000
  Hf  Hf76      1.0  0.69136  0.82049  0.58230  1.0000
  Hf  Hf77      1.0  0.94713  0.31075  0.08238  1.0000
  Hf  Hf78      1.0  0.94341  0.32070  0.58384  1.0000
  Hf  Hf79      1.0  0.94354  0.81936  0.08493  1.0000
  Hf  Hf80      1.0  0.94267  0.81198  0.58789  1.0000
  Hf  Hf81      1.0  0.09106  0.10715  0.16374  1.0000
  Hf  Hf82      1.0  0.09246  0.11806  0.65693  1.0000
  Hf  Hf83      1.0  0.08972  0.60511  0.16940  1.0000
  Hf  Hf84      1.0  0.08936  0.61038  0.66954  1.0000
  Hf  Hf85      1.0  0.33658  0.10577  0.17505  1.0000
  Hf  Hf86      1.0  0.34232  0.11209  0.66868  1.0000
  Hf  Hf87      1.0  0.34248  0.61578  0.15984  1.0000
  Hf  Hf88      1.0  0.34708  0.61547  0.66102  1.0000
  Hf  Hf89      1.0  0.58793  0.11067  0.17705  1.0000
  Hf  Hf90      1.0  0.59010  0.10737  0.67380  1.0000
  Hf  Hf91      1.0  0.59368  0.61494  0.16011  1.0000
  Hf  Hf92      1.0  0.59044  0.61194  0.66885  1.0000
  Hf  Hf93      1.0  0.84105  0.10972  0.15994  1.0000
  Hf  Hf94      1.0  0.83978  0.11373  0.67093  1.0000
  Hf  Hf95      1.0  0.84014  0.61305  0.17749  1.0000
  Hf  Hf96      1.0  0.84045  0.60780  0.67204  1.0000
  F   F1        1.0  0.07405  0.12466  0.30150  1.0000
  F   F2        1.0  0.08197  0.14599  0.79012  1.0000
  F   F3        1.0  0.07944  0.63440  0.30320  1.0000
  F   F4        1.0  0.08238  0.62260  0.80137  1.0000
  F   F5        1.0  0.32882  0.12432  0.30623  1.0000
  F   F6        1.0  0.32619  0.11836  0.81338  1.0000
  F   F7        1.0  0.33103  0.63840  0.29530  1.0000
  F   F8        1.0  0.32949  0.62840  0.80679  1.0000
  F   F9        1.0  0.58166  0.13028  0.31405  1.0000
  F   F10       1.0  0.58052  0.13104  0.80564  1.0000
  F   F11       1.0  0.58457  0.63475  0.29595  1.0000
  F   F12       1.0  0.58213  0.62212  0.80594  1.0000
  F   F13       1.0  0.82477  0.11878  0.30342  1.0000
  F   F14       1.0  0.83157  0.14565  0.79143  1.0000
  F   F15       1.0  0.83180  0.62840  0.30619  1.0000
  F   F16       1.0  0.82911  0.62036  0.80766  1.0000
  F   F17       1.0  0.18616  0.34627  0.44819  1.0000
  F   F18       1.0  0.19197  0.35416  0.93955  1.0000
  F   F19       1.0  0.19477  0.84154  0.43857  1.0000
  F   F20       1.0  0.18903  0.83684  0.94753  1.0000
  F   F21       1.0  0.43307  0.33718  0.44843  1.0000
  F   F22       1.0  0.42872  0.32820  0.95855  1.0000
  F   F23       1.0  0.43467  0.83801  0.44730  1.0000
  F   F24       1.0  0.43472  0.82714  0.94891  1.0000
  F   F25       1.0  0.69121  0.34246  0.44197  1.0000
  F   F26       1.0  0.68547  0.33694  0.95498  1.0000
  F   F27       1.0  0.68540  0.85062  0.44379  1.0000
  F   F28       1.0  0.67345  0.83384  0.95691  1.0000
  F   F29       1.0  0.93517  0.34223  0.44624  1.0000
  F   F30       1.0  0.93954  0.34322  0.94163  1.0000
  F   F31       1.0  0.93204  0.84274  0.45020  1.0000
  F   F32       1.0  0.93318  0.85060  0.94539  1.0000
  F   F33       1.0  0.16570  0.36483  0.20884  1.0000
  F   F34       1.0  0.17316  0.37179  0.69642  1.0000
  F   F35       1.0  0.16493  0.86110  0.20488  1.0000
  F   F36       1.0  0.17586  0.88520  0.69023  1.0000
  F   F37       1.0  0.42233  0.36733  0.19531  1.0000
  F   F38       1.0  0.42137  0.36820  0.69502  1.0000
  F   F39       1.0  0.42122  0.87433  0.18746  1.0000
  F   F40       1.0  0.42448  0.87585  0.69399  1.0000
  F   F41       1.0  0.67297  0.38673  0.18977  1.0000
  F   F42       1.0  0.67111  0.36029  0.70011  1.0000
  F   F43       1.0  0.67350  0.88844  0.19302  1.0000
  F   F44       1.0  0.66029  0.86611  0.70248  1.0000
  F   F45       1.0  0.91752  0.35310  0.20484  1.0000
  F   F46       1.0  0.92008  0.38937  0.68616  1.0000
  F   F47       1.0  0.91893  0.87709  0.18737  1.0000
  F   F48       1.0  0.92131  0.87507  0.69434  1.0000
  F   F49       1.0  0.06841  0.15478  0.04690  1.0000
  F   F50       1.0  0.05713  0.15294  0.56174  1.0000
  F   F51       1.0  0.05894  0.65005  0.06185  1.0000
  F   F52       1.0  0.06170  0.65006  0.55387  1.0000
  F   F53       1.0  0.31469  0.15249  0.05672  1.0000
  F   F54       1.0  0.31570  0.15333  0.56167  1.0000
  F   F55       1.0  0.31293  0.65938  0.05702  1.0000
  F   F56       1.0  0.32088  0.66831  0.54674  1.0000
  F   F57       1.0  0.56350  0.15924  0.06066  1.0000
  F   F58       1.0  0.55889  0.15337  0.56453  1.0000
  F   F59       1.0  0.55797  0.65345  0.05744  1.0000
  F   F60       1.0  0.56700  0.67394  0.54245  1.0000
  F   F61       1.0  0.81534  0.15172  0.05023  1.0000
  F   F62       1.0  0.80803  0.15039  0.56232  1.0000
  F   F63       1.0  0.80934  0.65263  0.05905  1.0000
  F   F64       1.0  0.81241  0.65235  0.55598  1.0000
  F   F65       1.0  0.19868  0.20137  0.22003  1.0000
  F   F66       1.0  0.20818  0.20760  0.70955  1.0000
  F   F67       1.0  0.20972  0.70260  0.20620  1.0000
  F   F68       1.0  0.19950  0.70731  0.71210  1.0000
  F   F69       1.0  0.45458  0.20194  0.20651  1.0000
  F   F70       1.0  0.45361  0.19448  0.71224  1.0000
  F   F71       1.0  0.45866  0.71023  0.19057  1.0000
  F   F72       1.0  0.44919  0.70922  0.70996  1.0000
  F   F73       1.0  0.69072  0.20283  0.22235  1.0000
  F   F74       1.0  0.70520  0.20012  0.71678  1.0000
  F   F75       1.0  0.71107  0.71329  0.20879  1.0000
  F   F76       1.0  0.70269  0.69356  0.70313  1.0000
  F   F77       1.0  0.96469  0.20195  0.20940  1.0000
  F   F78       1.0  0.95247  0.20555  0.70255  1.0000
  F   F79       1.0  0.96218  0.71298  0.19615  1.0000
  F   F80       1.0  0.94324  0.69581  0.71763  1.0000
  F   F81       1.0  0.15279  0.10773  0.02814  1.0000
  F   F82       1.0  0.14714  0.10058  0.53405  1.0000
  F   F83       1.0  0.14664  0.59560  0.04383  1.0000
  F   F84       1.0  0.15139  0.58663  0.54052  1.0000
  F   F85       1.0  0.39950  0.08634  0.03256  1.0000
  F   F86       1.0  0.40108  0.07648  0.53894  1.0000
  F   F87       1.0  0.40129  0.59590  0.03995  1.0000
  F   F88       1.0  0.40617  0.58624  0.54024  1.0000
  F   F89       1.0  0.65036  0.08732  0.04468  1.0000
  F   F90       1.0  0.64688  0.09814  0.54777  1.0000
  F   F91       1.0  0.64622  0.59165  0.03601  1.0000
  F   F92       1.0  0.64564  0.59554  0.53738  1.0000
  F   F93       1.0  0.89899  0.09737  0.03973  1.0000
  F   F94       1.0  0.89506  0.09234  0.54692  1.0000
  F   F95       1.0  0.89721  0.61100  0.03259  1.0000
  F   F96       1.0  0.89717  0.58686  0.53500  1.0000
  F   F97       1.0  0.15242  0.19445  0.12667  1.0000
  F   F98       1.0  0.16069  0.19004  0.62473  1.0000
  F   F99       1.0  0.15400  0.69044  0.13341  1.0000
  F   F100      1.0  0.15155  0.68846  0.63037  1.0000
  F   F101      1.0  0.39781  0.19226  0.13147  1.0000
  F   F102      1.0  0.39741  0.19447  0.63197  1.0000
  F   F103      1.0  0.40194  0.68468  0.13405  1.0000
  F   F104      1.0  0.40484  0.69110  0.62736  1.0000
  F   F105      1.0  0.64519  0.19762  0.12142  1.0000
  F   F106      1.0  0.65177  0.19622  0.63690  1.0000
  F   F107      1.0  0.65856  0.69124  0.11524  1.0000
  F   F108      1.0  0.65215  0.69259  0.61766  1.0000
  F   F109      1.0  0.90311  0.20003  0.12768  1.0000
  F   F110      1.0  0.90220  0.19439  0.62905  1.0000
  F   F111      1.0  0.89672  0.70621  0.13241  1.0000
  F   F112      1.0  0.90148  0.68761  0.62692  1.0000
  F   F113      1.0  0.09262  0.30621  0.38216  1.0000
  F   F114      1.0  0.10363  0.29940  0.87705  1.0000
  F   F115      1.0  0.09229  0.80474  0.37869  1.0000
  F   F116      1.0  0.10402  0.80597  0.87318  1.0000
  F   F117      1.0  0.35156  0.29597  0.38674  1.0000
  F   F118      1.0  0.34887  0.29866  0.89727  1.0000
  F   F119      1.0  0.35268  0.81035  0.35741  1.0000
  F   F120      1.0  0.35036  0.80106  0.86937  1.0000
  F   F121      1.0  0.60055  0.29763  0.37677  1.0000
  F   F122      1.0  0.59640  0.30534  0.86991  1.0000
  F   F123      1.0  0.60218  0.79639  0.35921  1.0000
  F   F124      1.0  0.59660  0.80472  0.91004  1.0000
  F   F125      1.0  0.84345  0.30142  0.38452  1.0000
  F   F126      1.0  0.84766  0.30627  0.87611  1.0000
  F   F127      1.0  0.84843  0.80444  0.38216  1.0000
  F   F128      1.0  0.84447  0.79882  0.87565  1.0000
  F   F129      1.0  0.06244  0.25133  0.14126  1.0000
  F   F130      1.0  0.08239  0.26124  0.61078  1.0000
  F   F131      1.0  0.07410  0.74628  0.12046  1.0000
  F   F132      1.0  0.06225  0.74320  0.65359  1.0000
  F   F133      1.0  0.32016  0.25768  0.12812  1.0000
  F   F134      1.0  0.31472  0.25386  0.64769  1.0000
  F   F135      1.0  0.31898  0.74995  0.13786  1.0000
  F   F136      1.0  0.31629  0.75395  0.64575  1.0000
  F   F137      1.0  0.55288  0.24507  0.16359  1.0000
  F   F138      1.0  0.56852  0.24869  0.63938  1.0000
  F   F139      1.0  0.57887  0.76392  0.11479  1.0000
  F   F140      1.0  0.55564  0.73717  0.66389  1.0000
  F   F141      1.0  0.82287  0.24414  0.14307  1.0000
  F   F142      1.0  0.81261  0.26296  0.63484  1.0000
  F   F143      1.0  0.81604  0.75123  0.12886  1.0000
  F   F144      1.0  0.81647  0.74904  0.62988  1.0000
  F   F145      1.0  0.12351  0.37348  0.11344  1.0000
  F   F146      1.0  0.13074  0.39777  0.60014  1.0000
  F   F147      1.0  0.12511  0.86943  0.09958  1.0000
  F   F148      1.0  0.12829  0.86344  0.59741  1.0000
  F   F149      1.0  0.37567  0.39319  0.09177  1.0000
  F   F150      1.0  0.37141  0.37165  0.61387  1.0000
  F   F151      1.0  0.36931  0.87622  0.10864  1.0000
  F   F152      1.0  0.37825  0.87012  0.61078  1.0000
  F   F153      1.0  0.62401  0.35695  0.11226  1.0000
  F   F154      1.0  0.62674  0.37626  0.59784  1.0000
  F   F155      1.0  0.62721  0.85957  0.12224  1.0000
  F   F156      1.0  0.62202  0.86756  0.59016  1.0000
  F   F157      1.0  0.87453  0.36499  0.10700  1.0000
  F   F158      1.0  0.87440  0.35434  0.61252  1.0000
  F   F159      1.0  0.87156  0.88081  0.10184  1.0000
  F   F160      1.0  0.87335  0.85128  0.62550  1.0000
  F   F161      1.0  0.18219  0.25054  0.36261  1.0000
  F   F162      1.0  0.18776  0.26177  0.85703  1.0000
  F   F163      1.0  0.18421  0.75370  0.36374  1.0000
  F   F164      1.0  0.19567  0.74662  0.84842  1.0000
  F   F165      1.0  0.44283  0.24943  0.33661  1.0000
  F   F166      1.0  0.43729  0.25356  0.84427  1.0000
  F   F167      1.0  0.43584  0.75002  0.35007  1.0000
  F   F168      1.0  0.43611  0.74310  0.85167  1.0000
  F   F169      1.0  0.68469  0.25051  0.35493  1.0000
  F   F170      1.0  0.69039  0.25669  0.85349  1.0000
  F   F171      1.0  0.68399  0.75508  0.35592  1.0000
  F   F172      1.0  0.69190  0.74868  0.84587  1.0000
  F   F173      1.0  0.92789  0.24150  0.37304  1.0000
  F   F174      1.0  0.93447  0.24789  0.85358  1.0000
  F   F175      1.0  0.93855  0.74919  0.35572  1.0000
  F   F176      1.0  0.94170  0.75714  0.84874  1.0000
  F   F177      1.0  0.12091  0.14390  0.38788  1.0000
  F   F178      1.0  0.12839  0.12380  0.89295  1.0000
  F   F179      1.0  0.12930  0.64492  0.37943  1.0000
  F   F180      1.0  0.12711  0.64383  0.88519  1.0000
  F   F181      1.0  0.37482  0.12996  0.39274  1.0000
  F   F182      1.0  0.37587  0.15420  0.87712  1.0000
  F   F183      1.0  0.37970  0.64229  0.37039  1.0000
  F   F184      1.0  0.37231  0.62266  0.90795  1.0000
  F   F185      1.0  0.62151  0.12165  0.40927  1.0000
  F   F186      1.0  0.62056  0.11879  0.91075  1.0000
  F   F187      1.0  0.62843  0.62743  0.39748  1.0000
  F   F188      1.0  0.63008  0.65051  0.88103  1.0000
  F   F189      1.0  0.87166  0.12491  0.38937  1.0000
  F   F190      1.0  0.87724  0.11244  0.90275  1.0000
  F   F191      1.0  0.87915  0.64305  0.38064  1.0000
  F   F192      1.0  0.87510  0.62703  0.88413  1.0000
  F   F193      1.0  0.01158  0.36654  0.05996  1.0000
  F   F194      1.0  0.00782  0.34835  0.60289  1.0000
  F   F195      1.0  0.00911  0.86384  0.07952  1.0000
  F   F196      1.0  0.01058  0.86101  0.56307  1.0000
  F   F197      1.0  0.25724  0.36239  0.07130  1.0000
  F   F198      1.0  0.25704  0.36756  0.57252  1.0000
  F   F199      1.0  0.25887  0.85407  0.07124  1.0000
  F   F200      1.0  0.25778  0.86356  0.57367  1.0000
  F   F201      1.0  0.50957  0.36518  0.07151  1.0000
  F   F202      1.0  0.50857  0.36638  0.57260  1.0000
  F   F203      1.0  0.50845  0.84997  0.09299  1.0000
  F   F204      1.0  0.50607  0.85677  0.57990  1.0000
  F   F205      1.0  0.75589  0.34574  0.10082  1.0000
  F   F206      1.0  0.75900  0.36386  0.56192  1.0000
  F   F207      1.0  0.75775  0.86008  0.07331  1.0000
  F   F208      1.0  0.74937  0.86145  0.58341  1.0000
  F   F209      1.0  0.06358  0.48336  0.17782  1.0000
  F   F210      1.0  0.06546  0.48389  0.68275  1.0000
  F   F211      1.0  0.07404  0.98373  0.17141  1.0000
  F   F212      1.0  0.07678  0.98114  0.66184  1.0000
  F   F213      1.0  0.31753  0.49067  0.17070  1.0000
  F   F214      1.0  0.31651  0.49669  0.67726  1.0000
  F   F215      1.0  0.31536  0.97704  0.18186  1.0000
  F   F216      1.0  0.32220  0.98544  0.68116  1.0000
  F   F217      1.0  0.57247  0.48667  0.16146  1.0000
  F   F218      1.0  0.56762  0.48329  0.67813  1.0000
  F   F219      1.0  0.57190  0.98545  0.16919  1.0000
  F   F220      1.0  0.56620  0.97476  0.67905  1.0000
  F   F221      1.0  0.82819  0.48244  0.17603  1.0000
  F   F222      1.0  0.82294  0.47773  0.67093  1.0000
  F   F223      1.0  0.81164  0.98342  0.18729  1.0000
  F   F224      1.0  0.82023  0.97513  0.66726  1.0000
  F   F225      1.0  0.24150  0.14147  0.41729  1.0000
  F   F226      1.0  0.24290  0.14879  0.92376  1.0000
  F   F227      1.0  0.24327  0.64314  0.42155  1.0000
  F   F228      1.0  0.24404  0.64024  0.92822  1.0000
  F   F229      1.0  0.48994  0.12919  0.43008  1.0000
  F   F230      1.0  0.49163  0.13151  0.92188  1.0000
  F   F231      1.0  0.49688  0.63847  0.39958  1.0000
  F   F232      1.0  0.49485  0.63329  0.92609  1.0000
  F   F233      1.0  0.73807  0.12663  0.43846  1.0000
  F   F234      1.0  0.74383  0.14425  0.91535  1.0000
  F   F235      1.0  0.74383  0.64436  0.42763  1.0000
  F   F236      1.0  0.74512  0.63102  0.93289  1.0000
  F   F237      1.0  0.98808  0.14479  0.42732  1.0000
  F   F238      1.0  0.99798  0.14339  0.90766  1.0000
  F   F239      1.0  0.99430  0.63597  0.42756  1.0000
  F   F240      1.0  0.99209  0.64202  0.94365  1.0000
  F   F241      1.0  0.17397  0.01628  0.33633  1.0000
  F   F242      1.0  0.18900  0.01605  0.82429  1.0000
  F   F243      1.0  0.18309  0.50563  0.33573  1.0000
  F   F244      1.0  0.17944  0.51825  0.82297  1.0000
  F   F245      1.0  0.42877  0.01259  0.32864  1.0000
  F   F246      1.0  0.42641  0.01706  0.82940  1.0000
  F   F247      1.0  0.43482  0.52183  0.31618  1.0000
  F   F248      1.0  0.43011  0.52080  0.82038  1.0000
  F   F249      1.0  0.67378  0.01910  0.32009  1.0000
  F   F250      1.0  0.68042  0.01531  0.81971  1.0000
  F   F251      1.0  0.67941  0.51778  0.31658  1.0000
  F   F252      1.0  0.67608  0.51331  0.83461  1.0000
  F   F253      1.0  0.93608  0.02366  0.30772  1.0000
  F   F254      1.0  0.93177  0.01950  0.80558  1.0000
  F   F255      1.0  0.93561  0.50971  0.33629  1.0000
  F   F256      1.0  0.93425  0.51254  0.83044  1.0000
  F   F257      1.0  0.00253  0.24415  0.99116  1.0000
  F   F258      1.0  0.99834  0.26043  0.49025  1.0000
  F   F259      1.0  0.00354  0.77138  0.98823  1.0000
  F   F260      1.0  0.99726  0.75189  0.49788  1.0000
  F   F261      1.0  0.24441  0.24229  0.01408  1.0000
  F   F262      1.0  0.25243  0.25722  0.49791  1.0000
  F   F263      1.0  0.25121  0.75226  0.00251  1.0000
  F   F264      1.0  0.24966  0.72859  0.51149  1.0000
  F   F265      1.0  0.49285  0.24278  0.00037  1.0000
  F   F266      1.0  0.49697  0.24318  0.50581  1.0000
  F   F267      1.0  0.50396  0.76837  0.98203  1.0000
  F   F268      1.0  0.49941  0.74644  0.49151  1.0000
  F   F269      1.0  0.75267  0.25197  0.00372  1.0000
  F   F270      1.0  0.75465  0.24986  0.49187  1.0000
  F   F271      1.0  0.75172  0.76205  0.98356  1.0000
  F   F272      1.0  0.75275  0.76654  0.49184  1.0000
  F   F273      1.0  0.12480  0.00235  0.25400  1.0000
  F   F274      1.0  0.12555  0.00376  0.75011  1.0000
  F   F275      1.0  0.12763  0.50790  0.24349  1.0000
  F   F276      1.0  0.12083  0.49194  0.74515  1.0000
  F   F277      1.0  0.36954  0.99710  0.25990  1.0000
  F   F278      1.0  0.37867  0.00240  0.74819  1.0000
  F   F279      1.0  0.37392  0.49518  0.25295  1.0000
  F   F280      1.0  0.37888  0.50535  0.75028  1.0000
  F   F281      1.0  0.61336  0.98929  0.27112  1.0000
  F   F282      1.0  0.61994  0.99692  0.76287  1.0000
  F   F283      1.0  0.61862  0.49238  0.25813  1.0000
  F   F284      1.0  0.63039  0.49202  0.74593  1.0000
  F   F285      1.0  0.87701  0.99908  0.24241  1.0000
  F   F286      1.0  0.85880  0.98878  0.76509  1.0000
  F   F287      1.0  0.88428  0.50301  0.24847  1.0000
  F   F288      1.0  0.87417  0.50359  0.75213  1.0000
  F   F289      1.0  0.04379  0.04065  0.02106  1.0000
  F   F290      1.0  0.03947  0.02462  0.52369  1.0000
  F   F291      1.0  0.04821  0.53035  0.00698  1.0000
  F   F292      1.0  0.04563  0.52880  0.51383  1.0000
  F   F293      1.0  0.29109  0.03347  0.02856  1.0000
  F   F294      1.0  0.28364  0.02828  0.53583  1.0000
  F   F295      1.0  0.28854  0.52768  0.03354  1.0000
  F   F296      1.0  0.29614  0.53624  0.52839  1.0000
  F   F297      1.0  0.53492  0.02952  0.03040  1.0000
  F   F298      1.0  0.53423  0.03382  0.54213  1.0000
  F   F299      1.0  0.54926  0.52595  0.01137  1.0000
  F   F300      1.0  0.54466  0.52455  0.52797  1.0000
  F   F301      1.0  0.79444  0.03560  0.02145  1.0000
  F   F302      1.0  0.79250  0.02185  0.50752  1.0000
  F   F303      1.0  0.79303  0.51513  0.03170  1.0000
  F   F304      1.0  0.79607  0.53255  0.52005  1.0000
  F   F305      1.0  0.23137  0.39951  0.23838  1.0000
  F   F306      1.0  0.23489  0.41878  0.72308  1.0000
  F   F307      1.0  0.23185  0.91179  0.23206  1.0000
  F   F308      1.0  0.23545  0.92154  0.73100  1.0000
  F   F309      1.0  0.48380  0.41634  0.22194  1.0000
  F   F310      1.0  0.48439  0.41872  0.73072  1.0000
  F   F311      1.0  0.48357  0.90952  0.23269  1.0000
  F   F312      1.0  0.48607  0.88601  0.73913  1.0000
  F   F313      1.0  0.73947  0.41763  0.23043  1.0000
  F   F314      1.0  0.73565  0.42173  0.71427  1.0000
  F   F315      1.0  0.73128  0.91745  0.23854  1.0000
  F   F316      1.0  0.73567  0.92036  0.70493  1.0000
  F   F317      1.0  0.98431  0.41763  0.21043  1.0000
  F   F318      1.0  0.98428  0.43270  0.71436  1.0000
  F   F319      1.0  0.98584  0.92374  0.21376  1.0000
  F   F320      1.0  0.99052  0.91599  0.71278  1.0000
  F   F321      1.0  0.21217  0.46985  0.48088  1.0000
  F   F322      1.0  0.20648  0.47165  0.98315  1.0000
  F   F323      1.0  0.20139  0.96973  0.48214  1.0000
  F   F324      1.0  0.20753  0.96458  0.98379  1.0000
  F   F325      1.0  0.45421  0.46296  0.47394  1.0000
  F   F326      1.0  0.45947  0.46628  0.98582  1.0000
  F   F327      1.0  0.46856  0.96081  0.46833  1.0000
  F   F328      1.0  0.46182  0.96144  0.96373  1.0000
  F   F329      1.0  0.70938  0.48026  0.46133  1.0000
  F   F330      1.0  0.70537  0.46577  0.98110  1.0000
  F   F331      1.0  0.69867  0.97534  0.48747  1.0000
  F   F332      1.0  0.71418  0.96793  0.96041  1.0000
  F   F333      1.0  0.96335  0.45846  0.48505  1.0000
  F   F334      1.0  0.95539  0.47277  0.99165  1.0000
  F   F335      1.0  0.94610  0.96828  0.48366  1.0000
  F   F336      1.0  0.95457  0.97634  0.96284  1.0000
  F   F337      1.0  0.01746  0.07330  0.27535  1.0000
  F   F338      1.0  0.02021  0.07925  0.76791  1.0000
  F   F339      1.0  0.01998  0.57209  0.29256  1.0000
  F   F340      1.0  0.01212  0.59044  0.77310  1.0000
  F   F341      1.0  0.26323  0.10207  0.25741  1.0000
  F   F342      1.0  0.26821  0.09249  0.76808  1.0000
  F   F343      1.0  0.26715  0.58677  0.28152  1.0000
  F   F344      1.0  0.26026  0.58584  0.77665  1.0000
  F   F345      1.0  0.51830  0.07130  0.27674  1.0000
  F   F346      1.0  0.51875  0.09066  0.76867  1.0000
  F   F347      1.0  0.52103  0.58382  0.25689  1.0000
  F   F348      1.0  0.51488  0.57940  0.77988  1.0000
  F   F349      1.0  0.75926  0.10233  0.25943  1.0000
  F   F350      1.0  0.76764  0.08758  0.76880  1.0000
  F   F351      1.0  0.76730  0.59789  0.27119  1.0000
  F   F352      1.0  0.76637  0.57049  0.77507  1.0000
  F   F353      1.0  0.10038  0.41574  0.46294  1.0000
  F   F354      1.0  0.10296  0.40777  0.96606  1.0000
  F   F355      1.0  0.10092  0.88522  0.47592  1.0000
  F   F356      1.0  0.10240  0.91261  0.95585  1.0000
  F   F357      1.0  0.35108  0.40609  0.46432  1.0000
  F   F358      1.0  0.34827  0.42060  0.95688  1.0000
  F   F359      1.0  0.35409  0.90123  0.46592  1.0000
  F   F360      1.0  0.35111  0.91312  0.95442  1.0000
  F   F361      1.0  0.60475  0.41087  0.46271  1.0000
  F   F362      1.0  0.60133  0.40077  0.96208  1.0000
  F   F363      1.0  0.59684  0.89410  0.47115  1.0000
  F   F364      1.0  0.60372  0.93381  0.95834  1.0000
  F   F365      1.0  0.85390  0.41483  0.45013  1.0000
  F   F366      1.0  0.85000  0.40346  0.95961  1.0000
  F   F367      1.0  0.85652  0.90571  0.46548  1.0000
  F   F368      1.0  0.84700  0.91864  0.95774  1.0000
  F   F369      1.0  0.04914  0.29564  0.28619  1.0000
  F   F370      1.0  0.04663  0.30100  0.78304  1.0000
  F   F371      1.0  0.04530  0.79607  0.27327  1.0000
  F   F372      1.0  0.05210  0.79553  0.78911  1.0000
  F   F373      1.0  0.30688  0.29699  0.28515  1.0000
  F   F374      1.0  0.29920  0.30687  0.78904  1.0000
  F   F375      1.0  0.28878  0.79655  0.29948  1.0000
  F   F376      1.0  0.30166  0.80160  0.78181  1.0000
  F   F377      1.0  0.54730  0.30031  0.28927  1.0000
  F   F378      1.0  0.54458  0.29061  0.79657  1.0000
  F   F379      1.0  0.53831  0.79443  0.29194  1.0000
  F   F380      1.0  0.55722  0.80178  0.77934  1.0000
  F   F381      1.0  0.79779  0.29172  0.28706  1.0000
  F   F382      1.0  0.79350  0.30366  0.80235  1.0000
  F   F383      1.0  0.80140  0.80379  0.28209  1.0000
  F   F384      1.0  0.79888  0.79562  0.78538  1.0000
