data_image0
_chemical_formula_structural       Hf96F384
_chemical_formula_sum              "Hf96 F384"
_cell_length_a       31.0487
_cell_length_b       15.5284
_cell_length_c       15.5169
_cell_angle_alpha    63.342
_cell_angle_beta     63.342
_cell_angle_gamma    80.1625

_space_group_name_H-M_alt    "P 1"
_space_group_IT_number       1

loop_
  _space_group_symop_operation_xyz
  'x, y, z'

loop_
  _atom_site_type_symbol
  _atom_site_label
  _atom_site_symmetry_multiplicity
  _atom_site_fract_x
  _atom_site_fract_y
  _atom_site_fract_z
  _atom_site_occupancy
  Hf  Hf1       1.0  0.19776  0.11287  0.37075  1.0000
  Hf  Hf2       1.0  0.19377  0.09789  0.87928  1.0000
  Hf  Hf3       1.0  0.19790  0.61261  0.37372  1.0000
  Hf  Hf4       1.0  0.19807  0.61174  0.86132  1.0000
  Hf  Hf5       1.0  0.44619  0.10748  0.37118  1.0000
  Hf  Hf6       1.0  0.44285  0.10697  0.88060  1.0000
  Hf  Hf7       1.0  0.44633  0.60694  0.36684  1.0000
  Hf  Hf8       1.0  0.44552  0.60575  0.87859  1.0000
  Hf  Hf9       1.0  0.69829  0.10470  0.36258  1.0000
  Hf  Hf10      1.0  0.69715  0.11296  0.86720  1.0000
  Hf  Hf11      1.0  0.69477  0.60452  0.37278  1.0000
  Hf  Hf12      1.0  0.69848  0.61404  0.86660  1.0000
  Hf  Hf13      1.0  0.94677  0.09676  0.39238  1.0000
  Hf  Hf14      1.0  0.94608  0.10165  0.87643  1.0000
  Hf  Hf15      1.0  0.94350  0.60608  0.38076  1.0000
  Hf  Hf16      1.0  0.94542  0.60511  0.88067  1.0000
  Hf  Hf17      1.0  0.05287  0.39153  0.12721  1.0000
  Hf  Hf18      1.0  0.05714  0.39674  0.61676  1.0000
  Hf  Hf19      1.0  0.05614  0.88691  0.13169  1.0000
  Hf  Hf20      1.0  0.05915  0.90204  0.61737  1.0000
  Hf  Hf21      1.0  0.30169  0.40080  0.12100  1.0000
  Hf  Hf22      1.0  0.30363  0.40095  0.61882  1.0000
  Hf  Hf23      1.0  0.30497  0.89465  0.12286  1.0000
  Hf  Hf24      1.0  0.30382  0.89531  0.62185  1.0000
  Hf  Hf25      1.0  0.55472  0.39455  0.12206  1.0000
  Hf  Hf26      1.0  0.54751  0.39149  0.63695  1.0000
  Hf  Hf27      1.0  0.55251  0.88873  0.12992  1.0000
  Hf  Hf28      1.0  0.55130  0.88814  0.62587  1.0000
  Hf  Hf29      1.0  0.80445  0.38607  0.12768  1.0000
  Hf  Hf30      1.0  0.79650  0.39295  0.63614  1.0000
  Hf  Hf31      1.0  0.80491  0.89401  0.12159  1.0000
  Hf  Hf32      1.0  0.80636  0.89445  0.62610  1.0000
  Hf  Hf33      1.0  0.05500  0.18841  0.42055  1.0000
  Hf  Hf34      1.0  0.05728  0.17237  0.92317  1.0000
  Hf  Hf35      1.0  0.05508  0.67733  0.42323  1.0000
  Hf  Hf36      1.0  0.05710  0.68164  0.91789  1.0000
  Hf  Hf37      1.0  0.30286  0.18918  0.41646  1.0000
  Hf  Hf38      1.0  0.30646  0.18679  0.91197  1.0000
  Hf  Hf39      1.0  0.30879  0.68873  0.41595  1.0000
  Hf  Hf40      1.0  0.30508  0.68247  0.91893  1.0000
  Hf  Hf41      1.0  0.55819  0.17629  0.41117  1.0000
  Hf  Hf42      1.0  0.55161  0.18087  0.92172  1.0000
  Hf  Hf43      1.0  0.55314  0.69043  0.41102  1.0000
  Hf  Hf44      1.0  0.55344  0.68097  0.92800  1.0000
  Hf  Hf45      1.0  0.80525  0.17580  0.42236  1.0000
  Hf  Hf46      1.0  0.80416  0.18726  0.91297  1.0000
  Hf  Hf47      1.0  0.80494  0.67844  0.42097  1.0000
  Hf  Hf48      1.0  0.80617  0.67795  0.92090  1.0000
  Hf  Hf49      1.0  0.15762  0.39003  0.33413  1.0000
  Hf  Hf50      1.0  0.16355  0.38425  0.83270  1.0000
  Hf  Hf51      1.0  0.15934  0.88976  0.32911  1.0000
  Hf  Hf52      1.0  0.15964  0.88260  0.82870  1.0000
  Hf  Hf53      1.0  0.40761  0.38936  0.33296  1.0000
  Hf  Hf54      1.0  0.40662  0.38918  0.83236  1.0000
  Hf  Hf55      1.0  0.40906  0.89519  0.32438  1.0000
  Hf  Hf56      1.0  0.40642  0.88389  0.83476  1.0000
  Hf  Hf57      1.0  0.66147  0.37829  0.33364  1.0000
  Hf  Hf58      1.0  0.65425  0.38947  0.83689  1.0000
  Hf  Hf59      1.0  0.66070  0.87998  0.33651  1.0000
  Hf  Hf60      1.0  0.65814  0.89569  0.83536  1.0000
  Hf  Hf61      1.0  0.91413  0.38576  0.33478  1.0000
  Hf  Hf62      1.0  0.91301  0.38897  0.82999  1.0000
  Hf  Hf63      1.0  0.91107  0.88753  0.32958  1.0000
  Hf  Hf64      1.0  0.91396  0.88674  0.82877  1.0000
  Hf  Hf65      1.0  0.19176  0.32059  0.08639  1.0000
  Hf  Hf66      1.0  0.19910  0.32402  0.57973  1.0000
  Hf  Hf67      1.0  0.19540  0.82003  0.08476  1.0000
  Hf  Hf68      1.0  0.19529  0.82271  0.57248  1.0000
  Hf  Hf69      1.0  0.44384  0.32922  0.06949  1.0000
  Hf  Hf70      1.0  0.44219  0.31436  0.58313  1.0000
  Hf  Hf71      1.0  0.44281  0.82506  0.07898  1.0000
  Hf  Hf72      1.0  0.44651  0.81821  0.57871  1.0000
  Hf  Hf73      1.0  0.69534  0.32679  0.07456  1.0000
  Hf  Hf74      1.0  0.68968  0.30752  0.59292  1.0000
  Hf  Hf75      1.0  0.69422  0.82136  0.08378  1.0000
  Hf  Hf76      1.0  0.69279  0.81330  0.58705  1.0000
  Hf  Hf77      1.0  0.94494  0.31268  0.08667  1.0000
  Hf  Hf78      1.0  0.94340  0.31344  0.59039  1.0000
  Hf  Hf79      1.0  0.94655  0.81523  0.08220  1.0000
  Hf  Hf80      1.0  0.94807  0.81475  0.58677  1.0000
  Hf  Hf81      1.0  0.09053  0.11288  0.17230  1.0000
  Hf  Hf82      1.0  0.09332  0.11674  0.66156  1.0000
  Hf  Hf83      1.0  0.08645  0.61218  0.17363  1.0000
  Hf  Hf84      1.0  0.09184  0.61576  0.66640  1.0000
  Hf  Hf85      1.0  0.34005  0.11522  0.16520  1.0000
  Hf  Hf86      1.0  0.34067  0.11279  0.66626  1.0000
  Hf  Hf87      1.0  0.33599  0.61673  0.17145  1.0000
  Hf  Hf88      1.0  0.34061  0.61728  0.66515  1.0000
  Hf  Hf89      1.0  0.59325  0.11088  0.16690  1.0000
  Hf  Hf90      1.0  0.58620  0.10917  0.66955  1.0000
  Hf  Hf91      1.0  0.59491  0.60621  0.17110  1.0000
  Hf  Hf92      1.0  0.59180  0.61478  0.65933  1.0000
  Hf  Hf93      1.0  0.84143  0.09850  0.17146  1.0000
  Hf  Hf94      1.0  0.84142  0.10844  0.67146  1.0000
  Hf  Hf95      1.0  0.84236  0.61272  0.16402  1.0000
  Hf  Hf96      1.0  0.84751  0.61253  0.66388  1.0000
  F   F1        1.0  0.07502  0.10578  0.32319  1.0000
  F   F2        1.0  0.08559  0.13571  0.79530  1.0000
  F   F3        1.0  0.08439  0.64513  0.30208  1.0000
  F   F4        1.0  0.07541  0.62957  0.80450  1.0000
  F   F5        1.0  0.32859  0.13283  0.29965  1.0000
  F   F6        1.0  0.32954  0.13182  0.80110  1.0000
  F   F7        1.0  0.33267  0.63354  0.29490  1.0000
  F   F8        1.0  0.32970  0.62451  0.80215  1.0000
  F   F9        1.0  0.57524  0.10713  0.30847  1.0000
  F   F10       1.0  0.57608  0.11618  0.81410  1.0000
  F   F11       1.0  0.58633  0.63640  0.29993  1.0000
  F   F12       1.0  0.57694  0.61641  0.80045  1.0000
  F   F13       1.0  0.82132  0.10374  0.32762  1.0000
  F   F14       1.0  0.83185  0.12949  0.80213  1.0000
  F   F15       1.0  0.82398  0.63861  0.30076  1.0000
  F   F16       1.0  0.83083  0.64171  0.79915  1.0000
  F   F17       1.0  0.19181  0.34993  0.43556  1.0000
  F   F18       1.0  0.18571  0.32489  0.95019  1.0000
  F   F19       1.0  0.18668  0.83892  0.43745  1.0000
  F   F20       1.0  0.17813  0.84156  0.94958  1.0000
  F   F21       1.0  0.43363  0.33742  0.44040  1.0000
  F   F22       1.0  0.43632  0.35236  0.93422  1.0000
  F   F23       1.0  0.43311  0.83012  0.44914  1.0000
  F   F24       1.0  0.43394  0.84913  0.94170  1.0000
  F   F25       1.0  0.68877  0.32883  0.44364  1.0000
  F   F26       1.0  0.68087  0.33387  0.94912  1.0000
  F   F27       1.0  0.69173  0.84119  0.44466  1.0000
  F   F28       1.0  0.69018  0.84612  0.94409  1.0000
  F   F29       1.0  0.92697  0.32534  0.46361  1.0000
  F   F30       1.0  0.93962  0.34884  0.94555  1.0000
  F   F31       1.0  0.93922  0.84290  0.44162  1.0000
  F   F32       1.0  0.94038  0.83311  0.94378  1.0000
  F   F33       1.0  0.16427  0.36916  0.19779  1.0000
  F   F34       1.0  0.17524  0.37387  0.69395  1.0000
  F   F35       1.0  0.17586  0.88809  0.18760  1.0000
  F   F36       1.0  0.16353  0.85861  0.70200  1.0000
  F   F37       1.0  0.42358  0.38920  0.18671  1.0000
  F   F38       1.0  0.42379  0.35603  0.70628  1.0000
  F   F39       1.0  0.41908  0.87250  0.19544  1.0000
  F   F40       1.0  0.41153  0.86473  0.70255  1.0000
  F   F41       1.0  0.67740  0.38421  0.18624  1.0000
  F   F42       1.0  0.66456  0.35536  0.70816  1.0000
  F   F43       1.0  0.66561  0.86788  0.20068  1.0000
  F   F44       1.0  0.67192  0.86922  0.69621  1.0000
  F   F45       1.0  0.91670  0.36521  0.21054  1.0000
  F   F46       1.0  0.92098  0.35210  0.71365  1.0000
  F   F47       1.0  0.91582  0.86188  0.19783  1.0000
  F   F48       1.0  0.92885  0.88197  0.69040  1.0000
  F   F49       1.0  0.06613  0.15346  0.05902  1.0000
  F   F50       1.0  0.07087  0.16432  0.54508  1.0000
  F   F51       1.0  0.05807  0.64834  0.06777  1.0000
  F   F52       1.0  0.07005  0.67223  0.54740  1.0000
  F   F53       1.0  0.31856  0.16990  0.04193  1.0000
  F   F54       1.0  0.31507  0.15195  0.56012  1.0000
  F   F55       1.0  0.31304  0.66806  0.04596  1.0000
  F   F56       1.0  0.31441  0.66556  0.54313  1.0000
  F   F57       1.0  0.56614  0.16717  0.05740  1.0000
  F   F58       1.0  0.56911  0.15300  0.54600  1.0000
  F   F59       1.0  0.56994  0.66410  0.05212  1.0000
  F   F60       1.0  0.55550  0.66168  0.55580  1.0000
  F   F61       1.0  0.81312  0.15360  0.06694  1.0000
  F   F62       1.0  0.81414  0.15019  0.55990  1.0000
  F   F63       1.0  0.80718  0.65737  0.06762  1.0000
  F   F64       1.0  0.81881  0.64737  0.56111  1.0000
  F   F65       1.0  0.20225  0.20728  0.21722  1.0000
  F   F66       1.0  0.19945  0.20711  0.70566  1.0000
  F   F67       1.0  0.19642  0.70086  0.21585  1.0000
  F   F68       1.0  0.20697  0.69746  0.70931  1.0000
  F   F69       1.0  0.44415  0.21809  0.19239  1.0000
  F   F70       1.0  0.44929  0.19799  0.70244  1.0000
  F   F71       1.0  0.44210  0.70482  0.20629  1.0000
  F   F72       1.0  0.45664  0.70363  0.70043  1.0000
  F   F73       1.0  0.69980  0.19778  0.20762  1.0000
  F   F74       1.0  0.69534  0.18706  0.72164  1.0000
  F   F75       1.0  0.70062  0.69789  0.20568  1.0000
  F   F76       1.0  0.70477  0.69740  0.71138  1.0000
  F   F77       1.0  0.95348  0.19505  0.19918  1.0000
  F   F78       1.0  0.95836  0.19187  0.71729  1.0000
  F   F79       1.0  0.95797  0.69226  0.21654  1.0000
  F   F80       1.0  0.95306  0.70996  0.71536  1.0000
  F   F81       1.0  0.15273  0.08703  0.04901  1.0000
  F   F82       1.0  0.15041  0.08794  0.52457  1.0000
  F   F83       1.0  0.14250  0.60077  0.03928  1.0000
  F   F84       1.0  0.15135  0.59611  0.54400  1.0000
  F   F85       1.0  0.39783  0.07212  0.03554  1.0000
  F   F86       1.0  0.40085  0.08689  0.53337  1.0000
  F   F87       1.0  0.39210  0.59167  0.04138  1.0000
  F   F88       1.0  0.40181  0.60232  0.52094  1.0000
  F   F89       1.0  0.65474  0.09390  0.03633  1.0000
  F   F90       1.0  0.64667  0.08376  0.56338  1.0000
  F   F91       1.0  0.65263  0.57952  0.02224  1.0000
  F   F92       1.0  0.64768  0.59477  0.53706  1.0000
  F   F93       1.0  0.89811  0.07392  0.04721  1.0000
  F   F94       1.0  0.89958  0.09255  0.54620  1.0000
  F   F95       1.0  0.90188  0.60402  0.04033  1.0000
  F   F96       1.0  0.90188  0.58538  0.53852  1.0000
  F   F97       1.0  0.14877  0.20365  0.12842  1.0000
  F   F98       1.0  0.15407  0.19991  0.61284  1.0000
  F   F99       1.0  0.14757  0.69784  0.12554  1.0000
  F   F100      1.0  0.15006  0.70148  0.62547  1.0000
  F   F101      1.0  0.39916  0.20639  0.09428  1.0000
  F   F102      1.0  0.39948  0.19485  0.61329  1.0000
  F   F103      1.0  0.39324  0.71269  0.11066  1.0000
  F   F104      1.0  0.40070  0.68994  0.63207  1.0000
  F   F105      1.0  0.65066  0.19375  0.12800  1.0000
  F   F106      1.0  0.64912  0.19723  0.63523  1.0000
  F   F107      1.0  0.65207  0.68531  0.12744  1.0000
  F   F108      1.0  0.65534  0.70267  0.61742  1.0000
  F   F109      1.0  0.88925  0.19012  0.14174  1.0000
  F   F110      1.0  0.90476  0.19605  0.63355  1.0000
  F   F111      1.0  0.90258  0.70156  0.14373  1.0000
  F   F112      1.0  0.91212  0.68709  0.61952  1.0000
  F   F113      1.0  0.09013  0.31033  0.37902  1.0000
  F   F114      1.0  0.10534  0.29761  0.88134  1.0000
  F   F115      1.0  0.09697  0.79625  0.36052  1.0000
  F   F116      1.0  0.10352  0.78683  0.89476  1.0000
  F   F117      1.0  0.34609  0.30151  0.37823  1.0000
  F   F118      1.0  0.34208  0.30948  0.87597  1.0000
  F   F119      1.0  0.34608  0.82184  0.37748  1.0000
  F   F120      1.0  0.34574  0.81559  0.87356  1.0000
  F   F121      1.0  0.60397  0.29220  0.35643  1.0000
  F   F122      1.0  0.59286  0.31735  0.89592  1.0000
  F   F123      1.0  0.59769  0.80505  0.37619  1.0000
  F   F124      1.0  0.58959  0.81480  0.88983  1.0000
  F   F125      1.0  0.85565  0.29780  0.39802  1.0000
  F   F126      1.0  0.84545  0.29307  0.88991  1.0000
  F   F127      1.0  0.84504  0.78905  0.39331  1.0000
  F   F128      1.0  0.84951  0.79183  0.86719  1.0000
  F   F129      1.0  0.06197  0.24268  0.15970  1.0000
  F   F130      1.0  0.05865  0.25652  0.65202  1.0000
  F   F131      1.0  0.06216  0.75673  0.13658  1.0000
  F   F132      1.0  0.06623  0.76152  0.64416  1.0000
  F   F133      1.0  0.31365  0.26038  0.14018  1.0000
  F   F134      1.0  0.30972  0.25926  0.64954  1.0000
  F   F135      1.0  0.30512  0.75277  0.15528  1.0000
  F   F136      1.0  0.31278  0.75531  0.63840  1.0000
  F   F137      1.0  0.56542  0.24798  0.14180  1.0000
  F   F138      1.0  0.57090  0.24772  0.63875  1.0000
  F   F139      1.0  0.56014  0.74923  0.15109  1.0000
  F   F140      1.0  0.56953  0.75147  0.62273  1.0000
  F   F141      1.0  0.81216  0.24482  0.15711  1.0000
  F   F142      1.0  0.80622  0.24496  0.65317  1.0000
  F   F143      1.0  0.82052  0.75662  0.14047  1.0000
  F   F144      1.0  0.81779  0.74145  0.64500  1.0000
  F   F145      1.0  0.12304  0.36855  0.11171  1.0000
  F   F146      1.0  0.12824  0.38093  0.59181  1.0000
  F   F147      1.0  0.12457  0.87284  0.11403  1.0000
  F   F148      1.0  0.13191  0.88620  0.57707  1.0000
  F   F149      1.0  0.37362  0.37294  0.10806  1.0000
  F   F150      1.0  0.37578  0.37582  0.60805  1.0000
  F   F151      1.0  0.37814  0.88766  0.10592  1.0000
  F   F152      1.0  0.37516  0.87826  0.59741  1.0000
  F   F153      1.0  0.62247  0.37397  0.12407  1.0000
  F   F154      1.0  0.62428  0.37235  0.60470  1.0000
  F   F155      1.0  0.62537  0.84586  0.11981  1.0000
  F   F156      1.0  0.62596  0.88420  0.60702  1.0000
  F   F157      1.0  0.87512  0.35752  0.12571  1.0000
  F   F158      1.0  0.87284  0.36064  0.62254  1.0000
  F   F159      1.0  0.87537  0.88475  0.08601  1.0000
  F   F160      1.0  0.87707  0.86211  0.62176  1.0000
  F   F161      1.0  0.17756  0.25371  0.36286  1.0000
  F   F162      1.0  0.19207  0.23599  0.85026  1.0000
  F   F163      1.0  0.18280  0.75495  0.35096  1.0000
  F   F164      1.0  0.19569  0.74644  0.84752  1.0000
  F   F165      1.0  0.43500  0.24232  0.34318  1.0000
  F   F166      1.0  0.43515  0.24991  0.85211  1.0000
  F   F167      1.0  0.44044  0.74481  0.33823  1.0000
  F   F168      1.0  0.43538  0.75147  0.85303  1.0000
  F   F169      1.0  0.68135  0.23781  0.36322  1.0000
  F   F170      1.0  0.68173  0.25328  0.86427  1.0000
  F   F171      1.0  0.68605  0.74735  0.35875  1.0000
  F   F172      1.0  0.68500  0.75188  0.85413  1.0000
  F   F173      1.0  0.94572  0.24175  0.33865  1.0000
  F   F174      1.0  0.92973  0.23850  0.89350  1.0000
  F   F175      1.0  0.93638  0.74817  0.35429  1.0000
  F   F176      1.0  0.92215  0.74514  0.87699  1.0000
  F   F177      1.0  0.12615  0.13785  0.38297  1.0000
  F   F178      1.0  0.12767  0.12783  0.89366  1.0000
  F   F179      1.0  0.12009  0.60667  0.42130  1.0000
  F   F180      1.0  0.12315  0.61843  0.89111  1.0000
  F   F181      1.0  0.37802  0.12556  0.38040  1.0000
  F   F182      1.0  0.37698  0.15011  0.86912  1.0000
  F   F183      1.0  0.37484  0.63522  0.38513  1.0000
  F   F184      1.0  0.37726  0.64855  0.88655  1.0000
  F   F185      1.0  0.62401  0.11400  0.40428  1.0000
  F   F186      1.0  0.62228  0.15169  0.88827  1.0000
  F   F187      1.0  0.62417  0.63136  0.39952  1.0000
  F   F188      1.0  0.62138  0.64592  0.87731  1.0000
  F   F189      1.0  0.87995  0.12758  0.39082  1.0000
  F   F190      1.0  0.87961  0.12989  0.88460  1.0000
  F   F191      1.0  0.87243  0.62839  0.39177  1.0000
  F   F192      1.0  0.87448  0.61103  0.91511  1.0000
  F   F193      1.0  0.00256  0.35763  0.08492  1.0000
  F   F194      1.0  0.00495  0.35683  0.57361  1.0000
  F   F195      1.0  0.00668  0.86385  0.08203  1.0000
  F   F196      1.0  0.00971  0.86368  0.56480  1.0000
  F   F197      1.0  0.25681  0.38407  0.05385  1.0000
  F   F198      1.0  0.26033  0.37980  0.55311  1.0000
  F   F199      1.0  0.26179  0.86196  0.06222  1.0000
  F   F200      1.0  0.25275  0.86032  0.58901  1.0000
  F   F201      1.0  0.50984  0.37463  0.06360  1.0000
  F   F202      1.0  0.50520  0.34961  0.58534  1.0000
  F   F203      1.0  0.50730  0.85719  0.07607  1.0000
  F   F204      1.0  0.51283  0.86071  0.56103  1.0000
  F   F205      1.0  0.75797  0.35615  0.08337  1.0000
  F   F206      1.0  0.75418  0.36604  0.56540  1.0000
  F   F207      1.0  0.75791  0.86355  0.07262  1.0000
  F   F208      1.0  0.75658  0.86106  0.58232  1.0000
  F   F209      1.0  0.06883  0.47931  0.18294  1.0000
  F   F210      1.0  0.06335  0.48689  0.67899  1.0000
  F   F211      1.0  0.06658  0.97588  0.18527  1.0000
  F   F212      1.0  0.06367  0.99008  0.67640  1.0000
  F   F213      1.0  0.31392  0.50039  0.17010  1.0000
  F   F214      1.0  0.32130  0.49134  0.67401  1.0000
  F   F215      1.0  0.31859  0.98359  0.18324  1.0000
  F   F216      1.0  0.31578  0.98453  0.67453  1.0000
  F   F217      1.0  0.56469  0.49053  0.17483  1.0000
  F   F218      1.0  0.56763  0.47980  0.68205  1.0000
  F   F219      1.0  0.56807  0.98652  0.17023  1.0000
  F   F220      1.0  0.55727  0.98560  0.69237  1.0000
  F   F221      1.0  0.82113  0.48445  0.17467  1.0000
  F   F222      1.0  0.82267  0.48606  0.67149  1.0000
  F   F223      1.0  0.82133  0.97183  0.17781  1.0000
  F   F224      1.0  0.81527  0.98503  0.68320  1.0000
  F   F225      1.0  0.24436  0.14819  0.40903  1.0000
  F   F226      1.0  0.24788  0.13993  0.92008  1.0000
  F   F227      1.0  0.24599  0.64918  0.40516  1.0000
  F   F228      1.0  0.24386  0.64091  0.92059  1.0000
  F   F229      1.0  0.49308  0.12975  0.42986  1.0000
  F   F230      1.0  0.48809  0.13418  0.93023  1.0000
  F   F231      1.0  0.49862  0.65087  0.40106  1.0000
  F   F232      1.0  0.48619  0.64430  0.93961  1.0000
  F   F233      1.0  0.73860  0.14254  0.41397  1.0000
  F   F234      1.0  0.74324  0.14606  0.91198  1.0000
  F   F235      1.0  0.74206  0.63368  0.43028  1.0000
  F   F236      1.0  0.74705  0.62557  0.92491  1.0000
  F   F237      1.0  0.99253  0.13809  0.43567  1.0000
  F   F238      1.0  0.99513  0.12789  0.91826  1.0000
  F   F239      1.0  0.98944  0.62892  0.43418  1.0000
  F   F240      1.0  0.99333  0.65983  0.90126  1.0000
  F   F241      1.0  0.18457  0.02163  0.31814  1.0000
  F   F242      1.0  0.17973  0.01837  0.81664  1.0000
  F   F243      1.0  0.17887  0.50873  0.34246  1.0000
  F   F244      1.0  0.18373  0.52261  0.80182  1.0000
  F   F245      1.0  0.43142  0.01986  0.31657  1.0000
  F   F246      1.0  0.42755  0.00202  0.84646  1.0000
  F   F247      1.0  0.43214  0.52267  0.30972  1.0000
  F   F248      1.0  0.43121  0.52318  0.82396  1.0000
  F   F249      1.0  0.68767  0.01602  0.30695  1.0000
  F   F250      1.0  0.67725  0.01165  0.84322  1.0000
  F   F251      1.0  0.68138  0.51022  0.31932  1.0000
  F   F252      1.0  0.68098  0.51552  0.83046  1.0000
  F   F253      1.0  0.92982  0.00911  0.33573  1.0000
  F   F254      1.0  0.94282  0.01053  0.81755  1.0000
  F   F255      1.0  0.93499  0.51224  0.32826  1.0000
  F   F256      1.0  0.93549  0.51456  0.81642  1.0000
  F   F257      1.0  0.00016  0.23882  0.99901  1.0000
  F   F258      1.0  0.00155  0.25538  0.49469  1.0000
  F   F259      1.0  0.00539  0.75394  0.99418  1.0000
  F   F260      1.0  0.00213  0.75063  0.50315  1.0000
  F   F261      1.0  0.25382  0.25651  0.00210  1.0000
  F   F262      1.0  0.25405  0.24898  0.50583  1.0000
  F   F263      1.0  0.24776  0.75999  0.98661  1.0000
  F   F264      1.0  0.25379  0.75019  0.48942  1.0000
  F   F265      1.0  0.49808  0.24847  0.00159  1.0000
  F   F266      1.0  0.49965  0.24494  0.50080  1.0000
  F   F267      1.0  0.49445  0.74333  0.01285  1.0000
  F   F268      1.0  0.49490  0.74349  0.50101  1.0000
  F   F269      1.0  0.75339  0.25472  0.99663  1.0000
  F   F270      1.0  0.74586  0.23113  0.51260  1.0000
  F   F271      1.0  0.74952  0.74135  0.00088  1.0000
  F   F272      1.0  0.75384  0.74647  0.49888  1.0000
  F   F273      1.0  0.12093  0.99802  0.25656  1.0000
  F   F274      1.0  0.12695  0.99320  0.74186  1.0000
  F   F275      1.0  0.12857  0.51189  0.24320  1.0000
  F   F276      1.0  0.12012  0.49807  0.75947  1.0000
  F   F277      1.0  0.37432  0.00652  0.24468  1.0000
  F   F278      1.0  0.38064  0.00830  0.73705  1.0000
  F   F279      1.0  0.37530  0.50534  0.25047  1.0000
  F   F280      1.0  0.37437  0.49300  0.74887  1.0000
  F   F281      1.0  0.62410  0.98675  0.25819  1.0000
  F   F282      1.0  0.63092  0.00641  0.74780  1.0000
  F   F283      1.0  0.62326  0.49515  0.24853  1.0000
  F   F284      1.0  0.63482  0.50396  0.73130  1.0000
  F   F285      1.0  0.88214  0.99775  0.24205  1.0000
  F   F286      1.0  0.88061  0.99870  0.74748  1.0000
  F   F287      1.0  0.87886  0.50239  0.25402  1.0000
  F   F288      1.0  0.87045  0.49233  0.76736  1.0000
  F   F289      1.0  0.03549  0.02363  0.03451  1.0000
  F   F290      1.0  0.04055  0.03948  0.53001  1.0000
  F   F291      1.0  0.04027  0.52728  0.02020  1.0000
  F   F292      1.0  0.03482  0.52540  0.53758  1.0000
  F   F293      1.0  0.29482  0.03132  0.02211  1.0000
  F   F294      1.0  0.29156  0.04370  0.51803  1.0000
  F   F295      1.0  0.28636  0.53937  0.02872  1.0000
  F   F296      1.0  0.28422  0.54813  0.52072  1.0000
  F   F297      1.0  0.53699  0.04279  0.02161  1.0000
  F   F298      1.0  0.54879  0.02788  0.51305  1.0000
  F   F299      1.0  0.53720  0.54582  0.02191  1.0000
  F   F300      1.0  0.54786  0.51429  0.51963  1.0000
  F   F301      1.0  0.79573  0.02796  0.01386  1.0000
  F   F302      1.0  0.79042  0.02860  0.52829  1.0000
  F   F303      1.0  0.79912  0.51889  0.02727  1.0000
  F   F304      1.0  0.78235  0.52979  0.53323  1.0000
  F   F305      1.0  0.23235  0.41553  0.21423  1.0000
  F   F306      1.0  0.23720  0.42913  0.71516  1.0000
  F   F307      1.0  0.23872  0.91743  0.22010  1.0000
  F   F308      1.0  0.23357  0.91123  0.72339  1.0000
  F   F309      1.0  0.48787  0.39770  0.23394  1.0000
  F   F310      1.0  0.48071  0.41964  0.73350  1.0000
  F   F311      1.0  0.48393  0.92356  0.21789  1.0000
  F   F312      1.0  0.47925  0.90636  0.71426  1.0000
  F   F313      1.0  0.73635  0.39658  0.24115  1.0000
  F   F314      1.0  0.72987  0.41705  0.72221  1.0000
  F   F315      1.0  0.73215  0.90614  0.22500  1.0000
  F   F316      1.0  0.73142  0.91372  0.73257  1.0000
  F   F317      1.0  0.98889  0.41908  0.21958  1.0000
  F   F318      1.0  0.98843  0.39837  0.72999  1.0000
  F   F319      1.0  0.98007  0.90207  0.24066  1.0000
  F   F320      1.0  0.99147  0.88367  0.74545  1.0000
  F   F321      1.0  0.21222  0.47501  0.47203  1.0000
  F   F322      1.0  0.19754  0.46477  0.97848  1.0000
  F   F323      1.0  0.20997  0.96859  0.47597  1.0000
  F   F324      1.0  0.20898  0.96561  0.97806  1.0000
  F   F325      1.0  0.46492  0.46336  0.46763  1.0000
  F   F326      1.0  0.46461  0.47770  0.97520  1.0000
  F   F327      1.0  0.45974  0.95678  0.47164  1.0000
  F   F328      1.0  0.45929  0.96546  0.98251  1.0000
  F   F329      1.0  0.70079  0.46249  0.47620  1.0000
  F   F330      1.0  0.71978  0.45858  0.96268  1.0000
  F   F331      1.0  0.70667  0.96613  0.47818  1.0000
  F   F332      1.0  0.70737  0.97085  0.98275  1.0000
  F   F333      1.0  0.95224  0.45173  0.48811  1.0000
  F   F334      1.0  0.95336  0.46501  0.98745  1.0000
  F   F335      1.0  0.95350  0.96276  0.49109  1.0000
  F   F336      1.0  0.95844  0.96771  0.97374  1.0000
  F   F337      1.0  0.01655  0.07798  0.28029  1.0000
  F   F338      1.0  0.01919  0.07948  0.77358  1.0000
  F   F339      1.0  0.01682  0.57310  0.29956  1.0000
  F   F340      1.0  0.00890  0.58670  0.77300  1.0000
  F   F341      1.0  0.26574  0.10372  0.25851  1.0000
  F   F342      1.0  0.25979  0.08922  0.77071  1.0000
  F   F343      1.0  0.26197  0.59512  0.26289  1.0000
  F   F344      1.0  0.26787  0.58734  0.75748  1.0000
  F   F345      1.0  0.51337  0.10172  0.25828  1.0000
  F   F346      1.0  0.51026  0.10311  0.76221  1.0000
  F   F347      1.0  0.51487  0.58994  0.26933  1.0000
  F   F348      1.0  0.50814  0.60295  0.76908  1.0000
  F   F349      1.0  0.76914  0.08168  0.26358  1.0000
  F   F350      1.0  0.76443  0.07353  0.78800  1.0000
  F   F351      1.0  0.76357  0.58068  0.27959  1.0000
  F   F352      1.0  0.76787  0.59256  0.76608  1.0000
  F   F353      1.0  0.09944  0.39875  0.45896  1.0000
  F   F354      1.0  0.10548  0.41475  0.96563  1.0000
  F   F355      1.0  0.10576  0.91719  0.44744  1.0000
  F   F356      1.0  0.09686  0.91344  0.97339  1.0000
  F   F357      1.0  0.34982  0.40816  0.46222  1.0000
  F   F358      1.0  0.35178  0.42789  0.95888  1.0000
  F   F359      1.0  0.34706  0.91492  0.46582  1.0000
  F   F360      1.0  0.35083  0.89822  0.97273  1.0000
  F   F361      1.0  0.60181  0.39113  0.45495  1.0000
  F   F362      1.0  0.60670  0.43015  0.96320  1.0000
  F   F363      1.0  0.60561  0.90557  0.45970  1.0000
  F   F364      1.0  0.59734  0.91683  0.97502  1.0000
  F   F365      1.0  0.84614  0.41423  0.47761  1.0000
  F   F366      1.0  0.85271  0.39862  0.96458  1.0000
  F   F367      1.0  0.85307  0.90179  0.46838  1.0000
  F   F368      1.0  0.85506  0.91413  0.94629  1.0000
  F   F369      1.0  0.04882  0.28804  0.29231  1.0000
  F   F370      1.0  0.04953  0.29641  0.80784  1.0000
  F   F371      1.0  0.03782  0.79766  0.29955  1.0000
  F   F372      1.0  0.06829  0.80081  0.77657  1.0000
  F   F373      1.0  0.29740  0.31576  0.28653  1.0000
  F   F374      1.0  0.29086  0.30916  0.79564  1.0000
  F   F375      1.0  0.30015  0.80780  0.29387  1.0000
  F   F376      1.0  0.29408  0.80276  0.78409  1.0000
  F   F377      1.0  0.54692  0.28156  0.28419  1.0000
  F   F378      1.0  0.54206  0.30297  0.79291  1.0000
  F   F379      1.0  0.55217  0.81045  0.27850  1.0000
  F   F380      1.0  0.54178  0.78192  0.79136  1.0000
  F   F381      1.0  0.80247  0.29692  0.29817  1.0000
  F   F382      1.0  0.79541  0.29919  0.79671  1.0000
  F   F383      1.0  0.79266  0.80403  0.28682  1.0000
  F   F384      1.0  0.78838  0.79857  0.78905  1.0000
