data_image0
_chemical_formula_structural       Hf96F384
_chemical_formula_sum              "Hf96 F384"
_cell_length_a       31.0106
_cell_length_b       15.5038
_cell_length_c       15.4982
_cell_angle_alpha    63.342
_cell_angle_beta     63.342
_cell_angle_gamma    80.1625

_space_group_name_H-M_alt    "P 1"
_space_group_IT_number       1

loop_
  _space_group_symop_operation_xyz
  'x, y, z'

loop_
  _atom_site_type_symbol
  _atom_site_label
  _atom_site_symmetry_multiplicity
  _atom_site_fract_x
  _atom_site_fract_y
  _atom_site_fract_z
  _atom_site_occupancy
  Hf  Hf1       1.0  0.19806  0.10914  0.37735  1.0000
  Hf  Hf2       1.0  0.19665  0.10095  0.87128  1.0000
  Hf  Hf3       1.0  0.20133  0.61289  0.37636  1.0000
  Hf  Hf4       1.0  0.20002  0.60863  0.86683  1.0000
  Hf  Hf5       1.0  0.44491  0.10775  0.38139  1.0000
  Hf  Hf6       1.0  0.44693  0.10961  0.87022  1.0000
  Hf  Hf7       1.0  0.44373  0.60704  0.37856  1.0000
  Hf  Hf8       1.0  0.44771  0.60324  0.88054  1.0000
  Hf  Hf9       1.0  0.69961  0.11629  0.36835  1.0000
  Hf  Hf10      1.0  0.69235  0.10964  0.88124  1.0000
  Hf  Hf11      1.0  0.69554  0.60706  0.38601  1.0000
  Hf  Hf12      1.0  0.69798  0.60905  0.87190  1.0000
  Hf  Hf13      1.0  0.94212  0.10421  0.37427  1.0000
  Hf  Hf14      1.0  0.94394  0.10525  0.87989  1.0000
  Hf  Hf15      1.0  0.94791  0.60575  0.37157  1.0000
  Hf  Hf16      1.0  0.94861  0.60192  0.87657  1.0000
  Hf  Hf17      1.0  0.05419  0.39635  0.11922  1.0000
  Hf  Hf18      1.0  0.05153  0.39470  0.62029  1.0000
  Hf  Hf19      1.0  0.05234  0.89484  0.13075  1.0000
  Hf  Hf20      1.0  0.05238  0.89419  0.62331  1.0000
  Hf  Hf21      1.0  0.30313  0.39310  0.12218  1.0000
  Hf  Hf22      1.0  0.30448  0.39499  0.62272  1.0000
  Hf  Hf23      1.0  0.30538  0.88477  0.13043  1.0000
  Hf  Hf24      1.0  0.30522  0.89163  0.62853  1.0000
  Hf  Hf25      1.0  0.55049  0.39229  0.13848  1.0000
  Hf  Hf26      1.0  0.55252  0.38861  0.62962  1.0000
  Hf  Hf27      1.0  0.55425  0.89289  0.12324  1.0000
  Hf  Hf28      1.0  0.55823  0.89885  0.61422  1.0000
  Hf  Hf29      1.0  0.80602  0.39379  0.11961  1.0000
  Hf  Hf30      1.0  0.80254  0.39701  0.61700  1.0000
  Hf  Hf31      1.0  0.80442  0.89514  0.11600  1.0000
  Hf  Hf32      1.0  0.80179  0.89572  0.62752  1.0000
  Hf  Hf33      1.0  0.05510  0.18620  0.40522  1.0000
  Hf  Hf34      1.0  0.05580  0.17814  0.91256  1.0000
  Hf  Hf35      1.0  0.05690  0.68238  0.42004  1.0000
  Hf  Hf36      1.0  0.05665  0.68708  0.91497  1.0000
  Hf  Hf37      1.0  0.30959  0.18605  0.41722  1.0000
  Hf  Hf38      1.0  0.30572  0.18176  0.91610  1.0000
  Hf  Hf39      1.0  0.30660  0.68430  0.42101  1.0000
  Hf  Hf40      1.0  0.30547  0.68310  0.92252  1.0000
  Hf  Hf41      1.0  0.55830  0.18515  0.41840  1.0000
  Hf  Hf42      1.0  0.55559  0.18118  0.91815  1.0000
  Hf  Hf43      1.0  0.55730  0.68301  0.40930  1.0000
  Hf  Hf44      1.0  0.55606  0.67781  0.91829  1.0000
  Hf  Hf45      1.0  0.80372  0.18414  0.42015  1.0000
  Hf  Hf46      1.0  0.80528  0.18047  0.91365  1.0000
  Hf  Hf47      1.0  0.80876  0.68734  0.40744  1.0000
  Hf  Hf48      1.0  0.80567  0.67737  0.91486  1.0000
  Hf  Hf49      1.0  0.15744  0.39165  0.33347  1.0000
  Hf  Hf50      1.0  0.15931  0.37937  0.83710  1.0000
  Hf  Hf51      1.0  0.15963  0.89128  0.33506  1.0000
  Hf  Hf52      1.0  0.15877  0.88318  0.83248  1.0000
  Hf  Hf53      1.0  0.40824  0.39062  0.33376  1.0000
  Hf  Hf54      1.0  0.40544  0.38389  0.84041  1.0000
  Hf  Hf55      1.0  0.41121  0.89854  0.32645  1.0000
  Hf  Hf56      1.0  0.41108  0.88594  0.83042  1.0000
  Hf  Hf57      1.0  0.66339  0.39698  0.33028  1.0000
  Hf  Hf58      1.0  0.65772  0.39160  0.83387  1.0000
  Hf  Hf59      1.0  0.66181  0.88871  0.33360  1.0000
  Hf  Hf60      1.0  0.65442  0.88564  0.83536  1.0000
  Hf  Hf61      1.0  0.90980  0.38724  0.33346  1.0000
  Hf  Hf62      1.0  0.90921  0.38652  0.83412  1.0000
  Hf  Hf63      1.0  0.90649  0.89650  0.32979  1.0000
  Hf  Hf64      1.0  0.90438  0.89002  0.83282  1.0000
  Hf  Hf65      1.0  0.19171  0.31226  0.08544  1.0000
  Hf  Hf66      1.0  0.19097  0.31267  0.59007  1.0000
  Hf  Hf67      1.0  0.19494  0.82043  0.07781  1.0000
  Hf  Hf68      1.0  0.19550  0.81585  0.57987  1.0000
  Hf  Hf69      1.0  0.43931  0.31379  0.08701  1.0000
  Hf  Hf70      1.0  0.44173  0.31893  0.58906  1.0000
  Hf  Hf71      1.0  0.44396  0.81782  0.08016  1.0000
  Hf  Hf72      1.0  0.44759  0.81295  0.58288  1.0000
  Hf  Hf73      1.0  0.69168  0.31686  0.08637  1.0000
  Hf  Hf74      1.0  0.69336  0.31776  0.58343  1.0000
  Hf  Hf75      1.0  0.69493  0.81430  0.08303  1.0000
  Hf  Hf76      1.0  0.69356  0.81441  0.58301  1.0000
  Hf  Hf77      1.0  0.94604  0.31223  0.08514  1.0000
  Hf  Hf78      1.0  0.94278  0.31775  0.58041  1.0000
  Hf  Hf79      1.0  0.94375  0.82086  0.08504  1.0000
  Hf  Hf80      1.0  0.94557  0.81652  0.58444  1.0000
  Hf  Hf81      1.0  0.09042  0.11526  0.15677  1.0000
  Hf  Hf82      1.0  0.08803  0.10962  0.67042  1.0000
  Hf  Hf83      1.0  0.08925  0.61023  0.17477  1.0000
  Hf  Hf84      1.0  0.09214  0.61111  0.66926  1.0000
  Hf  Hf85      1.0  0.33780  0.10800  0.16759  1.0000
  Hf  Hf86      1.0  0.34265  0.10806  0.67289  1.0000
  Hf  Hf87      1.0  0.34400  0.60428  0.16751  1.0000
  Hf  Hf88      1.0  0.34241  0.61052  0.67250  1.0000
  Hf  Hf89      1.0  0.59196  0.10891  0.17136  1.0000
  Hf  Hf90      1.0  0.59188  0.10625  0.67123  1.0000
  Hf  Hf91      1.0  0.59200  0.61282  0.16302  1.0000
  Hf  Hf92      1.0  0.59220  0.61408  0.66960  1.0000
  Hf  Hf93      1.0  0.84338  0.12074  0.16115  1.0000
  Hf  Hf94      1.0  0.83501  0.11601  0.66484  1.0000
  Hf  Hf95      1.0  0.84116  0.61561  0.16155  1.0000
  Hf  Hf96      1.0  0.84302  0.61149  0.66127  1.0000
  F   F1        1.0  0.08019  0.13968  0.28753  1.0000
  F   F2        1.0  0.07799  0.13125  0.79704  1.0000
  F   F3        1.0  0.07581  0.60995  0.32814  1.0000
  F   F4        1.0  0.08647  0.64666  0.79357  1.0000
  F   F5        1.0  0.32641  0.12389  0.31182  1.0000
  F   F6        1.0  0.32650  0.11522  0.81049  1.0000
  F   F7        1.0  0.32379  0.61868  0.30525  1.0000
  F   F8        1.0  0.32863  0.62210  0.81721  1.0000
  F   F9        1.0  0.57962  0.12596  0.30688  1.0000
  F   F10       1.0  0.58242  0.13683  0.80231  1.0000
  F   F11       1.0  0.58094  0.62199  0.30326  1.0000
  F   F12       1.0  0.57765  0.61785  0.80942  1.0000
  F   F13       1.0  0.82793  0.13417  0.30313  1.0000
  F   F14       1.0  0.82845  0.12323  0.80054  1.0000
  F   F15       1.0  0.82848  0.63146  0.30001  1.0000
  F   F16       1.0  0.83323  0.62892  0.79747  1.0000
  F   F17       1.0  0.18370  0.34665  0.45139  1.0000
  F   F18       1.0  0.18825  0.33973  0.94658  1.0000
  F   F19       1.0  0.19962  0.85048  0.43486  1.0000
  F   F20       1.0  0.18738  0.84469  0.94390  1.0000
  F   F21       1.0  0.43534  0.34086  0.45147  1.0000
  F   F22       1.0  0.43356  0.34484  0.94709  1.0000
  F   F23       1.0  0.43296  0.83834  0.44908  1.0000
  F   F24       1.0  0.43494  0.83406  0.95014  1.0000
  F   F25       1.0  0.69444  0.35210  0.43071  1.0000
  F   F26       1.0  0.68877  0.34226  0.95038  1.0000
  F   F27       1.0  0.67974  0.83509  0.45901  1.0000
  F   F28       1.0  0.67941  0.83904  0.94947  1.0000
  F   F29       1.0  0.93269  0.34224  0.44997  1.0000
  F   F30       1.0  0.93860  0.33776  0.94084  1.0000
  F   F31       1.0  0.93302  0.84550  0.44271  1.0000
  F   F32       1.0  0.93697  0.85671  0.93242  1.0000
  F   F33       1.0  0.17029  0.37188  0.19611  1.0000
  F   F34       1.0  0.17235  0.38173  0.69055  1.0000
  F   F35       1.0  0.16572  0.85252  0.20896  1.0000
  F   F36       1.0  0.17547  0.87431  0.69038  1.0000
  F   F37       1.0  0.41759  0.36805  0.20006  1.0000
  F   F38       1.0  0.41734  0.36878  0.70625  1.0000
  F   F39       1.0  0.42858  0.88616  0.18118  1.0000
  F   F40       1.0  0.42258  0.86541  0.69474  1.0000
  F   F41       1.0  0.67172  0.37045  0.19756  1.0000
  F   F42       1.0  0.67255  0.36942  0.69972  1.0000
  F   F43       1.0  0.67637  0.88278  0.18913  1.0000
  F   F44       1.0  0.67185  0.88592  0.68436  1.0000
  F   F45       1.0  0.92153  0.37277  0.19781  1.0000
  F   F46       1.0  0.91048  0.36695  0.69817  1.0000
  F   F47       1.0  0.92352  0.87813  0.18735  1.0000
  F   F48       1.0  0.91820  0.86410  0.69963  1.0000
  F   F49       1.0  0.06209  0.15748  0.04877  1.0000
  F   F50       1.0  0.06260  0.15608  0.55244  1.0000
  F   F51       1.0  0.05844  0.64811  0.06224  1.0000
  F   F52       1.0  0.05833  0.64705  0.57372  1.0000
  F   F53       1.0  0.31859  0.14743  0.04912  1.0000
  F   F54       1.0  0.31576  0.15093  0.56412  1.0000
  F   F55       1.0  0.30778  0.65424  0.06796  1.0000
  F   F56       1.0  0.32057  0.66623  0.54706  1.0000
  F   F57       1.0  0.56845  0.16406  0.05058  1.0000
  F   F58       1.0  0.56381  0.15215  0.55756  1.0000
  F   F59       1.0  0.56992  0.67050  0.04403  1.0000
  F   F60       1.0  0.55949  0.64550  0.57251  1.0000
  F   F61       1.0  0.82098  0.15427  0.04611  1.0000
  F   F62       1.0  0.81902  0.16380  0.54328  1.0000
  F   F63       1.0  0.81417  0.64648  0.05364  1.0000
  F   F64       1.0  0.81297  0.65824  0.54675  1.0000
  F   F65       1.0  0.20068  0.19207  0.21366  1.0000
  F   F66       1.0  0.21427  0.20384  0.70722  1.0000
  F   F67       1.0  0.20724  0.69626  0.22311  1.0000
  F   F68       1.0  0.20225  0.69788  0.70971  1.0000
  F   F69       1.0  0.45620  0.20191  0.20997  1.0000
  F   F70       1.0  0.45843  0.19746  0.71266  1.0000
  F   F71       1.0  0.44739  0.70160  0.21174  1.0000
  F   F72       1.0  0.45501  0.70211  0.71469  1.0000
  F   F73       1.0  0.70238  0.19178  0.21876  1.0000
  F   F74       1.0  0.69055  0.20147  0.72438  1.0000
  F   F75       1.0  0.69301  0.70091  0.21435  1.0000
  F   F76       1.0  0.70663  0.70797  0.70250  1.0000
  F   F77       1.0  0.94681  0.19302  0.21703  1.0000
  F   F78       1.0  0.95754  0.21064  0.70147  1.0000
  F   F79       1.0  0.95534  0.69880  0.20791  1.0000
  F   F80       1.0  0.95859  0.70303  0.70920  1.0000
  F   F81       1.0  0.14718  0.08700  0.03823  1.0000
  F   F82       1.0  0.15087  0.08890  0.54621  1.0000
  F   F83       1.0  0.14724  0.59761  0.05454  1.0000
  F   F84       1.0  0.14938  0.59942  0.53954  1.0000
  F   F85       1.0  0.39657  0.08472  0.04202  1.0000
  F   F86       1.0  0.39811  0.10756  0.53511  1.0000
  F   F87       1.0  0.39694  0.57357  0.04495  1.0000
  F   F88       1.0  0.40268  0.58055  0.54642  1.0000
  F   F89       1.0  0.65176  0.09165  0.04731  1.0000
  F   F90       1.0  0.64995  0.08226  0.55347  1.0000
  F   F91       1.0  0.65405  0.58858  0.03448  1.0000
  F   F92       1.0  0.64984  0.60159  0.53858  1.0000
  F   F93       1.0  0.90156  0.09133  0.04329  1.0000
  F   F94       1.0  0.90028  0.10489  0.53183  1.0000
  F   F95       1.0  0.89842  0.59090  0.04206  1.0000
  F   F96       1.0  0.89980  0.59232  0.53430  1.0000
  F   F97       1.0  0.14896  0.20172  0.12088  1.0000
  F   F98       1.0  0.15134  0.19881  0.64149  1.0000
  F   F99       1.0  0.15126  0.69641  0.14608  1.0000
  F   F100      1.0  0.14907  0.71225  0.61061  1.0000
  F   F101      1.0  0.39684  0.19359  0.12411  1.0000
  F   F102      1.0  0.39818  0.19324  0.65085  1.0000
  F   F103      1.0  0.40605  0.67686  0.12211  1.0000
  F   F104      1.0  0.39877  0.69199  0.63512  1.0000
  F   F105      1.0  0.64867  0.20297  0.12635  1.0000
  F   F106      1.0  0.65093  0.20111  0.61475  1.0000
  F   F107      1.0  0.64679  0.70056  0.11988  1.0000
  F   F108      1.0  0.65233  0.69327  0.62993  1.0000
  F   F109      1.0  0.90287  0.19277  0.12199  1.0000
  F   F110      1.0  0.90049  0.20117  0.62535  1.0000
  F   F111      1.0  0.90540  0.69879  0.12007  1.0000
  F   F112      1.0  0.90263  0.68552  0.62348  1.0000
  F   F113      1.0  0.09286  0.30743  0.37567  1.0000
  F   F114      1.0  0.09991  0.30912  0.86851  1.0000
  F   F115      1.0  0.10105  0.80139  0.38867  1.0000
  F   F116      1.0  0.10350  0.80386  0.86475  1.0000
  F   F117      1.0  0.34253  0.31046  0.38407  1.0000
  F   F118      1.0  0.34816  0.29937  0.89581  1.0000
  F   F119      1.0  0.34983  0.80904  0.36617  1.0000
  F   F120      1.0  0.34806  0.80531  0.88497  1.0000
  F   F121      1.0  0.59872  0.30386  0.37007  1.0000
  F   F122      1.0  0.59833  0.28965  0.86180  1.0000
  F   F123      1.0  0.60255  0.79674  0.36933  1.0000
  F   F124      1.0  0.59995  0.80547  0.86430  1.0000
  F   F125      1.0  0.84755  0.30233  0.36939  1.0000
  F   F126      1.0  0.84840  0.29806  0.88790  1.0000
  F   F127      1.0  0.84913  0.81072  0.37891  1.0000
  F   F128      1.0  0.84875  0.80834  0.86747  1.0000
  F   F129      1.0  0.06269  0.24713  0.13676  1.0000
  F   F130      1.0  0.06734  0.25149  0.63510  1.0000
  F   F131      1.0  0.06875  0.75319  0.13468  1.0000
  F   F132      1.0  0.06262  0.75843  0.64714  1.0000
  F   F133      1.0  0.31146  0.25003  0.13953  1.0000
  F   F134      1.0  0.32132  0.25724  0.63682  1.0000
  F   F135      1.0  0.31825  0.75788  0.13697  1.0000
  F   F136      1.0  0.30835  0.75254  0.65540  1.0000
  F   F137      1.0  0.56772  0.26467  0.13830  1.0000
  F   F138      1.0  0.56777  0.25351  0.63242  1.0000
  F   F139      1.0  0.55683  0.74724  0.15889  1.0000
  F   F140      1.0  0.56497  0.75161  0.63865  1.0000
  F   F141      1.0  0.81813  0.25013  0.13457  1.0000
  F   F142      1.0  0.81107  0.25533  0.63796  1.0000
  F   F143      1.0  0.82089  0.75631  0.11912  1.0000
  F   F144      1.0  0.81977  0.75575  0.63325  1.0000
  F   F145      1.0  0.12084  0.36218  0.12084  1.0000
  F   F146      1.0  0.12272  0.36782  0.61171  1.0000
  F   F147      1.0  0.12673  0.88210  0.09602  1.0000
  F   F148      1.0  0.12265  0.86683  0.61153  1.0000
  F   F149      1.0  0.37419  0.37468  0.10360  1.0000
  F   F150      1.0  0.37714  0.38831  0.60157  1.0000
  F   F151      1.0  0.37378  0.86871  0.11971  1.0000
  F   F152      1.0  0.37374  0.86363  0.61607  1.0000
  F   F153      1.0  0.62402  0.38467  0.10316  1.0000
  F   F154      1.0  0.62615  0.36720  0.60659  1.0000
  F   F155      1.0  0.62313  0.87188  0.12042  1.0000
  F   F156      1.0  0.62213  0.85578  0.61943  1.0000
  F   F157      1.0  0.87881  0.36780  0.10222  1.0000
  F   F158      1.0  0.87325  0.38081  0.59126  1.0000
  F   F159      1.0  0.87685  0.87303  0.09629  1.0000
  F   F160      1.0  0.87479  0.86436  0.61044  1.0000
  F   F161      1.0  0.17793  0.24760  0.37479  1.0000
  F   F162      1.0  0.17736  0.23630  0.87121  1.0000
  F   F163      1.0  0.19434  0.75160  0.36257  1.0000
  F   F164      1.0  0.19030  0.74487  0.85181  1.0000
  F   F165      1.0  0.43096  0.25282  0.35481  1.0000
  F   F166      1.0  0.43736  0.24934  0.85840  1.0000
  F   F167      1.0  0.43117  0.75538  0.35677  1.0000
  F   F168      1.0  0.44061  0.75104  0.86207  1.0000
  F   F169      1.0  0.68268  0.25456  0.35832  1.0000
  F   F170      1.0  0.67469  0.25384  0.88149  1.0000
  F   F171      1.0  0.69218  0.75447  0.34656  1.0000
  F   F172      1.0  0.68577  0.74631  0.85045  1.0000
  F   F173      1.0  0.93933  0.25576  0.34893  1.0000
  F   F174      1.0  0.93447  0.24173  0.84969  1.0000
  F   F175      1.0  0.93082  0.74727  0.36175  1.0000
  F   F176      1.0  0.93281  0.74963  0.86311  1.0000
  F   F177      1.0  0.12685  0.12064  0.39926  1.0000
  F   F178      1.0  0.12668  0.13529  0.86728  1.0000
  F   F179      1.0  0.12566  0.62789  0.40554  1.0000
  F   F180      1.0  0.12820  0.62336  0.90192  1.0000
  F   F181      1.0  0.37562  0.12547  0.39589  1.0000
  F   F182      1.0  0.37626  0.14825  0.87734  1.0000
  F   F183      1.0  0.37467  0.62722  0.38740  1.0000
  F   F184      1.0  0.37644  0.63905  0.89978  1.0000
  F   F185      1.0  0.62473  0.12211  0.40246  1.0000
  F   F186      1.0  0.62199  0.10919  0.92081  1.0000
  F   F187      1.0  0.62193  0.61337  0.40796  1.0000
  F   F188      1.0  0.62885  0.63726  0.87893  1.0000
  F   F189      1.0  0.87326  0.12404  0.39059  1.0000
  F   F190      1.0  0.87294  0.12263  0.90002  1.0000
  F   F191      1.0  0.87620  0.62992  0.39102  1.0000
  F   F192      1.0  0.87528  0.62823  0.88799  1.0000
  F   F193      1.0  0.00466  0.36089  0.07757  1.0000
  F   F194      1.0  0.00445  0.36139  0.58308  1.0000
  F   F195      1.0  0.00476  0.86565  0.08543  1.0000
  F   F196      1.0  0.00923  0.86039  0.56704  1.0000
  F   F197      1.0  0.25641  0.35651  0.07254  1.0000
  F   F198      1.0  0.26168  0.36584  0.57072  1.0000
  F   F199      1.0  0.26045  0.85742  0.06410  1.0000
  F   F200      1.0  0.26178  0.86323  0.56872  1.0000
  F   F201      1.0  0.50543  0.35838  0.08762  1.0000
  F   F202      1.0  0.50275  0.35525  0.58325  1.0000
  F   F203      1.0  0.51303  0.86173  0.06464  1.0000
  F   F204      1.0  0.50876  0.86941  0.56327  1.0000
  F   F205      1.0  0.76193  0.35335  0.07047  1.0000
  F   F206      1.0  0.75331  0.36063  0.57856  1.0000
  F   F207      1.0  0.75823  0.85672  0.07296  1.0000
  F   F208      1.0  0.75777  0.86793  0.57125  1.0000
  F   F209      1.0  0.07629  0.47697  0.16401  1.0000
  F   F210      1.0  0.07637  0.48703  0.66070  1.0000
  F   F211      1.0  0.06630  0.99123  0.16941  1.0000
  F   F212      1.0  0.06484  0.98258  0.68101  1.0000
  F   F213      1.0  0.31471  0.48166  0.17754  1.0000
  F   F214      1.0  0.32256  0.48946  0.67111  1.0000
  F   F215      1.0  0.31706  0.98572  0.17557  1.0000
  F   F216      1.0  0.32681  0.98696  0.66883  1.0000
  F   F217      1.0  0.57138  0.48676  0.18342  1.0000
  F   F218      1.0  0.56531  0.48352  0.69137  1.0000
  F   F219      1.0  0.57471  0.99285  0.16660  1.0000
  F   F220      1.0  0.57362  0.99004  0.66163  1.0000
  F   F221      1.0  0.82181  0.47545  0.18316  1.0000
  F   F222      1.0  0.81512  0.49210  0.66379  1.0000
  F   F223      1.0  0.81475  0.97901  0.17713  1.0000
  F   F224      1.0  0.81310  0.98505  0.68369  1.0000
  F   F225      1.0  0.24591  0.13824  0.41636  1.0000
  F   F226      1.0  0.24407  0.14252  0.90887  1.0000
  F   F227      1.0  0.24400  0.62682  0.43766  1.0000
  F   F228      1.0  0.24070  0.64459  0.92403  1.0000
  F   F229      1.0  0.49211  0.14674  0.43037  1.0000
  F   F230      1.0  0.48953  0.13784  0.92661  1.0000
  F   F231      1.0  0.49296  0.64512  0.41412  1.0000
  F   F232      1.0  0.49629  0.62285  0.93629  1.0000
  F   F233      1.0  0.73975  0.15034  0.42119  1.0000
  F   F234      1.0  0.74155  0.14370  0.92145  1.0000
  F   F235      1.0  0.74149  0.63927  0.43137  1.0000
  F   F236      1.0  0.74445  0.64392  0.91592  1.0000
  F   F237      1.0  0.98993  0.13095  0.42343  1.0000
  F   F238      1.0  0.99260  0.14482  0.92649  1.0000
  F   F239      1.0  0.98932  0.64719  0.41703  1.0000
  F   F240      1.0  0.99215  0.62656  0.93732  1.0000
  F   F241      1.0  0.18293  0.01478  0.32433  1.0000
  F   F242      1.0  0.17944  0.01535  0.81493  1.0000
  F   F243      1.0  0.17595  0.50838  0.33844  1.0000
  F   F244      1.0  0.18476  0.50550  0.81908  1.0000
  F   F245      1.0  0.43461  0.02102  0.31838  1.0000
  F   F246      1.0  0.43075  0.00249  0.82490  1.0000
  F   F247      1.0  0.43623  0.52111  0.32120  1.0000
  F   F248      1.0  0.42739  0.52379  0.82712  1.0000
  F   F249      1.0  0.67836  0.01784  0.31488  1.0000
  F   F250      1.0  0.68176  0.01899  0.81428  1.0000
  F   F251      1.0  0.68487  0.52430  0.32578  1.0000
  F   F252      1.0  0.68016  0.51940  0.82080  1.0000
  F   F253      1.0  0.93148  0.01847  0.31269  1.0000
  F   F254      1.0  0.93210  0.01600  0.82622  1.0000
  F   F255      1.0  0.92907  0.51461  0.32611  1.0000
  F   F256      1.0  0.92710  0.52402  0.81585  1.0000
  F   F257      1.0  0.99958  0.24132  0.00908  1.0000
  F   F258      1.0  0.99791  0.25126  0.49366  1.0000
  F   F259      1.0  0.00798  0.77086  0.99457  1.0000
  F   F260      1.0  0.99872  0.75230  0.50228  1.0000
  F   F261      1.0  0.25296  0.23971  0.00151  1.0000
  F   F262      1.0  0.24846  0.24436  0.50564  1.0000
  F   F263      1.0  0.24344  0.73882  0.00964  1.0000
  F   F264      1.0  0.24958  0.73118  0.51884  1.0000
  F   F265      1.0  0.49866  0.24751  0.00094  1.0000
  F   F266      1.0  0.50230  0.26329  0.49176  1.0000
  F   F267      1.0  0.49932  0.73555  0.01950  1.0000
  F   F268      1.0  0.50331  0.74489  0.49605  1.0000
  F   F269      1.0  0.74979  0.23605  0.01287  1.0000
  F   F270      1.0  0.74761  0.23758  0.51792  1.0000
  F   F271      1.0  0.75420  0.75742  0.99209  1.0000
  F   F272      1.0  0.75346  0.76804  0.48028  1.0000
  F   F273      1.0  0.12269  0.00433  0.24815  1.0000
  F   F274      1.0  0.12298  0.99868  0.74097  1.0000
  F   F275      1.0  0.12337  0.49634  0.26049  1.0000
  F   F276      1.0  0.12368  0.49866  0.74848  1.0000
  F   F277      1.0  0.37330  0.00465  0.25374  1.0000
  F   F278      1.0  0.37260  0.99759  0.76047  1.0000
  F   F279      1.0  0.37392  0.49004  0.25068  1.0000
  F   F280      1.0  0.37039  0.49715  0.75537  1.0000
  F   F281      1.0  0.61871  0.98435  0.26468  1.0000
  F   F282      1.0  0.61817  0.98786  0.76834  1.0000
  F   F283      1.0  0.62660  0.50064  0.25557  1.0000
  F   F284      1.0  0.62605  0.50527  0.74725  1.0000
  F   F285      1.0  0.86955  0.99187  0.25179  1.0000
  F   F286      1.0  0.87596  0.00160  0.74247  1.0000
  F   F287      1.0  0.87382  0.49962  0.24880  1.0000
  F   F288      1.0  0.87124  0.49349  0.75126  1.0000
  F   F289      1.0  0.04353  0.02913  0.01715  1.0000
  F   F290      1.0  0.04149  0.03621  0.50844  1.0000
  F   F291      1.0  0.05059  0.53014  0.00337  1.0000
  F   F292      1.0  0.03505  0.52968  0.53044  1.0000
  F   F293      1.0  0.29032  0.02915  0.02484  1.0000
  F   F294      1.0  0.29483  0.03704  0.51660  1.0000
  F   F295      1.0  0.29144  0.52195  0.02343  1.0000
  F   F296      1.0  0.29585  0.53064  0.52452  1.0000
  F   F297      1.0  0.54461  0.03160  0.03033  1.0000
  F   F298      1.0  0.53958  0.03123  0.52825  1.0000
  F   F299      1.0  0.54747  0.52682  0.02980  1.0000
  F   F300      1.0  0.53770  0.52286  0.52825  1.0000
  F   F301      1.0  0.78385  0.03306  0.02675  1.0000
  F   F302      1.0  0.79022  0.04143  0.52647  1.0000
  F   F303      1.0  0.79273  0.52964  0.02067  1.0000
  F   F304      1.0  0.79330  0.52742  0.51321  1.0000
  F   F305      1.0  0.23299  0.40957  0.22279  1.0000
  F   F306      1.0  0.23613  0.40620  0.73475  1.0000
  F   F307      1.0  0.24042  0.91584  0.21435  1.0000
  F   F308      1.0  0.23907  0.91796  0.73024  1.0000
  F   F309      1.0  0.48259  0.41295  0.24338  1.0000
  F   F310      1.0  0.48492  0.40954  0.72976  1.0000
  F   F311      1.0  0.49036  0.91686  0.22842  1.0000
  F   F312      1.0  0.48529  0.89813  0.72641  1.0000
  F   F313      1.0  0.73367  0.43604  0.21521  1.0000
  F   F314      1.0  0.73497  0.41336  0.73535  1.0000
  F   F315      1.0  0.73716  0.89553  0.24453  1.0000
  F   F316      1.0  0.73186  0.91181  0.73265  1.0000
  F   F317      1.0  0.98748  0.41065  0.22125  1.0000
  F   F318      1.0  0.98299  0.42106  0.72924  1.0000
  F   F319      1.0  0.98396  0.89604  0.24109  1.0000
  F   F320      1.0  0.98245  0.91564  0.71297  1.0000
  F   F321      1.0  0.20730  0.46698  0.48096  1.0000
  F   F322      1.0  0.19960  0.47478  0.98174  1.0000
  F   F323      1.0  0.20875  0.97212  0.47414  1.0000
  F   F324      1.0  0.20735  0.97219  0.98287  1.0000
  F   F325      1.0  0.45795  0.47064  0.47465  1.0000
  F   F326      1.0  0.46075  0.46793  0.97637  1.0000
  F   F327      1.0  0.45602  0.97028  0.47271  1.0000
  F   F328      1.0  0.46320  0.97025  0.96655  1.0000
  F   F329      1.0  0.70987  0.47280  0.48431  1.0000
  F   F330      1.0  0.70858  0.47942  0.97010  1.0000
  F   F331      1.0  0.70337  0.97170  0.46651  1.0000
  F   F332      1.0  0.70562  0.97422  0.96541  1.0000
  F   F333      1.0  0.95760  0.46781  0.48024  1.0000
  F   F334      1.0  0.95337  0.46797  0.97336  1.0000
  F   F335      1.0  0.95676  0.96588  0.46419  1.0000
  F   F336      1.0  0.96485  0.97057  0.97312  1.0000
  F   F337      1.0  0.01120  0.08747  0.26456  1.0000
  F   F338      1.0  0.01312  0.09638  0.77506  1.0000
  F   F339      1.0  0.01341  0.58018  0.27241  1.0000
  F   F340      1.0  0.02309  0.58872  0.77509  1.0000
  F   F341      1.0  0.26625  0.08077  0.27206  1.0000
  F   F342      1.0  0.26427  0.08347  0.76774  1.0000
  F   F343      1.0  0.26188  0.57045  0.27833  1.0000
  F   F344      1.0  0.26856  0.58289  0.77188  1.0000
  F   F345      1.0  0.51459  0.09199  0.27008  1.0000
  F   F346      1.0  0.51513  0.08361  0.77444  1.0000
  F   F347      1.0  0.51450  0.59201  0.26426  1.0000
  F   F348      1.0  0.51289  0.59135  0.77550  1.0000
  F   F349      1.0  0.76340  0.07999  0.28290  1.0000
  F   F350      1.0  0.76377  0.09581  0.76423  1.0000
  F   F351      1.0  0.76847  0.58355  0.27365  1.0000
  F   F352      1.0  0.76754  0.58692  0.76410  1.0000
  F   F353      1.0  0.09558  0.41407  0.46414  1.0000
  F   F354      1.0  0.10291  0.40015  0.96749  1.0000
  F   F355      1.0  0.10593  0.91476  0.46128  1.0000
  F   F356      1.0  0.10115  0.91448  0.94458  1.0000
  F   F357      1.0  0.35530  0.42555  0.45175  1.0000
  F   F358      1.0  0.35082  0.41475  0.96373  1.0000
  F   F359      1.0  0.35673  0.90700  0.46439  1.0000
  F   F360      1.0  0.35187  0.91744  0.96714  1.0000
  F   F361      1.0  0.60248  0.39342  0.46984  1.0000
  F   F362      1.0  0.60063  0.40054  0.95679  1.0000
  F   F363      1.0  0.59941  0.90878  0.46564  1.0000
  F   F364      1.0  0.59874  0.90876  0.96412  1.0000
  F   F365      1.0  0.84627  0.40067  0.45909  1.0000
  F   F366      1.0  0.85265  0.39958  0.96821  1.0000
  F   F367      1.0  0.84711  0.92630  0.46350  1.0000
  F   F368      1.0  0.85033  0.92403  0.94483  1.0000
  F   F369      1.0  0.03586  0.29653  0.29105  1.0000
  F   F370      1.0  0.04419  0.30017  0.78489  1.0000
  F   F371      1.0  0.05289  0.79808  0.28434  1.0000
  F   F372      1.0  0.03796  0.79494  0.79782  1.0000
  F   F373      1.0  0.30260  0.29698  0.28511  1.0000
  F   F374      1.0  0.29966  0.29590  0.78398  1.0000
  F   F375      1.0  0.29519  0.79233  0.29214  1.0000
  F   F376      1.0  0.30080  0.79633  0.79836  1.0000
  F   F377      1.0  0.54416  0.30302  0.29239  1.0000
  F   F378      1.0  0.54125  0.28952  0.78996  1.0000
  F   F379      1.0  0.54727  0.79878  0.29015  1.0000
  F   F380      1.0  0.54717  0.80022  0.78895  1.0000
  F   F381      1.0  0.78577  0.30039  0.28255  1.0000
  F   F382      1.0  0.80115  0.30281  0.77735  1.0000
  F   F383      1.0  0.80057  0.79103  0.27942  1.0000
  F   F384      1.0  0.79618  0.79829  0.77837  1.0000
