data_image0
_chemical_formula_structural       Hf96F384
_chemical_formula_sum              "Hf96 F384"
_cell_length_a       31.0172
_cell_length_b       15.507
_cell_length_c       15.501
_cell_angle_alpha    63.342
_cell_angle_beta     63.342
_cell_angle_gamma    80.1625

_space_group_name_H-M_alt    "P 1"
_space_group_IT_number       1

loop_
  _space_group_symop_operation_xyz
  'x, y, z'

loop_
  _atom_site_type_symbol
  _atom_site_label
  _atom_site_symmetry_multiplicity
  _atom_site_fract_x
  _atom_site_fract_y
  _atom_site_fract_z
  _atom_site_occupancy
  Hf  Hf1       1.0  0.19680  0.10625  0.37885  1.0000
  Hf  Hf2       1.0  0.19582  0.10482  0.88156  1.0000
  Hf  Hf3       1.0  0.19623  0.60507  0.37330  1.0000
  Hf  Hf4       1.0  0.19498  0.60254  0.87057  1.0000
  Hf  Hf5       1.0  0.44954  0.10423  0.37483  1.0000
  Hf  Hf6       1.0  0.44664  0.11120  0.87137  1.0000
  Hf  Hf7       1.0  0.44468  0.60481  0.37945  1.0000
  Hf  Hf8       1.0  0.44609  0.60774  0.87933  1.0000
  Hf  Hf9       1.0  0.69639  0.10425  0.37868  1.0000
  Hf  Hf10      1.0  0.69800  0.11169  0.86823  1.0000
  Hf  Hf11      1.0  0.69233  0.60647  0.37460  1.0000
  Hf  Hf12      1.0  0.69766  0.60592  0.86811  1.0000
  Hf  Hf13      1.0  0.94558  0.11152  0.38949  1.0000
  Hf  Hf14      1.0  0.94370  0.10386  0.88855  1.0000
  Hf  Hf15      1.0  0.94821  0.60147  0.37315  1.0000
  Hf  Hf16      1.0  0.95021  0.60221  0.86623  1.0000
  Hf  Hf17      1.0  0.04924  0.39491  0.14358  1.0000
  Hf  Hf18      1.0  0.05455  0.39122  0.62616  1.0000
  Hf  Hf19      1.0  0.05052  0.89042  0.13583  1.0000
  Hf  Hf20      1.0  0.05325  0.89330  0.63341  1.0000
  Hf  Hf21      1.0  0.30621  0.38816  0.12740  1.0000
  Hf  Hf22      1.0  0.30173  0.39337  0.62549  1.0000
  Hf  Hf23      1.0  0.30516  0.88648  0.12202  1.0000
  Hf  Hf24      1.0  0.30254  0.88817  0.63006  1.0000
  Hf  Hf25      1.0  0.55141  0.39136  0.12724  1.0000
  Hf  Hf26      1.0  0.55368  0.39824  0.61361  1.0000
  Hf  Hf27      1.0  0.55391  0.89847  0.11919  1.0000
  Hf  Hf28      1.0  0.55549  0.89227  0.62325  1.0000
  Hf  Hf29      1.0  0.80324  0.39464  0.12164  1.0000
  Hf  Hf30      1.0  0.80266  0.38635  0.63112  1.0000
  Hf  Hf31      1.0  0.80363  0.89065  0.12311  1.0000
  Hf  Hf32      1.0  0.80335  0.89362  0.63121  1.0000
  Hf  Hf33      1.0  0.06110  0.17924  0.42040  1.0000
  Hf  Hf34      1.0  0.05415  0.18214  0.92034  1.0000
  Hf  Hf35      1.0  0.05546  0.68366  0.41544  1.0000
  Hf  Hf36      1.0  0.05702  0.68065  0.91624  1.0000
  Hf  Hf37      1.0  0.30735  0.17712  0.41796  1.0000
  Hf  Hf38      1.0  0.30685  0.18928  0.90983  1.0000
  Hf  Hf39      1.0  0.30668  0.68059  0.41435  1.0000
  Hf  Hf40      1.0  0.30445  0.68529  0.91358  1.0000
  Hf  Hf41      1.0  0.55912  0.17976  0.40938  1.0000
  Hf  Hf42      1.0  0.55788  0.19121  0.90194  1.0000
  Hf  Hf43      1.0  0.55612  0.68988  0.41206  1.0000
  Hf  Hf44      1.0  0.55584  0.68664  0.91397  1.0000
  Hf  Hf45      1.0  0.80495  0.18416  0.41737  1.0000
  Hf  Hf46      1.0  0.80868  0.17826  0.91501  1.0000
  Hf  Hf47      1.0  0.80478  0.67831  0.41987  1.0000
  Hf  Hf48      1.0  0.80667  0.68315  0.91106  1.0000
  Hf  Hf49      1.0  0.16165  0.38967  0.32653  1.0000
  Hf  Hf50      1.0  0.15716  0.38271  0.83486  1.0000
  Hf  Hf51      1.0  0.15746  0.89367  0.32978  1.0000
  Hf  Hf52      1.0  0.15969  0.88019  0.83923  1.0000
  Hf  Hf53      1.0  0.40755  0.38832  0.33664  1.0000
  Hf  Hf54      1.0  0.40994  0.38967  0.83081  1.0000
  Hf  Hf55      1.0  0.41237  0.88662  0.32934  1.0000
  Hf  Hf56      1.0  0.41011  0.88767  0.83529  1.0000
  Hf  Hf57      1.0  0.65599  0.38382  0.33092  1.0000
  Hf  Hf58      1.0  0.65396  0.38869  0.83694  1.0000
  Hf  Hf59      1.0  0.66110  0.89185  0.32556  1.0000
  Hf  Hf60      1.0  0.65949  0.89430  0.82348  1.0000
  Hf  Hf61      1.0  0.90460  0.38780  0.34018  1.0000
  Hf  Hf62      1.0  0.90511  0.38890  0.82921  1.0000
  Hf  Hf63      1.0  0.90505  0.89043  0.33795  1.0000
  Hf  Hf64      1.0  0.90855  0.88474  0.83852  1.0000
  Hf  Hf65      1.0  0.19536  0.32133  0.08165  1.0000
  Hf  Hf66      1.0  0.19373  0.31750  0.57971  1.0000
  Hf  Hf67      1.0  0.19849  0.81768  0.08404  1.0000
  Hf  Hf68      1.0  0.19207  0.81434  0.58788  1.0000
  Hf  Hf69      1.0  0.44553  0.31798  0.08173  1.0000
  Hf  Hf70      1.0  0.44237  0.31037  0.58689  1.0000
  Hf  Hf71      1.0  0.44533  0.81101  0.08476  1.0000
  Hf  Hf72      1.0  0.44411  0.81327  0.58971  1.0000
  Hf  Hf73      1.0  0.69685  0.32558  0.06760  1.0000
  Hf  Hf74      1.0  0.69493  0.31951  0.58171  1.0000
  Hf  Hf75      1.0  0.69223  0.82252  0.08167  1.0000
  Hf  Hf76      1.0  0.69678  0.81247  0.58933  1.0000
  Hf  Hf77      1.0  0.94160  0.31814  0.08868  1.0000
  Hf  Hf78      1.0  0.94183  0.31465  0.58450  1.0000
  Hf  Hf79      1.0  0.94439  0.81532  0.08721  1.0000
  Hf  Hf80      1.0  0.94515  0.81517  0.58416  1.0000
  Hf  Hf81      1.0  0.09244  0.11613  0.16299  1.0000
  Hf  Hf82      1.0  0.08857  0.11521  0.67138  1.0000
  Hf  Hf83      1.0  0.09204  0.61577  0.17119  1.0000
  Hf  Hf84      1.0  0.09471  0.60964  0.66503  1.0000
  Hf  Hf85      1.0  0.34383  0.10991  0.16658  1.0000
  Hf  Hf86      1.0  0.34000  0.11227  0.66538  1.0000
  Hf  Hf87      1.0  0.33891  0.60975  0.16893  1.0000
  Hf  Hf88      1.0  0.34077  0.60779  0.66746  1.0000
  Hf  Hf89      1.0  0.59495  0.11466  0.15586  1.0000
  Hf  Hf90      1.0  0.58985  0.11221  0.66881  1.0000
  Hf  Hf91      1.0  0.58592  0.61301  0.16828  1.0000
  Hf  Hf92      1.0  0.59001  0.61590  0.66448  1.0000
  Hf  Hf93      1.0  0.83968  0.11274  0.16942  1.0000
  Hf  Hf94      1.0  0.84138  0.11014  0.66854  1.0000
  Hf  Hf95      1.0  0.84021  0.60718  0.17008  1.0000
  Hf  Hf96      1.0  0.84480  0.61253  0.66250  1.0000
  F   F1        1.0  0.07624  0.13318  0.30743  1.0000
  F   F2        1.0  0.07547  0.12006  0.81379  1.0000
  F   F3        1.0  0.07632  0.63514  0.30732  1.0000
  F   F4        1.0  0.08205  0.62383  0.80681  1.0000
  F   F5        1.0  0.33326  0.14672  0.29273  1.0000
  F   F6        1.0  0.32735  0.12444  0.80319  1.0000
  F   F7        1.0  0.33293  0.63054  0.29412  1.0000
  F   F8        1.0  0.33445  0.63707  0.79505  1.0000
  F   F9        1.0  0.58171  0.13090  0.29593  1.0000
  F   F10       1.0  0.57761  0.11924  0.81207  1.0000
  F   F11       1.0  0.58056  0.62981  0.30362  1.0000
  F   F12       1.0  0.58194  0.64543  0.78641  1.0000
  F   F13       1.0  0.82599  0.12221  0.31057  1.0000
  F   F14       1.0  0.83106  0.11282  0.81333  1.0000
  F   F15       1.0  0.82489  0.62835  0.30839  1.0000
  F   F16       1.0  0.83222  0.64150  0.79084  1.0000
  F   F17       1.0  0.18356  0.34003  0.44891  1.0000
  F   F18       1.0  0.18729  0.33636  0.94925  1.0000
  F   F19       1.0  0.18347  0.85051  0.43775  1.0000
  F   F20       1.0  0.18701  0.83391  0.94585  1.0000
  F   F21       1.0  0.43536  0.34075  0.44634  1.0000
  F   F22       1.0  0.43777  0.33912  0.94726  1.0000
  F   F23       1.0  0.43378  0.84395  0.44142  1.0000
  F   F24       1.0  0.44024  0.84436  0.94432  1.0000
  F   F25       1.0  0.67426  0.32604  0.45222  1.0000
  F   F26       1.0  0.69038  0.35712  0.92994  1.0000
  F   F27       1.0  0.68821  0.84917  0.44076  1.0000
  F   F28       1.0  0.68740  0.84430  0.93536  1.0000
  F   F29       1.0  0.93400  0.33645  0.44645  1.0000
  F   F30       1.0  0.93121  0.33203  0.96266  1.0000
  F   F31       1.0  0.94164  0.85574  0.44065  1.0000
  F   F32       1.0  0.94092  0.83695  0.94520  1.0000
  F   F33       1.0  0.17412  0.37826  0.19213  1.0000
  F   F34       1.0  0.17798  0.38258  0.68350  1.0000
  F   F35       1.0  0.17713  0.88440  0.19066  1.0000
  F   F36       1.0  0.16943  0.87422  0.70355  1.0000
  F   F37       1.0  0.42565  0.37199  0.18944  1.0000
  F   F38       1.0  0.43008  0.37351  0.68681  1.0000
  F   F39       1.0  0.41749  0.86017  0.20190  1.0000
  F   F40       1.0  0.41899  0.86998  0.70639  1.0000
  F   F41       1.0  0.66902  0.37618  0.18399  1.0000
  F   F42       1.0  0.66383  0.35985  0.70898  1.0000
  F   F43       1.0  0.67291  0.86690  0.19502  1.0000
  F   F44       1.0  0.67249  0.88921  0.68696  1.0000
  F   F45       1.0  0.91963  0.38925  0.19074  1.0000
  F   F46       1.0  0.92190  0.38862  0.68597  1.0000
  F   F47       1.0  0.91252  0.85511  0.21105  1.0000
  F   F48       1.0  0.91925  0.86778  0.69457  1.0000
  F   F49       1.0  0.07175  0.17040  0.04118  1.0000
  F   F50       1.0  0.06734  0.16941  0.55694  1.0000
  F   F51       1.0  0.06499  0.66230  0.05344  1.0000
  F   F52       1.0  0.06241  0.65229  0.55461  1.0000
  F   F53       1.0  0.31891  0.15802  0.04726  1.0000
  F   F54       1.0  0.30605  0.15113  0.55887  1.0000
  F   F55       1.0  0.31403  0.66577  0.05005  1.0000
  F   F56       1.0  0.30915  0.64339  0.56327  1.0000
  F   F57       1.0  0.56707  0.15463  0.05220  1.0000
  F   F58       1.0  0.57051  0.16015  0.54146  1.0000
  F   F59       1.0  0.55859  0.67374  0.04895  1.0000
  F   F60       1.0  0.56200  0.66768  0.54879  1.0000
  F   F61       1.0  0.82060  0.17650  0.04651  1.0000
  F   F62       1.0  0.80573  0.14762  0.56363  1.0000
  F   F63       1.0  0.81444  0.65827  0.05101  1.0000
  F   F64       1.0  0.81945  0.65637  0.55281  1.0000
  F   F65       1.0  0.19487  0.20596  0.22023  1.0000
  F   F66       1.0  0.19550  0.20391  0.71292  1.0000
  F   F67       1.0  0.20843  0.70782  0.21088  1.0000
  F   F68       1.0  0.20543  0.69343  0.70604  1.0000
  F   F69       1.0  0.45629  0.20630  0.21299  1.0000
  F   F70       1.0  0.44986  0.20076  0.71691  1.0000
  F   F71       1.0  0.46213  0.70172  0.21963  1.0000
  F   F72       1.0  0.45752  0.70718  0.71187  1.0000
  F   F73       1.0  0.69328  0.20414  0.19721  1.0000
  F   F74       1.0  0.70743  0.20227  0.70401  1.0000
  F   F75       1.0  0.70464  0.70650  0.21253  1.0000
  F   F76       1.0  0.70609  0.69849  0.70939  1.0000
  F   F77       1.0  0.95193  0.20428  0.21117  1.0000
  F   F78       1.0  0.94541  0.20818  0.71392  1.0000
  F   F79       1.0  0.96601  0.70865  0.20154  1.0000
  F   F80       1.0  0.95708  0.69935  0.70992  1.0000
  F   F81       1.0  0.14824  0.08527  0.03534  1.0000
  F   F82       1.0  0.15055  0.08161  0.55281  1.0000
  F   F83       1.0  0.15226  0.59749  0.05108  1.0000
  F   F84       1.0  0.14799  0.58945  0.54475  1.0000
  F   F85       1.0  0.39950  0.09288  0.03693  1.0000
  F   F86       1.0  0.40179  0.09391  0.53988  1.0000
  F   F87       1.0  0.40093  0.59877  0.04913  1.0000
  F   F88       1.0  0.39917  0.58232  0.54388  1.0000
  F   F89       1.0  0.65275  0.07983  0.03089  1.0000
  F   F90       1.0  0.65098  0.09606  0.54015  1.0000
  F   F91       1.0  0.64179  0.60575  0.03734  1.0000
  F   F92       1.0  0.64826  0.59068  0.52954  1.0000
  F   F93       1.0  0.89688  0.07692  0.05007  1.0000
  F   F94       1.0  0.89942  0.10444  0.53484  1.0000
  F   F95       1.0  0.90396  0.59072  0.03227  1.0000
  F   F96       1.0  0.90142  0.58227  0.52629  1.0000
  F   F97       1.0  0.15567  0.18361  0.12397  1.0000
  F   F98       1.0  0.14392  0.20073  0.62711  1.0000
  F   F99       1.0  0.14802  0.70157  0.14062  1.0000
  F   F100      1.0  0.14792  0.70234  0.62819  1.0000
  F   F101      1.0  0.40466  0.19286  0.12665  1.0000
  F   F102      1.0  0.40518  0.19410  0.62061  1.0000
  F   F103      1.0  0.40400  0.69494  0.13602  1.0000
  F   F104      1.0  0.40490  0.68792  0.62819  1.0000
  F   F105      1.0  0.65117  0.20332  0.09269  1.0000
  F   F106      1.0  0.64601  0.20513  0.63596  1.0000
  F   F107      1.0  0.64456  0.71474  0.13548  1.0000
  F   F108      1.0  0.65389  0.70107  0.60353  1.0000
  F   F109      1.0  0.89592  0.19844  0.13300  1.0000
  F   F110      1.0  0.89998  0.19286  0.62765  1.0000
  F   F111      1.0  0.90193  0.70029  0.12699  1.0000
  F   F112      1.0  0.90222  0.70212  0.59790  1.0000
  F   F113      1.0  0.10920  0.29240  0.36831  1.0000
  F   F114      1.0  0.09965  0.29929  0.86765  1.0000
  F   F115      1.0  0.10246  0.80392  0.36793  1.0000
  F   F116      1.0  0.10246  0.79749  0.87478  1.0000
  F   F117      1.0  0.34475  0.29833  0.39124  1.0000
  F   F118      1.0  0.35365  0.29731  0.85223  1.0000
  F   F119      1.0  0.35129  0.78922  0.39504  1.0000
  F   F120      1.0  0.34397  0.80232  0.86983  1.0000
  F   F121      1.0  0.59984  0.30798  0.35284  1.0000
  F   F122      1.0  0.59159  0.31447  0.88338  1.0000
  F   F123      1.0  0.59460  0.81638  0.37329  1.0000
  F   F124      1.0  0.60160  0.80219  0.85171  1.0000
  F   F125      1.0  0.84770  0.30770  0.38851  1.0000
  F   F126      1.0  0.84454  0.30373  0.86754  1.0000
  F   F127      1.0  0.84056  0.80057  0.39263  1.0000
  F   F128      1.0  0.84653  0.79637  0.87566  1.0000
  F   F129      1.0  0.06563  0.25334  0.15132  1.0000
  F   F130      1.0  0.05372  0.24626  0.67318  1.0000
  F   F131      1.0  0.06155  0.74885  0.15850  1.0000
  F   F132      1.0  0.07183  0.74782  0.64456  1.0000
  F   F133      1.0  0.31748  0.25012  0.13762  1.0000
  F   F134      1.0  0.31779  0.24635  0.63602  1.0000
  F   F135      1.0  0.31281  0.74679  0.14874  1.0000
  F   F136      1.0  0.31598  0.74458  0.63707  1.0000
  F   F137      1.0  0.56111  0.25470  0.13209  1.0000
  F   F138      1.0  0.56832  0.26492  0.62409  1.0000
  F   F139      1.0  0.56446  0.75150  0.14062  1.0000
  F   F140      1.0  0.56438  0.75704  0.62936  1.0000
  F   F141      1.0  0.80347  0.25582  0.14638  1.0000
  F   F142      1.0  0.81526  0.24643  0.64418  1.0000
  F   F143      1.0  0.81526  0.74267  0.14384  1.0000
  F   F144      1.0  0.81347  0.75700  0.64601  1.0000
  F   F145      1.0  0.12361  0.34904  0.13127  1.0000
  F   F146      1.0  0.12442  0.36368  0.61379  1.0000
  F   F147      1.0  0.12885  0.88316  0.09768  1.0000
  F   F148      1.0  0.12324  0.87400  0.61652  1.0000
  F   F149      1.0  0.37541  0.37876  0.11128  1.0000
  F   F150      1.0  0.37265  0.37039  0.61397  1.0000
  F   F151      1.0  0.37674  0.88564  0.09787  1.0000
  F   F152      1.0  0.37335  0.86530  0.62382  1.0000
  F   F153      1.0  0.62481  0.36997  0.09564  1.0000
  F   F154      1.0  0.62363  0.39114  0.59794  1.0000
  F   F155      1.0  0.62848  0.90181  0.07829  1.0000
  F   F156      1.0  0.62457  0.86035  0.62470  1.0000
  F   F157      1.0  0.87131  0.36816  0.11308  1.0000
  F   F158      1.0  0.87361  0.36033  0.62107  1.0000
  F   F159      1.0  0.87468  0.88617  0.09313  1.0000
  F   F160      1.0  0.87538  0.86220  0.61087  1.0000
  F   F161      1.0  0.19184  0.25420  0.35152  1.0000
  F   F162      1.0  0.18571  0.24254  0.86009  1.0000
  F   F163      1.0  0.18274  0.74457  0.36152  1.0000
  F   F164      1.0  0.18741  0.74313  0.85146  1.0000
  F   F165      1.0  0.43340  0.25100  0.35772  1.0000
  F   F166      1.0  0.43783  0.25180  0.86040  1.0000
  F   F167      1.0  0.43832  0.74818  0.35832  1.0000
  F   F168      1.0  0.42829  0.74382  0.86849  1.0000
  F   F169      1.0  0.69239  0.25012  0.33536  1.0000
  F   F170      1.0  0.68070  0.25074  0.85950  1.0000
  F   F171      1.0  0.68225  0.75189  0.36709  1.0000
  F   F172      1.0  0.67614  0.74982  0.86175  1.0000
  F   F173      1.0  0.93497  0.26149  0.33947  1.0000
  F   F174      1.0  0.93304  0.24610  0.86385  1.0000
  F   F175      1.0  0.92840  0.75584  0.36791  1.0000
  F   F176      1.0  0.93530  0.74954  0.84675  1.0000
  F   F177      1.0  0.12693  0.11014  0.40473  1.0000
  F   F178      1.0  0.12496  0.13052  0.88572  1.0000
  F   F179      1.0  0.12570  0.63209  0.38150  1.0000
  F   F180      1.0  0.12450  0.62134  0.90646  1.0000
  F   F181      1.0  0.37731  0.12812  0.39131  1.0000
  F   F182      1.0  0.37452  0.13740  0.88626  1.0000
  F   F183      1.0  0.37756  0.63712  0.37854  1.0000
  F   F184      1.0  0.37636  0.62048  0.90532  1.0000
  F   F185      1.0  0.62717  0.13503  0.38210  1.0000
  F   F186      1.0  0.62760  0.15573  0.86775  1.0000
  F   F187      1.0  0.62900  0.65418  0.37506  1.0000
  F   F188      1.0  0.61986  0.61254  0.90685  1.0000
  F   F189      1.0  0.87484  0.13449  0.39555  1.0000
  F   F190      1.0  0.87862  0.12684  0.88622  1.0000
  F   F191      1.0  0.87942  0.63611  0.37290  1.0000
  F   F192      1.0  0.87440  0.61896  0.89338  1.0000
  F   F193      1.0  0.00629  0.36444  0.09093  1.0000
  F   F194      1.0  0.00356  0.36617  0.57777  1.0000
  F   F195      1.0  0.00503  0.86793  0.07493  1.0000
  F   F196      1.0  0.01005  0.86798  0.57784  1.0000
  F   F197      1.0  0.25513  0.36365  0.07816  1.0000
  F   F198      1.0  0.25288  0.35310  0.58181  1.0000
  F   F199      1.0  0.26219  0.84570  0.07463  1.0000
  F   F200      1.0  0.25808  0.85709  0.57662  1.0000
  F   F201      1.0  0.51148  0.37504  0.05767  1.0000
  F   F202      1.0  0.51179  0.37063  0.55589  1.0000
  F   F203      1.0  0.50655  0.87039  0.07083  1.0000
  F   F204      1.0  0.50675  0.86173  0.58016  1.0000
  F   F205      1.0  0.75662  0.37775  0.05759  1.0000
  F   F206      1.0  0.75953  0.36332  0.56927  1.0000
  F   F207      1.0  0.76238  0.85139  0.07150  1.0000
  F   F208      1.0  0.76190  0.86246  0.56929  1.0000
  F   F209      1.0  0.07462  0.48681  0.17474  1.0000
  F   F210      1.0  0.06683  0.47976  0.68044  1.0000
  F   F211      1.0  0.06018  0.98132  0.19109  1.0000
  F   F212      1.0  0.06964  0.98337  0.67816  1.0000
  F   F213      1.0  0.31329  0.49082  0.18236  1.0000
  F   F214      1.0  0.31646  0.48761  0.67805  1.0000
  F   F215      1.0  0.31804  0.98993  0.18230  1.0000
  F   F216      1.0  0.32078  0.98367  0.67601  1.0000
  F   F217      1.0  0.56793  0.48265  0.17569  1.0000
  F   F218      1.0  0.56480  0.49246  0.67253  1.0000
  F   F219      1.0  0.56629  0.98878  0.18152  1.0000
  F   F220      1.0  0.57196  0.98558  0.67743  1.0000
  F   F221      1.0  0.81684  0.48677  0.17003  1.0000
  F   F222      1.0  0.82358  0.48388  0.67078  1.0000
  F   F223      1.0  0.81479  0.98447  0.17668  1.0000
  F   F224      1.0  0.82557  0.98540  0.67852  1.0000
  F   F225      1.0  0.23972  0.13644  0.43396  1.0000
  F   F226      1.0  0.23965  0.13591  0.93549  1.0000
  F   F227      1.0  0.24436  0.63821  0.42121  1.0000
  F   F228      1.0  0.24389  0.61749  0.92986  1.0000
  F   F229      1.0  0.49319  0.12765  0.43429  1.0000
  F   F230      1.0  0.49086  0.13961  0.91798  1.0000
  F   F231      1.0  0.48758  0.63325  0.43903  1.0000
  F   F232      1.0  0.49094  0.63856  0.93733  1.0000
  F   F233      1.0  0.73981  0.13928  0.43356  1.0000
  F   F234      1.0  0.74749  0.14902  0.91058  1.0000
  F   F235      1.0  0.74171  0.63831  0.42271  1.0000
  F   F236      1.0  0.74045  0.64143  0.91370  1.0000
  F   F237      1.0  0.99284  0.15201  0.42572  1.0000
  F   F238      1.0  0.98565  0.14396  0.94179  1.0000
  F   F239      1.0  0.98825  0.65089  0.42566  1.0000
  F   F240      1.0  0.99299  0.63032  0.91996  1.0000
  F   F241      1.0  0.18751  0.01612  0.30937  1.0000
  F   F242      1.0  0.18614  0.00554  0.83636  1.0000
  F   F243      1.0  0.18214  0.51489  0.31458  1.0000
  F   F244      1.0  0.17550  0.51263  0.82460  1.0000
  F   F245      1.0  0.43554  0.01831  0.32023  1.0000
  F   F246      1.0  0.43380  0.01905  0.82108  1.0000
  F   F247      1.0  0.43325  0.51583  0.32697  1.0000
  F   F248      1.0  0.43125  0.50902  0.82955  1.0000
  F   F249      1.0  0.68213  0.02250  0.31890  1.0000
  F   F250      1.0  0.68095  0.02315  0.81351  1.0000
  F   F251      1.0  0.67368  0.51394  0.32854  1.0000
  F   F252      1.0  0.68330  0.52092  0.80677  1.0000
  F   F253      1.0  0.92834  0.01794  0.34552  1.0000
  F   F254      1.0  0.92708  0.01090  0.82800  1.0000
  F   F255      1.0  0.93114  0.52077  0.30572  1.0000
  F   F256      1.0  0.93435  0.49936  0.83533  1.0000
  F   F257      1.0  0.00210  0.25506  0.01196  1.0000
  F   F258      1.0  0.00010  0.25206  0.50825  1.0000
  F   F259      1.0  0.99967  0.74338  0.00186  1.0000
  F   F260      1.0  0.99871  0.73513  0.50951  1.0000
  F   F261      1.0  0.25393  0.24858  0.99925  1.0000
  F   F262      1.0  0.24457  0.25051  0.49282  1.0000
  F   F263      1.0  0.24792  0.74347  0.00111  1.0000
  F   F264      1.0  0.24477  0.74695  0.50609  1.0000
  F   F265      1.0  0.50467  0.23767  0.01037  1.0000
  F   F266      1.0  0.50337  0.24862  0.49628  1.0000
  F   F267      1.0  0.50533  0.77834  0.98057  1.0000
  F   F268      1.0  0.49275  0.75029  0.49625  1.0000
  F   F269      1.0  0.75267  0.24821  0.99951  1.0000
  F   F270      1.0  0.75202  0.26138  0.49357  1.0000
  F   F271      1.0  0.74405  0.74014  0.01370  1.0000
  F   F272      1.0  0.75104  0.75057  0.49846  1.0000
  F   F273      1.0  0.11435  0.99745  0.26193  1.0000
  F   F274      1.0  0.12410  0.00389  0.77068  1.0000
  F   F275      1.0  0.12245  0.50225  0.25876  1.0000
  F   F276      1.0  0.13099  0.49682  0.74517  1.0000
  F   F277      1.0  0.37276  0.99886  0.25046  1.0000
  F   F278      1.0  0.37840  0.99694  0.74761  1.0000
  F   F279      1.0  0.37371  0.49382  0.25024  1.0000
  F   F280      1.0  0.36816  0.49258  0.76250  1.0000
  F   F281      1.0  0.63456  0.00463  0.22990  1.0000
  F   F282      1.0  0.62500  0.00379  0.74233  1.0000
  F   F283      1.0  0.62774  0.50783  0.23987  1.0000
  F   F284      1.0  0.62708  0.51653  0.73944  1.0000
  F   F285      1.0  0.87155  0.99396  0.25280  1.0000
  F   F286      1.0  0.88235  0.99302  0.74578  1.0000
  F   F287      1.0  0.86461  0.49779  0.26249  1.0000
  F   F288      1.0  0.88064  0.51585  0.74994  1.0000
  F   F289      1.0  0.03518  0.02414  0.04336  1.0000
  F   F290      1.0  0.04179  0.04421  0.52885  1.0000
  F   F291      1.0  0.04063  0.52163  0.02715  1.0000
  F   F292      1.0  0.04411  0.53070  0.52012  1.0000
  F   F293      1.0  0.29261  0.01932  0.03816  1.0000
  F   F294      1.0  0.29862  0.03261  0.51214  1.0000
  F   F295      1.0  0.30016  0.52750  0.02006  1.0000
  F   F296      1.0  0.28930  0.53244  0.51348  1.0000
  F   F297      1.0  0.54911  0.02995  0.01498  1.0000
  F   F298      1.0  0.54576  0.03327  0.52638  1.0000
  F   F299      1.0  0.53770  0.53794  0.03322  1.0000
  F   F300      1.0  0.54273  0.54297  0.50904  1.0000
  F   F301      1.0  0.79297  0.03616  0.02874  1.0000
  F   F302      1.0  0.79561  0.02426  0.52716  1.0000
  F   F303      1.0  0.79176  0.53251  0.02138  1.0000
  F   F304      1.0  0.78594  0.53261  0.52499  1.0000
  F   F305      1.0  0.23485  0.42527  0.21696  1.0000
  F   F306      1.0  0.23622  0.40940  0.72555  1.0000
  F   F307      1.0  0.24109  0.90171  0.23367  1.0000
  F   F308      1.0  0.23696  0.91789  0.72337  1.0000
  F   F309      1.0  0.48264  0.42297  0.23928  1.0000
  F   F310      1.0  0.48720  0.41506  0.72677  1.0000
  F   F311      1.0  0.48790  0.92522  0.21523  1.0000
  F   F312      1.0  0.48513  0.91869  0.72018  1.0000
  F   F313      1.0  0.73106  0.41518  0.22963  1.0000
  F   F314      1.0  0.73638  0.41705  0.72946  1.0000
  F   F315      1.0  0.73422  0.91725  0.22125  1.0000
  F   F316      1.0  0.73454  0.93114  0.71948  1.0000
  F   F317      1.0  0.98389  0.41989  0.23820  1.0000
  F   F318      1.0  0.98355  0.41258  0.72361  1.0000
  F   F319      1.0  0.97822  0.91335  0.24817  1.0000
  F   F320      1.0  0.98329  0.91430  0.72964  1.0000
  F   F321      1.0  0.20353  0.47226  0.47684  1.0000
  F   F322      1.0  0.20164  0.46875  0.97470  1.0000
  F   F323      1.0  0.20888  0.97117  0.47315  1.0000
  F   F324      1.0  0.21598  0.96256  0.98126  1.0000
  F   F325      1.0  0.45678  0.46393  0.47587  1.0000
  F   F326      1.0  0.45909  0.47184  0.97469  1.0000
  F   F327      1.0  0.45434  0.95675  0.48791  1.0000
  F   F328      1.0  0.45674  0.96745  0.97831  1.0000
  F   F329      1.0  0.70799  0.46495  0.47142  1.0000
  F   F330      1.0  0.70893  0.48133  0.96939  1.0000
  F   F331      1.0  0.70763  0.96824  0.48240  1.0000
  F   F332      1.0  0.71436  0.97180  0.96007  1.0000
  F   F333      1.0  0.95944  0.46301  0.47027  1.0000
  F   F334      1.0  0.96674  0.46227  0.96455  1.0000
  F   F335      1.0  0.95341  0.98083  0.49714  1.0000
  F   F336      1.0  0.96311  0.96816  0.97123  1.0000
  F   F337      1.0  0.01381  0.10548  0.26755  1.0000
  F   F338      1.0  0.01075  0.09743  0.76675  1.0000
  F   F339      1.0  0.01589  0.56974  0.29048  1.0000
  F   F340      1.0  0.01798  0.58551  0.76204  1.0000
  F   F341      1.0  0.26550  0.09924  0.27395  1.0000
  F   F342      1.0  0.26431  0.09847  0.76510  1.0000
  F   F343      1.0  0.26270  0.57868  0.28325  1.0000
  F   F344      1.0  0.26580  0.58358  0.77729  1.0000
  F   F345      1.0  0.51530  0.08852  0.27466  1.0000
  F   F346      1.0  0.51524  0.09725  0.76033  1.0000
  F   F347      1.0  0.51512  0.57898  0.28827  1.0000
  F   F348      1.0  0.51569  0.58811  0.77336  1.0000
  F   F349      1.0  0.76293  0.08386  0.27730  1.0000
  F   F350      1.0  0.76332  0.08292  0.77661  1.0000
  F   F351      1.0  0.76575  0.57744  0.27388  1.0000
  F   F352      1.0  0.77139  0.58447  0.76473  1.0000
  F   F353      1.0  0.10246  0.40399  0.46219  1.0000
  F   F354      1.0  0.10187  0.39750  0.95719  1.0000
  F   F355      1.0  0.10216  0.91987  0.46763  1.0000
  F   F356      1.0  0.10121  0.90073  0.96737  1.0000
  F   F357      1.0  0.34723  0.41360  0.47151  1.0000
  F   F358      1.0  0.35269  0.39160  0.96389  1.0000
  F   F359      1.0  0.35307  0.90564  0.46232  1.0000
  F   F360      1.0  0.34990  0.90436  0.95852  1.0000
  F   F361      1.0  0.59914  0.41340  0.45114  1.0000
  F   F362      1.0  0.59882  0.41520  0.95556  1.0000
  F   F363      1.0  0.60342  0.92289  0.45951  1.0000
  F   F364      1.0  0.60141  0.90799  0.94393  1.0000
  F   F365      1.0  0.85155  0.42260  0.46828  1.0000
  F   F366      1.0  0.84738  0.39998  0.96588  1.0000
  F   F367      1.0  0.85282  0.89422  0.47175  1.0000
  F   F368      1.0  0.84711  0.90476  0.95768  1.0000
  F   F369      1.0  0.04262  0.30703  0.30643  1.0000
  F   F370      1.0  0.04136  0.30149  0.80610  1.0000
  F   F371      1.0  0.05024  0.81119  0.28705  1.0000
  F   F372      1.0  0.04289  0.79594  0.79101  1.0000
  F   F373      1.0  0.29356  0.30249  0.28157  1.0000
  F   F374      1.0  0.29276  0.29871  0.78558  1.0000
  F   F375      1.0  0.30861  0.79544  0.28479  1.0000
  F   F376      1.0  0.28783  0.79649  0.79346  1.0000
  F   F377      1.0  0.54703  0.30073  0.27533  1.0000
  F   F378      1.0  0.54713  0.30500  0.78106  1.0000
  F   F379      1.0  0.54676  0.80223  0.27813  1.0000
  F   F380      1.0  0.54057  0.78766  0.78654  1.0000
  F   F381      1.0  0.80174  0.28978  0.28967  1.0000
  F   F382      1.0  0.80380  0.28852  0.78346  1.0000
  F   F383      1.0  0.79720  0.79917  0.28141  1.0000
  F   F384      1.0  0.79426  0.80871  0.79394  1.0000
