data_image0
_chemical_formula_structural       Hf96F384
_chemical_formula_sum              "Hf96 F384"
_cell_length_a       31.0343
_cell_length_b       15.5219
_cell_length_c       15.5095
_cell_angle_alpha    63.342
_cell_angle_beta     63.342
_cell_angle_gamma    80.1625

_space_group_name_H-M_alt    "P 1"
_space_group_IT_number       1

loop_
  _space_group_symop_operation_xyz
  'x, y, z'

loop_
  _atom_site_type_symbol
  _atom_site_label
  _atom_site_symmetry_multiplicity
  _atom_site_fract_x
  _atom_site_fract_y
  _atom_site_fract_z
  _atom_site_occupancy
  Hf  Hf1       1.0  0.19488  0.10977  0.37149  1.0000
  Hf  Hf2       1.0  0.19601  0.11727  0.87698  1.0000
  Hf  Hf3       1.0  0.19664  0.60926  0.36569  1.0000
  Hf  Hf4       1.0  0.19564  0.61419  0.87016  1.0000
  Hf  Hf5       1.0  0.44519  0.10902  0.37809  1.0000
  Hf  Hf6       1.0  0.44819  0.11233  0.87361  1.0000
  Hf  Hf7       1.0  0.44839  0.60186  0.37387  1.0000
  Hf  Hf8       1.0  0.44903  0.61286  0.86646  1.0000
  Hf  Hf9       1.0  0.69577  0.10574  0.37568  1.0000
  Hf  Hf10      1.0  0.69520  0.09491  0.88446  1.0000
  Hf  Hf11      1.0  0.69427  0.59703  0.38473  1.0000
  Hf  Hf12      1.0  0.69865  0.60070  0.87082  1.0000
  Hf  Hf13      1.0  0.94435  0.11073  0.37466  1.0000
  Hf  Hf14      1.0  0.94508  0.11030  0.87831  1.0000
  Hf  Hf15      1.0  0.94884  0.60877  0.36455  1.0000
  Hf  Hf16      1.0  0.94727  0.60533  0.86580  1.0000
  Hf  Hf17      1.0  0.05218  0.39719  0.13058  1.0000
  Hf  Hf18      1.0  0.05049  0.39066  0.62861  1.0000
  Hf  Hf19      1.0  0.05223  0.89779  0.12534  1.0000
  Hf  Hf20      1.0  0.05482  0.89420  0.62047  1.0000
  Hf  Hf21      1.0  0.30364  0.39892  0.12259  1.0000
  Hf  Hf22      1.0  0.30596  0.39838  0.60828  1.0000
  Hf  Hf23      1.0  0.30752  0.89785  0.12232  1.0000
  Hf  Hf24      1.0  0.30134  0.88765  0.62577  1.0000
  Hf  Hf25      1.0  0.55457  0.39630  0.12373  1.0000
  Hf  Hf26      1.0  0.55033  0.39570  0.63296  1.0000
  Hf  Hf27      1.0  0.55608  0.89284  0.12777  1.0000
  Hf  Hf28      1.0  0.55576  0.88787  0.62940  1.0000
  Hf  Hf29      1.0  0.79897  0.39266  0.12989  1.0000
  Hf  Hf30      1.0  0.80665  0.39340  0.61349  1.0000
  Hf  Hf31      1.0  0.80082  0.88686  0.14022  1.0000
  Hf  Hf32      1.0  0.80411  0.89431  0.62020  1.0000
  Hf  Hf33      1.0  0.05404  0.18801  0.41907  1.0000
  Hf  Hf34      1.0  0.05711  0.19038  0.91464  1.0000
  Hf  Hf35      1.0  0.05111  0.68401  0.42115  1.0000
  Hf  Hf36      1.0  0.05701  0.68474  0.90830  1.0000
  Hf  Hf37      1.0  0.30641  0.17335  0.42523  1.0000
  Hf  Hf38      1.0  0.30531  0.18967  0.91795  1.0000
  Hf  Hf39      1.0  0.30981  0.68147  0.41542  1.0000
  Hf  Hf40      1.0  0.30438  0.68450  0.92332  1.0000
  Hf  Hf41      1.0  0.55259  0.17539  0.42474  1.0000
  Hf  Hf42      1.0  0.55749  0.17840  0.92266  1.0000
  Hf  Hf43      1.0  0.55659  0.68226  0.41393  1.0000
  Hf  Hf44      1.0  0.55779  0.68365  0.91140  1.0000
  Hf  Hf45      1.0  0.80592  0.18641  0.41830  1.0000
  Hf  Hf46      1.0  0.80346  0.16752  0.92595  1.0000
  Hf  Hf47      1.0  0.80299  0.67670  0.42247  1.0000
  Hf  Hf48      1.0  0.80754  0.68012  0.91369  1.0000
  Hf  Hf49      1.0  0.15869  0.39243  0.33320  1.0000
  Hf  Hf50      1.0  0.16407  0.40084  0.82100  1.0000
  Hf  Hf51      1.0  0.15776  0.87912  0.33434  1.0000
  Hf  Hf52      1.0  0.15766  0.89702  0.83450  1.0000
  Hf  Hf53      1.0  0.40952  0.38301  0.33203  1.0000
  Hf  Hf54      1.0  0.40775  0.38770  0.84341  1.0000
  Hf  Hf55      1.0  0.40995  0.88671  0.33412  1.0000
  Hf  Hf56      1.0  0.40475  0.89310  0.83352  1.0000
  Hf  Hf57      1.0  0.65561  0.37953  0.34008  1.0000
  Hf  Hf58      1.0  0.65841  0.37964  0.83497  1.0000
  Hf  Hf59      1.0  0.65930  0.88345  0.33889  1.0000
  Hf  Hf60      1.0  0.65966  0.88376  0.83062  1.0000
  Hf  Hf61      1.0  0.90813  0.38361  0.33613  1.0000
  Hf  Hf62      1.0  0.90744  0.38517  0.83820  1.0000
  Hf  Hf63      1.0  0.90595  0.88136  0.33496  1.0000
  Hf  Hf64      1.0  0.90791  0.88359  0.83333  1.0000
  Hf  Hf65      1.0  0.19449  0.32613  0.07655  1.0000
  Hf  Hf66      1.0  0.19315  0.32141  0.57563  1.0000
  Hf  Hf67      1.0  0.19405  0.82251  0.08016  1.0000
  Hf  Hf68      1.0  0.19491  0.82146  0.57721  1.0000
  Hf  Hf69      1.0  0.44571  0.31211  0.08484  1.0000
  Hf  Hf70      1.0  0.44156  0.32120  0.58448  1.0000
  Hf  Hf71      1.0  0.44571  0.80960  0.08049  1.0000
  Hf  Hf72      1.0  0.44445  0.81684  0.58300  1.0000
  Hf  Hf73      1.0  0.69570  0.31230  0.08731  1.0000
  Hf  Hf74      1.0  0.69170  0.31523  0.58353  1.0000
  Hf  Hf75      1.0  0.69440  0.80830  0.09135  1.0000
  Hf  Hf76      1.0  0.69620  0.81650  0.58514  1.0000
  Hf  Hf77      1.0  0.94010  0.31746  0.08478  1.0000
  Hf  Hf78      1.0  0.94282  0.31360  0.59023  1.0000
  Hf  Hf79      1.0  0.94570  0.82301  0.07418  1.0000
  Hf  Hf80      1.0  0.94386  0.82621  0.57908  1.0000
  Hf  Hf81      1.0  0.08838  0.11112  0.17150  1.0000
  Hf  Hf82      1.0  0.08978  0.11441  0.66784  1.0000
  Hf  Hf83      1.0  0.09257  0.61981  0.16187  1.0000
  Hf  Hf84      1.0  0.08963  0.61591  0.66606  1.0000
  Hf  Hf85      1.0  0.33910  0.11310  0.17316  1.0000
  Hf  Hf86      1.0  0.33964  0.11021  0.66952  1.0000
  Hf  Hf87      1.0  0.34596  0.61434  0.15654  1.0000
  Hf  Hf88      1.0  0.34302  0.61318  0.65855  1.0000
  Hf  Hf89      1.0  0.59328  0.10931  0.17304  1.0000
  Hf  Hf90      1.0  0.59231  0.11411  0.66127  1.0000
  Hf  Hf91      1.0  0.59674  0.61505  0.15942  1.0000
  Hf  Hf92      1.0  0.59118  0.61258  0.66920  1.0000
  Hf  Hf93      1.0  0.84192  0.10820  0.17069  1.0000
  Hf  Hf94      1.0  0.84192  0.10857  0.67359  1.0000
  Hf  Hf95      1.0  0.84589  0.61094  0.16223  1.0000
  Hf  Hf96      1.0  0.84207  0.60927  0.66142  1.0000
  F   F1        1.0  0.07784  0.13057  0.29997  1.0000
  F   F2        1.0  0.07822  0.14265  0.79899  1.0000
  F   F3        1.0  0.07909  0.64034  0.30742  1.0000
  F   F4        1.0  0.08423  0.62445  0.79463  1.0000
  F   F5        1.0  0.32913  0.12159  0.30920  1.0000
  F   F6        1.0  0.32668  0.11201  0.81671  1.0000
  F   F7        1.0  0.33847  0.62841  0.29047  1.0000
  F   F8        1.0  0.33025  0.62987  0.79532  1.0000
  F   F9        1.0  0.57440  0.10812  0.32824  1.0000
  F   F10       1.0  0.58288  0.12401  0.80694  1.0000
  F   F11       1.0  0.58956  0.64635  0.28601  1.0000
  F   F12       1.0  0.57869  0.62478  0.80734  1.0000
  F   F13       1.0  0.83193  0.12065  0.30769  1.0000
  F   F14       1.0  0.82719  0.11022  0.81315  1.0000
  F   F15       1.0  0.83477  0.64107  0.29506  1.0000
  F   F16       1.0  0.83318  0.64290  0.78377  1.0000
  F   F17       1.0  0.18965  0.34512  0.43728  1.0000
  F   F18       1.0  0.19630  0.34835  0.92757  1.0000
  F   F19       1.0  0.19176  0.83561  0.44421  1.0000
  F   F20       1.0  0.17830  0.83144  0.95532  1.0000
  F   F21       1.0  0.42834  0.33298  0.45366  1.0000
  F   F22       1.0  0.44558  0.33883  0.93513  1.0000
  F   F23       1.0  0.43756  0.83026  0.45584  1.0000
  F   F24       1.0  0.43419  0.84970  0.94507  1.0000
  F   F25       1.0  0.67479  0.33572  0.45637  1.0000
  F   F26       1.0  0.67826  0.32639  0.95696  1.0000
  F   F27       1.0  0.68573  0.84252  0.45154  1.0000
  F   F28       1.0  0.68981  0.84581  0.93743  1.0000
  F   F29       1.0  0.93221  0.33848  0.44681  1.0000
  F   F30       1.0  0.93695  0.32970  0.94689  1.0000
  F   F31       1.0  0.93946  0.86020  0.43463  1.0000
  F   F32       1.0  0.93008  0.84927  0.94631  1.0000
  F   F33       1.0  0.17142  0.37726  0.19329  1.0000
  F   F34       1.0  0.17718  0.39699  0.67201  1.0000
  F   F35       1.0  0.16839  0.88267  0.19747  1.0000
  F   F36       1.0  0.16703  0.86567  0.70216  1.0000
  F   F37       1.0  0.41621  0.34946  0.20665  1.0000
  F   F38       1.0  0.41511  0.36163  0.70749  1.0000
  F   F39       1.0  0.42209  0.85720  0.20552  1.0000
  F   F40       1.0  0.41992  0.88228  0.69488  1.0000
  F   F41       1.0  0.66859  0.35192  0.20384  1.0000
  F   F42       1.0  0.67476  0.36954  0.69278  1.0000
  F   F43       1.0  0.67586  0.84933  0.20870  1.0000
  F   F44       1.0  0.66915  0.85881  0.70124  1.0000
  F   F45       1.0  0.91982  0.38687  0.18618  1.0000
  F   F46       1.0  0.91768  0.37606  0.70037  1.0000
  F   F47       1.0  0.91663  0.86693  0.19258  1.0000
  F   F48       1.0  0.92759  0.86465  0.69682  1.0000
  F   F49       1.0  0.07682  0.17726  0.03839  1.0000
  F   F50       1.0  0.05556  0.16323  0.55519  1.0000
  F   F51       1.0  0.06180  0.67221  0.04689  1.0000
  F   F52       1.0  0.05874  0.66036  0.55643  1.0000
  F   F53       1.0  0.32107  0.15580  0.05312  1.0000
  F   F54       1.0  0.30630  0.13906  0.57171  1.0000
  F   F55       1.0  0.31095  0.66189  0.05444  1.0000
  F   F56       1.0  0.31890  0.65965  0.54423  1.0000
  F   F57       1.0  0.57139  0.16095  0.05372  1.0000
  F   F58       1.0  0.56456  0.15810  0.55884  1.0000
  F   F59       1.0  0.57025  0.65529  0.03855  1.0000
  F   F60       1.0  0.56319  0.65912  0.55397  1.0000
  F   F61       1.0  0.81283  0.14177  0.06299  1.0000
  F   F62       1.0  0.80528  0.15470  0.56020  1.0000
  F   F63       1.0  0.82400  0.66468  0.04349  1.0000
  F   F64       1.0  0.80155  0.64261  0.57218  1.0000
  F   F65       1.0  0.19968  0.20486  0.20992  1.0000
  F   F66       1.0  0.19285  0.21564  0.71246  1.0000
  F   F67       1.0  0.21194  0.71225  0.21209  1.0000
  F   F68       1.0  0.20389  0.70761  0.70791  1.0000
  F   F69       1.0  0.44554  0.19062  0.21056  1.0000
  F   F70       1.0  0.45564  0.19156  0.72253  1.0000
  F   F71       1.0  0.45254  0.68640  0.20352  1.0000
  F   F72       1.0  0.45292  0.69842  0.71590  1.0000
  F   F73       1.0  0.71575  0.20717  0.20443  1.0000
  F   F74       1.0  0.69173  0.19969  0.71729  1.0000
  F   F75       1.0  0.70175  0.68398  0.23150  1.0000
  F   F76       1.0  0.71004  0.70217  0.70974  1.0000
  F   F77       1.0  0.95205  0.21612  0.20053  1.0000
  F   F78       1.0  0.95601  0.20708  0.71358  1.0000
  F   F79       1.0  0.95479  0.71072  0.19679  1.0000
  F   F80       1.0  0.95255  0.68910  0.70528  1.0000
  F   F81       1.0  0.15255  0.08580  0.03867  1.0000
  F   F82       1.0  0.14188  0.09264  0.53371  1.0000
  F   F83       1.0  0.15095  0.61762  0.02240  1.0000
  F   F84       1.0  0.14470  0.60379  0.54017  1.0000
  F   F85       1.0  0.39802  0.07746  0.02586  1.0000
  F   F86       1.0  0.39475  0.11102  0.53440  1.0000
  F   F87       1.0  0.40308  0.58385  0.02814  1.0000
  F   F88       1.0  0.40202  0.58134  0.54005  1.0000
  F   F89       1.0  0.64971  0.09304  0.04496  1.0000
  F   F90       1.0  0.64561  0.08089  0.53640  1.0000
  F   F91       1.0  0.65345  0.60427  0.03632  1.0000
  F   F92       1.0  0.65212  0.59725  0.53426  1.0000
  F   F93       1.0  0.89407  0.10243  0.03163  1.0000
  F   F94       1.0  0.89987  0.11012  0.53489  1.0000
  F   F95       1.0  0.90298  0.59006  0.03655  1.0000
  F   F96       1.0  0.89460  0.57877  0.54260  1.0000
  F   F97       1.0  0.14826  0.21350  0.12545  1.0000
  F   F98       1.0  0.15042  0.20321  0.62035  1.0000
  F   F99       1.0  0.15267  0.70004  0.14365  1.0000
  F   F100      1.0  0.14675  0.70876  0.63225  1.0000
  F   F101      1.0  0.40546  0.19513  0.09609  1.0000
  F   F102      1.0  0.39630  0.20277  0.63181  1.0000
  F   F103      1.0  0.40795  0.69101  0.10036  1.0000
  F   F104      1.0  0.39937  0.69735  0.63487  1.0000
  F   F105      1.0  0.65458  0.18587  0.14741  1.0000
  F   F106      1.0  0.65554  0.17952  0.61906  1.0000
  F   F107      1.0  0.65850  0.70195  0.12155  1.0000
  F   F108      1.0  0.65271  0.69141  0.63168  1.0000
  F   F109      1.0  0.89547  0.20509  0.12770  1.0000
  F   F110      1.0  0.90460  0.18900  0.65138  1.0000
  F   F111      1.0  0.90473  0.70564  0.10751  1.0000
  F   F112      1.0  0.89691  0.70457  0.61204  1.0000
  F   F113      1.0  0.09876  0.30615  0.39511  1.0000
  F   F114      1.0  0.09559  0.30682  0.86835  1.0000
  F   F115      1.0  0.09958  0.79462  0.35915  1.0000
  F   F116      1.0  0.09634  0.82137  0.88220  1.0000
  F   F117      1.0  0.35199  0.29033  0.39824  1.0000
  F   F118      1.0  0.33978  0.31595  0.88398  1.0000
  F   F119      1.0  0.35641  0.79134  0.36962  1.0000
  F   F120      1.0  0.34326  0.82779  0.85807  1.0000
  F   F121      1.0  0.59412  0.30397  0.39360  1.0000
  F   F122      1.0  0.59735  0.30373  0.87940  1.0000
  F   F123      1.0  0.60200  0.79937  0.37189  1.0000
  F   F124      1.0  0.59791  0.79694  0.87035  1.0000
  F   F125      1.0  0.85146  0.30785  0.37330  1.0000
  F   F126      1.0  0.85005  0.30288  0.88704  1.0000
  F   F127      1.0  0.85000  0.79746  0.38162  1.0000
  F   F128      1.0  0.85035  0.80198  0.83922  1.0000
  F   F129      1.0  0.06142  0.25493  0.15046  1.0000
  F   F130      1.0  0.05611  0.25251  0.65145  1.0000
  F   F131      1.0  0.07004  0.76322  0.13593  1.0000
  F   F132      1.0  0.06054  0.75127  0.64642  1.0000
  F   F133      1.0  0.31211  0.25374  0.14951  1.0000
  F   F134      1.0  0.31448  0.26043  0.62342  1.0000
  F   F135      1.0  0.31785  0.75089  0.15065  1.0000
  F   F136      1.0  0.32302  0.75289  0.61819  1.0000
  F   F137      1.0  0.56948  0.25169  0.14923  1.0000
  F   F138      1.0  0.56607  0.25569  0.64455  1.0000
  F   F139      1.0  0.57267  0.74626  0.12669  1.0000
  F   F140      1.0  0.56106  0.74086  0.65021  1.0000
  F   F141      1.0  0.80619  0.24416  0.15273  1.0000
  F   F142      1.0  0.82676  0.24708  0.63762  1.0000
  F   F143      1.0  0.81043  0.75380  0.14837  1.0000
  F   F144      1.0  0.81436  0.75897  0.62593  1.0000
  F   F145      1.0  0.12408  0.39401  0.09258  1.0000
  F   F146      1.0  0.12206  0.36443  0.61699  1.0000
  F   F147      1.0  0.12023  0.87084  0.12049  1.0000
  F   F148      1.0  0.12875  0.88463  0.58359  1.0000
  F   F149      1.0  0.37481  0.35625  0.10546  1.0000
  F   F150      1.0  0.37364  0.37985  0.60066  1.0000
  F   F151      1.0  0.37521  0.86183  0.11294  1.0000
  F   F152      1.0  0.37627  0.87738  0.59671  1.0000
  F   F153      1.0  0.63071  0.37671  0.09471  1.0000
  F   F154      1.0  0.62191  0.38493  0.59711  1.0000
  F   F155      1.0  0.62535  0.87099  0.11812  1.0000
  F   F156      1.0  0.62211  0.86463  0.61103  1.0000
  F   F157      1.0  0.86762  0.36267  0.11690  1.0000
  F   F158      1.0  0.87754  0.37139  0.59635  1.0000
  F   F159      1.0  0.87285  0.88272  0.09255  1.0000
  F   F160      1.0  0.87779  0.88293  0.59667  1.0000
  F   F161      1.0  0.18868  0.25214  0.35105  1.0000
  F   F162      1.0  0.17719  0.26086  0.85460  1.0000
  F   F163      1.0  0.18189  0.74485  0.36501  1.0000
  F   F164      1.0  0.19130  0.75265  0.84260  1.0000
  F   F165      1.0  0.45185  0.25116  0.33186  1.0000
  F   F166      1.0  0.43131  0.24304  0.87638  1.0000
  F   F167      1.0  0.44416  0.74249  0.35687  1.0000
  F   F168      1.0  0.43108  0.75889  0.85889  1.0000
  F   F169      1.0  0.68521  0.24837  0.36423  1.0000
  F   F170      1.0  0.68324  0.24321  0.85919  1.0000
  F   F171      1.0  0.68665  0.74310  0.37309  1.0000
  F   F172      1.0  0.68627  0.74097  0.85914  1.0000
  F   F173      1.0  0.93446  0.24915  0.35194  1.0000
  F   F174      1.0  0.93980  0.24620  0.85702  1.0000
  F   F175      1.0  0.93286  0.75125  0.35455  1.0000
  F   F176      1.0  0.93643  0.74430  0.86109  1.0000
  F   F177      1.0  0.12289  0.14097  0.38534  1.0000
  F   F178      1.0  0.12305  0.13139  0.89763  1.0000
  F   F179      1.0  0.12829  0.61739  0.39314  1.0000
  F   F180      1.0  0.12400  0.65281  0.87365  1.0000
  F   F181      1.0  0.37712  0.14478  0.38793  1.0000
  F   F182      1.0  0.37522  0.16723  0.86727  1.0000
  F   F183      1.0  0.37949  0.63119  0.39189  1.0000
  F   F184      1.0  0.37253  0.63802  0.88718  1.0000
  F   F185      1.0  0.62737  0.15616  0.36801  1.0000
  F   F186      1.0  0.62791  0.11606  0.89937  1.0000
  F   F187      1.0  0.62521  0.62371  0.40307  1.0000
  F   F188      1.0  0.62796  0.62130  0.88609  1.0000
  F   F189      1.0  0.87445  0.13104  0.40447  1.0000
  F   F190      1.0  0.87240  0.14341  0.88816  1.0000
  F   F191      1.0  0.87665  0.62703  0.39940  1.0000
  F   F192      1.0  0.88234  0.64159  0.87039  1.0000
  F   F193      1.0  0.00764  0.36756  0.09206  1.0000
  F   F194      1.0  0.00307  0.37867  0.56477  1.0000
  F   F195      1.0  0.00582  0.85937  0.07652  1.0000
  F   F196      1.0  0.00653  0.86529  0.57566  1.0000
  F   F197      1.0  0.25995  0.36311  0.05636  1.0000
  F   F198      1.0  0.25815  0.37978  0.55743  1.0000
  F   F199      1.0  0.25281  0.85668  0.09350  1.0000
  F   F200      1.0  0.25568  0.85903  0.57687  1.0000
  F   F201      1.0  0.50813  0.35483  0.09206  1.0000
  F   F202      1.0  0.49708  0.35566  0.60020  1.0000
  F   F203      1.0  0.50378  0.85947  0.09515  1.0000
  F   F204      1.0  0.50581  0.86281  0.57867  1.0000
  F   F205      1.0  0.75605  0.37534  0.06319  1.0000
  F   F206      1.0  0.75992  0.35227  0.57553  1.0000
  F   F207      1.0  0.75514  0.85508  0.08871  1.0000
  F   F208      1.0  0.75831  0.87693  0.55781  1.0000
  F   F209      1.0  0.07031  0.49348  0.18461  1.0000
  F   F210      1.0  0.07236  0.48707  0.66768  1.0000
  F   F211      1.0  0.06416  0.99093  0.18063  1.0000
  F   F212      1.0  0.06921  0.99881  0.66971  1.0000
  F   F213      1.0  0.33050  0.48635  0.15089  1.0000
  F   F214      1.0  0.31698  0.49175  0.66291  1.0000
  F   F215      1.0  0.31298  0.98344  0.18839  1.0000
  F   F216      1.0  0.32393  0.97870  0.66167  1.0000
  F   F217      1.0  0.57003  0.48207  0.18227  1.0000
  F   F218      1.0  0.56664  0.48110  0.67974  1.0000
  F   F219      1.0  0.56892  0.99214  0.18345  1.0000
  F   F220      1.0  0.56649  0.97374  0.68852  1.0000
  F   F221      1.0  0.81792  0.48287  0.17257  1.0000
  F   F222      1.0  0.82013  0.47150  0.67574  1.0000
  F   F223      1.0  0.80999  0.98353  0.18983  1.0000
  F   F224      1.0  0.82108  0.99052  0.67659  1.0000
  F   F225      1.0  0.24555  0.14075  0.42229  1.0000
  F   F226      1.0  0.23739  0.14009  0.93643  1.0000
  F   F227      1.0  0.24071  0.63405  0.41978  1.0000
  F   F228      1.0  0.24477  0.63830  0.93359  1.0000
  F   F229      1.0  0.49139  0.11942  0.44646  1.0000
  F   F230      1.0  0.49610  0.13100  0.92971  1.0000
  F   F231      1.0  0.50173  0.62168  0.41985  1.0000
  F   F232      1.0  0.49263  0.64255  0.92087  1.0000
  F   F233      1.0  0.74286  0.13919  0.43531  1.0000
  F   F234      1.0  0.73599  0.11605  0.94595  1.0000
  F   F235      1.0  0.74352  0.62639  0.43878  1.0000
  F   F236      1.0  0.74718  0.63108  0.91816  1.0000
  F   F237      1.0  0.99126  0.14083  0.42449  1.0000
  F   F238      1.0  0.99239  0.12656  0.93667  1.0000
  F   F239      1.0  0.98516  0.64887  0.41937  1.0000
  F   F240      1.0  0.99708  0.63717  0.91389  1.0000
  F   F241      1.0  0.18284  0.01477  0.32499  1.0000
  F   F242      1.0  0.18013  0.01785  0.83102  1.0000
  F   F243      1.0  0.18427  0.51937  0.29338  1.0000
  F   F244      1.0  0.17809  0.52921  0.81150  1.0000
  F   F245      1.0  0.41914  0.01201  0.35125  1.0000
  F   F246      1.0  0.42306  0.02778  0.83763  1.0000
  F   F247      1.0  0.43307  0.51357  0.32882  1.0000
  F   F248      1.0  0.42816  0.51220  0.84402  1.0000
  F   F249      1.0  0.68175  0.01154  0.33308  1.0000
  F   F250      1.0  0.67536  0.00836  0.83058  1.0000
  F   F251      1.0  0.68192  0.50355  0.33585  1.0000
  F   F252      1.0  0.67965  0.50214  0.82282  1.0000
  F   F253      1.0  0.92810  0.02681  0.32525  1.0000
  F   F254      1.0  0.93532  0.00937  0.83140  1.0000
  F   F255      1.0  0.93196  0.52492  0.31018  1.0000
  F   F256      1.0  0.92904  0.51686  0.81666  1.0000
  F   F257      1.0  0.99811  0.24795  0.01035  1.0000
  F   F258      1.0  0.00230  0.28076  0.47884  1.0000
  F   F259      1.0  0.00490  0.77108  0.97227  1.0000
  F   F260      1.0  0.99189  0.75968  0.49380  1.0000
  F   F261      1.0  0.24587  0.23351  0.01329  1.0000
  F   F262      1.0  0.25085  0.25422  0.48991  1.0000
  F   F263      1.0  0.25358  0.77990  0.97855  1.0000
  F   F264      1.0  0.25140  0.73603  0.50256  1.0000
  F   F265      1.0  0.50426  0.23486  0.01580  1.0000
  F   F266      1.0  0.49352  0.25095  0.51109  1.0000
  F   F267      1.0  0.50106  0.75726  0.99001  1.0000
  F   F268      1.0  0.50397  0.74393  0.50328  1.0000
  F   F269      1.0  0.75211  0.23632  0.00644  1.0000
  F   F270      1.0  0.74757  0.26389  0.49255  1.0000
  F   F271      1.0  0.75069  0.74680  0.00136  1.0000
  F   F272      1.0  0.75346  0.75346  0.49640  1.0000
  F   F273      1.0  0.12122  0.99832  0.25279  1.0000
  F   F274      1.0  0.13004  0.00462  0.74478  1.0000
  F   F275      1.0  0.11680  0.49946  0.26440  1.0000
  F   F276      1.0  0.11873  0.50134  0.75795  1.0000
  F   F277      1.0  0.38521  0.00826  0.23518  1.0000
  F   F278      1.0  0.38341  0.01454  0.73397  1.0000
  F   F279      1.0  0.37429  0.49097  0.25114  1.0000
  F   F280      1.0  0.38342  0.50665  0.73432  1.0000
  F   F281      1.0  0.63062  0.99284  0.24673  1.0000
  F   F282      1.0  0.62183  0.98311  0.76099  1.0000
  F   F283      1.0  0.63117  0.50330  0.24315  1.0000
  F   F284      1.0  0.62606  0.50345  0.74129  1.0000
  F   F285      1.0  0.88236  0.99328  0.23471  1.0000
  F   F286      1.0  0.87641  0.99532  0.75504  1.0000
  F   F287      1.0  0.86596  0.49687  0.26063  1.0000
  F   F288      1.0  0.86722  0.48870  0.76424  1.0000
  F   F289      1.0  0.04301  0.04070  0.02907  1.0000
  F   F290      1.0  0.04323  0.03218  0.52137  1.0000
  F   F291      1.0  0.05443  0.53243  0.01817  1.0000
  F   F292      1.0  0.04126  0.53391  0.52631  1.0000
  F   F293      1.0  0.29675  0.03317  0.01954  1.0000
  F   F294      1.0  0.29765  0.01729  0.51094  1.0000
  F   F295      1.0  0.28700  0.52975  0.02923  1.0000
  F   F296      1.0  0.28959  0.53246  0.52545  1.0000
  F   F297      1.0  0.54653  0.02870  0.03079  1.0000
  F   F298      1.0  0.54950  0.02276  0.52791  1.0000
  F   F299      1.0  0.54322  0.52652  0.02329  1.0000
  F   F300      1.0  0.54324  0.53632  0.53799  1.0000
  F   F301      1.0  0.78850  0.02124  0.02551  1.0000
  F   F302      1.0  0.79319  0.02887  0.52628  1.0000
  F   F303      1.0  0.79333  0.53203  0.03275  1.0000
  F   F304      1.0  0.79812  0.52034  0.51373  1.0000
  F   F305      1.0  0.23650  0.40462  0.21623  1.0000
  F   F306      1.0  0.24283  0.40856  0.72639  1.0000
  F   F307      1.0  0.23693  0.91533  0.22174  1.0000
  F   F308      1.0  0.23420  0.92027  0.73720  1.0000
  F   F309      1.0  0.48358  0.41900  0.22326  1.0000
  F   F310      1.0  0.47805  0.42287  0.72812  1.0000
  F   F311      1.0  0.48552  0.92871  0.23692  1.0000
  F   F312      1.0  0.48164  0.93058  0.73178  1.0000
  F   F313      1.0  0.72827  0.40454  0.23680  1.0000
  F   F314      1.0  0.73693  0.41218  0.72663  1.0000
  F   F315      1.0  0.73052  0.90249  0.24145  1.0000
  F   F316      1.0  0.73325  0.91175  0.71606  1.0000
  F   F317      1.0  0.98305  0.41455  0.24311  1.0000
  F   F318      1.0  0.98368  0.41671  0.72974  1.0000
  F   F319      1.0  0.98069  0.91343  0.22523  1.0000
  F   F320      1.0  0.98517  0.90052  0.72585  1.0000
  F   F321      1.0  0.19947  0.47560  0.46659  1.0000
  F   F322      1.0  0.20087  0.48088  0.98754  1.0000
  F   F323      1.0  0.20956  0.97537  0.47147  1.0000
  F   F324      1.0  0.20458  0.96827  0.97647  1.0000
  F   F325      1.0  0.46026  0.46900  0.47682  1.0000
  F   F326      1.0  0.46225  0.45319  0.98756  1.0000
  F   F327      1.0  0.45215  0.97138  0.47721  1.0000
  F   F328      1.0  0.45746  0.95581  0.98895  1.0000
  F   F329      1.0  0.70971  0.45690  0.47925  1.0000
  F   F330      1.0  0.70864  0.46365  0.97749  1.0000
  F   F331      1.0  0.70423  0.97424  0.48116  1.0000
  F   F332      1.0  0.70057  0.95580  0.99235  1.0000
  F   F333      1.0  0.95860  0.47077  0.45805  1.0000
  F   F334      1.0  0.95762  0.46698  0.97199  1.0000
  F   F335      1.0  0.96325  0.97436  0.46888  1.0000
  F   F336      1.0  0.94771  0.97259  0.99977  1.0000
  F   F337      1.0  0.01273  0.07935  0.27674  1.0000
  F   F338      1.0  0.01453  0.07727  0.79295  1.0000
  F   F339      1.0  0.01815  0.59744  0.26040  1.0000
  F   F340      1.0  0.01892  0.57079  0.78249  1.0000
  F   F341      1.0  0.26254  0.08793  0.27622  1.0000
  F   F342      1.0  0.26419  0.09472  0.77481  1.0000
  F   F343      1.0  0.26996  0.57564  0.26253  1.0000
  F   F344      1.0  0.26485  0.58596  0.77273  1.0000
  F   F345      1.0  0.51301  0.09522  0.27027  1.0000
  F   F346      1.0  0.51595  0.07009  0.78235  1.0000
  F   F347      1.0  0.51961  0.58912  0.26295  1.0000
  F   F348      1.0  0.51634  0.57801  0.78608  1.0000
  F   F349      1.0  0.76751  0.08968  0.28125  1.0000
  F   F350      1.0  0.76177  0.09904  0.76485  1.0000
  F   F351      1.0  0.77119  0.57303  0.27579  1.0000
  F   F352      1.0  0.76956  0.56770  0.77888  1.0000
  F   F353      1.0  0.09974  0.42999  0.45628  1.0000
  F   F354      1.0  0.10868  0.39805  0.95770  1.0000
  F   F355      1.0  0.09681  0.88671  0.46250  1.0000
  F   F356      1.0  0.09945  0.92619  0.96826  1.0000
  F   F357      1.0  0.35072  0.41952  0.45107  1.0000
  F   F358      1.0  0.34808  0.43188  0.95462  1.0000
  F   F359      1.0  0.35271  0.89533  0.45132  1.0000
  F   F360      1.0  0.34324  0.90106  0.96601  1.0000
  F   F361      1.0  0.59339  0.40933  0.47043  1.0000
  F   F362      1.0  0.59724  0.40709  0.96383  1.0000
  F   F363      1.0  0.60153  0.90508  0.45996  1.0000
  F   F364      1.0  0.60027  0.89726  0.97446  1.0000
  F   F365      1.0  0.85283  0.41645  0.44918  1.0000
  F   F366      1.0  0.85287  0.40462  0.97080  1.0000
  F   F367      1.0  0.84653  0.90387  0.46087  1.0000
  F   F368      1.0  0.84823  0.90271  0.94552  1.0000
  F   F369      1.0  0.05371  0.31214  0.28288  1.0000
  F   F370      1.0  0.04417  0.30486  0.79529  1.0000
  F   F371      1.0  0.03930  0.79537  0.29608  1.0000
  F   F372      1.0  0.06017  0.80373  0.77254  1.0000
  F   F373      1.0  0.30401  0.29794  0.30274  1.0000
  F   F374      1.0  0.30082  0.27569  0.77663  1.0000
  F   F375      1.0  0.29903  0.80153  0.28046  1.0000
  F   F376      1.0  0.29645  0.78917  0.77974  1.0000
  F   F377      1.0  0.54742  0.29095  0.29507  1.0000
  F   F378      1.0  0.54338  0.29043  0.79609  1.0000
  F   F379      1.0  0.54327  0.79605  0.28962  1.0000
  F   F380      1.0  0.54571  0.80005  0.78333  1.0000
  F   F381      1.0  0.78878  0.30289  0.29514  1.0000
  F   F382      1.0  0.79716  0.28208  0.80187  1.0000
  F   F383      1.0  0.79679  0.79565  0.29665  1.0000
  F   F384      1.0  0.79388  0.80268  0.77380  1.0000
