data_image0
_chemical_formula_structural       Hf96F384
_chemical_formula_sum              "Hf96 F384"
_cell_length_a       31.0206
_cell_length_b       15.5113
_cell_length_c       15.5029
_cell_angle_alpha    63.342
_cell_angle_beta     63.342
_cell_angle_gamma    80.1625

_space_group_name_H-M_alt    "P 1"
_space_group_IT_number       1

loop_
  _space_group_symop_operation_xyz
  'x, y, z'

loop_
  _atom_site_type_symbol
  _atom_site_label
  _atom_site_symmetry_multiplicity
  _atom_site_fract_x
  _atom_site_fract_y
  _atom_site_fract_z
  _atom_site_occupancy
  Hf  Hf1       1.0  0.19593  0.11392  0.36745  1.0000
  Hf  Hf2       1.0  0.19753  0.11038  0.87399  1.0000
  Hf  Hf3       1.0  0.19790  0.61173  0.37729  1.0000
  Hf  Hf4       1.0  0.19485  0.61304  0.87170  1.0000
  Hf  Hf5       1.0  0.44440  0.10074  0.37840  1.0000
  Hf  Hf6       1.0  0.44768  0.11486  0.86536  1.0000
  Hf  Hf7       1.0  0.44556  0.59526  0.39632  1.0000
  Hf  Hf8       1.0  0.44339  0.60141  0.88765  1.0000
  Hf  Hf9       1.0  0.69839  0.10306  0.37739  1.0000
  Hf  Hf10      1.0  0.69543  0.10818  0.87653  1.0000
  Hf  Hf11      1.0  0.69845  0.61296  0.36174  1.0000
  Hf  Hf12      1.0  0.69620  0.59937  0.87673  1.0000
  Hf  Hf13      1.0  0.94096  0.10370  0.38350  1.0000
  Hf  Hf14      1.0  0.94994  0.10986  0.87441  1.0000
  Hf  Hf15      1.0  0.94272  0.60254  0.38274  1.0000
  Hf  Hf16      1.0  0.94905  0.60920  0.87087  1.0000
  Hf  Hf17      1.0  0.05292  0.39113  0.12374  1.0000
  Hf  Hf18      1.0  0.05366  0.39068  0.62784  1.0000
  Hf  Hf19      1.0  0.05299  0.89122  0.13567  1.0000
  Hf  Hf20      1.0  0.05187  0.89586  0.62476  1.0000
  Hf  Hf21      1.0  0.30430  0.39233  0.12528  1.0000
  Hf  Hf22      1.0  0.30482  0.39242  0.62239  1.0000
  Hf  Hf23      1.0  0.30624  0.89901  0.11180  1.0000
  Hf  Hf24      1.0  0.30327  0.89674  0.62087  1.0000
  Hf  Hf25      1.0  0.55146  0.39168  0.12964  1.0000
  Hf  Hf26      1.0  0.55482  0.39449  0.63035  1.0000
  Hf  Hf27      1.0  0.55436  0.89561  0.11876  1.0000
  Hf  Hf28      1.0  0.55560  0.89497  0.61492  1.0000
  Hf  Hf29      1.0  0.80262  0.38568  0.12605  1.0000
  Hf  Hf30      1.0  0.80196  0.39581  0.62402  1.0000
  Hf  Hf31      1.0  0.80529  0.89444  0.11740  1.0000
  Hf  Hf32      1.0  0.80195  0.88712  0.62843  1.0000
  Hf  Hf33      1.0  0.05679  0.18751  0.41329  1.0000
  Hf  Hf34      1.0  0.05528  0.18062  0.92007  1.0000
  Hf  Hf35      1.0  0.05493  0.67205  0.42137  1.0000
  Hf  Hf36      1.0  0.05611  0.68314  0.91219  1.0000
  Hf  Hf37      1.0  0.30730  0.18417  0.41151  1.0000
  Hf  Hf38      1.0  0.30577  0.18911  0.91607  1.0000
  Hf  Hf39      1.0  0.30756  0.69032  0.40663  1.0000
  Hf  Hf40      1.0  0.30769  0.68342  0.90684  1.0000
  Hf  Hf41      1.0  0.55632  0.18135  0.41814  1.0000
  Hf  Hf42      1.0  0.55783  0.18624  0.91474  1.0000
  Hf  Hf43      1.0  0.56018  0.68846  0.41295  1.0000
  Hf  Hf44      1.0  0.55352  0.67729  0.92146  1.0000
  Hf  Hf45      1.0  0.80387  0.17590  0.41960  1.0000
  Hf  Hf46      1.0  0.80948  0.18624  0.91278  1.0000
  Hf  Hf47      1.0  0.80238  0.68318  0.42120  1.0000
  Hf  Hf48      1.0  0.80220  0.67884  0.92406  1.0000
  Hf  Hf49      1.0  0.16154  0.38846  0.32945  1.0000
  Hf  Hf50      1.0  0.15976  0.38859  0.83211  1.0000
  Hf  Hf51      1.0  0.15741  0.88787  0.33973  1.0000
  Hf  Hf52      1.0  0.15686  0.89316  0.82996  1.0000
  Hf  Hf53      1.0  0.40659  0.38748  0.34055  1.0000
  Hf  Hf54      1.0  0.41140  0.39132  0.83636  1.0000
  Hf  Hf55      1.0  0.40871  0.87970  0.33726  1.0000
  Hf  Hf56      1.0  0.41175  0.88651  0.82787  1.0000
  Hf  Hf57      1.0  0.65801  0.38523  0.33922  1.0000
  Hf  Hf58      1.0  0.65800  0.38626  0.83841  1.0000
  Hf  Hf59      1.0  0.65991  0.88965  0.33334  1.0000
  Hf  Hf60      1.0  0.65702  0.87747  0.84136  1.0000
  Hf  Hf61      1.0  0.90892  0.38699  0.32690  1.0000
  Hf  Hf62      1.0  0.90843  0.39520  0.82583  1.0000
  Hf  Hf63      1.0  0.90616  0.88242  0.33629  1.0000
  Hf  Hf64      1.0  0.90689  0.88327  0.83909  1.0000
  Hf  Hf65      1.0  0.19131  0.32783  0.07829  1.0000
  Hf  Hf66      1.0  0.19506  0.32522  0.57816  1.0000
  Hf  Hf67      1.0  0.19690  0.81506  0.08120  1.0000
  Hf  Hf68      1.0  0.19235  0.82536  0.58723  1.0000
  Hf  Hf69      1.0  0.44380  0.31483  0.09310  1.0000
  Hf  Hf70      1.0  0.44781  0.31703  0.58303  1.0000
  Hf  Hf71      1.0  0.44659  0.82998  0.06824  1.0000
  Hf  Hf72      1.0  0.44608  0.81590  0.58089  1.0000
  Hf  Hf73      1.0  0.68990  0.31161  0.09417  1.0000
  Hf  Hf74      1.0  0.69579  0.31717  0.58248  1.0000
  Hf  Hf75      1.0  0.69348  0.82122  0.07965  1.0000
  Hf  Hf76      1.0  0.69457  0.81864  0.58527  1.0000
  Hf  Hf77      1.0  0.94339  0.30706  0.08557  1.0000
  Hf  Hf78      1.0  0.94056  0.31318  0.58475  1.0000
  Hf  Hf79      1.0  0.94373  0.81927  0.08427  1.0000
  Hf  Hf80      1.0  0.94553  0.81902  0.57919  1.0000
  Hf  Hf81      1.0  0.09200  0.11005  0.17093  1.0000
  Hf  Hf82      1.0  0.09536  0.11784  0.65971  1.0000
  Hf  Hf83      1.0  0.08719  0.61509  0.16674  1.0000
  Hf  Hf84      1.0  0.09312  0.61381  0.66400  1.0000
  Hf  Hf85      1.0  0.34371  0.11194  0.16268  1.0000
  Hf  Hf86      1.0  0.34194  0.11607  0.66597  1.0000
  Hf  Hf87      1.0  0.34246  0.61570  0.15912  1.0000
  Hf  Hf88      1.0  0.34386  0.61072  0.66534  1.0000
  Hf  Hf89      1.0  0.59311  0.10823  0.17138  1.0000
  Hf  Hf90      1.0  0.59120  0.10487  0.67288  1.0000
  Hf  Hf91      1.0  0.58802  0.60982  0.16946  1.0000
  Hf  Hf92      1.0  0.58977  0.60513  0.67405  1.0000
  Hf  Hf93      1.0  0.84229  0.10580  0.16383  1.0000
  Hf  Hf94      1.0  0.83795  0.10602  0.66753  1.0000
  Hf  Hf95      1.0  0.84420  0.61325  0.16352  1.0000
  Hf  Hf96      1.0  0.84257  0.61372  0.66686  1.0000
  F   F1        1.0  0.08139  0.13116  0.30466  1.0000
  F   F2        1.0  0.08412  0.12922  0.80426  1.0000
  F   F3        1.0  0.07634  0.62944  0.30142  1.0000
  F   F4        1.0  0.08118  0.63612  0.79731  1.0000
  F   F5        1.0  0.33166  0.12534  0.30662  1.0000
  F   F6        1.0  0.31853  0.11814  0.81758  1.0000
  F   F7        1.0  0.32962  0.62133  0.30403  1.0000
  F   F8        1.0  0.33312  0.62306  0.80233  1.0000
  F   F9        1.0  0.57861  0.10573  0.31491  1.0000
  F   F10       1.0  0.57707  0.14007  0.80026  1.0000
  F   F11       1.0  0.57750  0.64283  0.30208  1.0000
  F   F12       1.0  0.57746  0.63089  0.80268  1.0000
  F   F13       1.0  0.83126  0.12976  0.30740  1.0000
  F   F14       1.0  0.82918  0.13661  0.80135  1.0000
  F   F15       1.0  0.82964  0.63036  0.29840  1.0000
  F   F16       1.0  0.83201  0.63894  0.80312  1.0000
  F   F17       1.0  0.19402  0.34347  0.43500  1.0000
  F   F18       1.0  0.18750  0.35642  0.93658  1.0000
  F   F19       1.0  0.18136  0.85341  0.45139  1.0000
  F   F20       1.0  0.18640  0.84388  0.94472  1.0000
  F   F21       1.0  0.43498  0.33992  0.45614  1.0000
  F   F22       1.0  0.43849  0.33351  0.94224  1.0000
  F   F23       1.0  0.43275  0.84560  0.44811  1.0000
  F   F24       1.0  0.44344  0.84845  0.92659  1.0000
  F   F25       1.0  0.68813  0.35178  0.44587  1.0000
  F   F26       1.0  0.67916  0.33188  0.96525  1.0000
  F   F27       1.0  0.68145  0.84257  0.44589  1.0000
  F   F28       1.0  0.69150  0.84328  0.94164  1.0000
  F   F29       1.0  0.93769  0.35775  0.42554  1.0000
  F   F30       1.0  0.93473  0.33877  0.95356  1.0000
  F   F31       1.0  0.92515  0.82240  0.46249  1.0000
  F   F32       1.0  0.93207  0.83576  0.94922  1.0000
  F   F33       1.0  0.17216  0.38690  0.18530  1.0000
  F   F34       1.0  0.17136  0.37087  0.69321  1.0000
  F   F35       1.0  0.17137  0.86978  0.19748  1.0000
  F   F36       1.0  0.17007  0.88097  0.69169  1.0000
  F   F37       1.0  0.41690  0.35936  0.20572  1.0000
  F   F38       1.0  0.42039  0.35848  0.70893  1.0000
  F   F39       1.0  0.41565  0.85738  0.20555  1.0000
  F   F40       1.0  0.42752  0.87735  0.69013  1.0000
  F   F41       1.0  0.66541  0.35819  0.20655  1.0000
  F   F42       1.0  0.66834  0.36887  0.70304  1.0000
  F   F43       1.0  0.66859  0.85771  0.20179  1.0000
  F   F44       1.0  0.67279  0.86431  0.69668  1.0000
  F   F45       1.0  0.92819  0.38494  0.17256  1.0000
  F   F46       1.0  0.91088  0.36548  0.69869  1.0000
  F   F47       1.0  0.91947  0.87865  0.19924  1.0000
  F   F48       1.0  0.91775  0.87521  0.69958  1.0000
  F   F49       1.0  0.06741  0.15904  0.05978  1.0000
  F   F50       1.0  0.06869  0.17635  0.54659  1.0000
  F   F51       1.0  0.06053  0.66642  0.05072  1.0000
  F   F52       1.0  0.05829  0.65340  0.55988  1.0000
  F   F53       1.0  0.31438  0.16585  0.04407  1.0000
  F   F54       1.0  0.31208  0.16063  0.56558  1.0000
  F   F55       1.0  0.31496  0.66799  0.04763  1.0000
  F   F56       1.0  0.31438  0.65577  0.55637  1.0000
  F   F57       1.0  0.55859  0.14084  0.06232  1.0000
  F   F58       1.0  0.55898  0.14750  0.56778  1.0000
  F   F59       1.0  0.56104  0.66528  0.05122  1.0000
  F   F60       1.0  0.55680  0.65085  0.56139  1.0000
  F   F61       1.0  0.81153  0.15008  0.05931  1.0000
  F   F62       1.0  0.80731  0.14555  0.56164  1.0000
  F   F63       1.0  0.81263  0.66403  0.05620  1.0000
  F   F64       1.0  0.80449  0.65164  0.56655  1.0000
  F   F65       1.0  0.19922  0.21358  0.19770  1.0000
  F   F66       1.0  0.20022  0.21571  0.71475  1.0000
  F   F67       1.0  0.21233  0.71481  0.20946  1.0000
  F   F68       1.0  0.19812  0.70313  0.71028  1.0000
  F   F69       1.0  0.45291  0.19320  0.22268  1.0000
  F   F70       1.0  0.45559  0.18889  0.70863  1.0000
  F   F71       1.0  0.44660  0.70540  0.18789  1.0000
  F   F72       1.0  0.45267  0.69628  0.70212  1.0000
  F   F73       1.0  0.69898  0.19270  0.23247  1.0000
  F   F74       1.0  0.70998  0.20695  0.70766  1.0000
  F   F75       1.0  0.70146  0.70666  0.20665  1.0000
  F   F76       1.0  0.70946  0.69465  0.71366  1.0000
  F   F77       1.0  0.94944  0.19784  0.21861  1.0000
  F   F78       1.0  0.94953  0.19441  0.71441  1.0000
  F   F79       1.0  0.94956  0.69614  0.20310  1.0000
  F   F80       1.0  0.95728  0.70228  0.70485  1.0000
  F   F81       1.0  0.14689  0.07475  0.06722  1.0000
  F   F82       1.0  0.15522  0.09797  0.52920  1.0000
  F   F83       1.0  0.14717  0.59325  0.04273  1.0000
  F   F84       1.0  0.14780  0.59653  0.53047  1.0000
  F   F85       1.0  0.39961  0.08972  0.03177  1.0000
  F   F86       1.0  0.40047  0.10585  0.53749  1.0000
  F   F87       1.0  0.39887  0.58856  0.04711  1.0000
  F   F88       1.0  0.39525  0.56826  0.54974  1.0000
  F   F89       1.0  0.64517  0.08687  0.04341  1.0000
  F   F90       1.0  0.65112  0.09183  0.53483  1.0000
  F   F91       1.0  0.64294  0.56743  0.04211  1.0000
  F   F92       1.0  0.64284  0.59812  0.54855  1.0000
  F   F93       1.0  0.90116  0.09003  0.03521  1.0000
  F   F94       1.0  0.89513  0.07204  0.54924  1.0000
  F   F95       1.0  0.90268  0.59802  0.03550  1.0000
  F   F96       1.0  0.89804  0.59249  0.53921  1.0000
  F   F97       1.0  0.14450  0.21913  0.11402  1.0000
  F   F98       1.0  0.15922  0.18950  0.62183  1.0000
  F   F99       1.0  0.15629  0.70356  0.11962  1.0000
  F   F100      1.0  0.15349  0.69709  0.60754  1.0000
  F   F101      1.0  0.40148  0.20407  0.13072  1.0000
  F   F102      1.0  0.39773  0.19745  0.64446  1.0000
  F   F103      1.0  0.40087  0.71013  0.09633  1.0000
  F   F104      1.0  0.40506  0.69924  0.60438  1.0000
  F   F105      1.0  0.64834  0.18515  0.14486  1.0000
  F   F106      1.0  0.65476  0.19092  0.63497  1.0000
  F   F107      1.0  0.64929  0.68972  0.10989  1.0000
  F   F108      1.0  0.64913  0.70306  0.64246  1.0000
  F   F109      1.0  0.90680  0.18338  0.12742  1.0000
  F   F110      1.0  0.90132  0.19697  0.60056  1.0000
  F   F111      1.0  0.89917  0.69824  0.12672  1.0000
  F   F112      1.0  0.90784  0.68612  0.63118  1.0000
  F   F113      1.0  0.10116  0.30578  0.36656  1.0000
  F   F114      1.0  0.09855  0.30148  0.86737  1.0000
  F   F115      1.0  0.09683  0.81669  0.38942  1.0000
  F   F116      1.0  0.10316  0.79284  0.85585  1.0000
  F   F117      1.0  0.34735  0.28877  0.39147  1.0000
  F   F118      1.0  0.34658  0.31803  0.87604  1.0000
  F   F119      1.0  0.34258  0.81336  0.37397  1.0000
  F   F120      1.0  0.34911  0.79753  0.87255  1.0000
  F   F121      1.0  0.59518  0.29655  0.38764  1.0000
  F   F122      1.0  0.59267  0.29838  0.89458  1.0000
  F   F123      1.0  0.60464  0.80394  0.37975  1.0000
  F   F124      1.0  0.59873  0.80329  0.86057  1.0000
  F   F125      1.0  0.84309  0.30226  0.36933  1.0000
  F   F126      1.0  0.84719  0.30544  0.88809  1.0000
  F   F127      1.0  0.84712  0.80686  0.38221  1.0000
  F   F128      1.0  0.84690  0.79840  0.87185  1.0000
  F   F129      1.0  0.05656  0.24625  0.16189  1.0000
  F   F130      1.0  0.06765  0.25359  0.64415  1.0000
  F   F131      1.0  0.06728  0.75625  0.13850  1.0000
  F   F132      1.0  0.06477  0.74922  0.63285  1.0000
  F   F133      1.0  0.32340  0.25723  0.12841  1.0000
  F   F134      1.0  0.31292  0.24882  0.64876  1.0000
  F   F135      1.0  0.31107  0.74633  0.14841  1.0000
  F   F136      1.0  0.31597  0.76660  0.62706  1.0000
  F   F137      1.0  0.56726  0.25018  0.13250  1.0000
  F   F138      1.0  0.57359  0.25969  0.62497  1.0000
  F   F139      1.0  0.56283  0.75498  0.14796  1.0000
  F   F140      1.0  0.57220  0.74906  0.62068  1.0000
  F   F141      1.0  0.82680  0.25243  0.11856  1.0000
  F   F142      1.0  0.81088  0.24747  0.63689  1.0000
  F   F143      1.0  0.81490  0.76174  0.12868  1.0000
  F   F144      1.0  0.81879  0.75067  0.63918  1.0000
  F   F145      1.0  0.12296  0.38460  0.10487  1.0000
  F   F146      1.0  0.12628  0.35753  0.60715  1.0000
  F   F147      1.0  0.12899  0.87956  0.10292  1.0000
  F   F148      1.0  0.12300  0.85344  0.62556  1.0000
  F   F149      1.0  0.37890  0.38829  0.09788  1.0000
  F   F150      1.0  0.37411  0.37775  0.60203  1.0000
  F   F151      1.0  0.37564  0.86880  0.09770  1.0000
  F   F152      1.0  0.37539  0.85711  0.62494  1.0000
  F   F153      1.0  0.62204  0.37225  0.11558  1.0000
  F   F154      1.0  0.62795  0.36140  0.61204  1.0000
  F   F155      1.0  0.62805  0.88404  0.09006  1.0000
  F   F156      1.0  0.62792  0.89542  0.58766  1.0000
  F   F157      1.0  0.87160  0.35263  0.12672  1.0000
  F   F158      1.0  0.87177  0.34971  0.60825  1.0000
  F   F159      1.0  0.87832  0.87299  0.10445  1.0000
  F   F160      1.0  0.87127  0.86925  0.61837  1.0000
  F   F161      1.0  0.18193  0.25209  0.35428  1.0000
  F   F162      1.0  0.18359  0.25196  0.86990  1.0000
  F   F163      1.0  0.18234  0.74816  0.37131  1.0000
  F   F164      1.0  0.18555  0.76000  0.84978  1.0000
  F   F165      1.0  0.43787  0.25546  0.35236  1.0000
  F   F166      1.0  0.43652  0.24810  0.85068  1.0000
  F   F167      1.0  0.43093  0.73914  0.37331  1.0000
  F   F168      1.0  0.43741  0.74144  0.85353  1.0000
  F   F169      1.0  0.68410  0.24911  0.36633  1.0000
  F   F170      1.0  0.68089  0.24386  0.87106  1.0000
  F   F171      1.0  0.69558  0.74260  0.35171  1.0000
  F   F172      1.0  0.67750  0.73864  0.87853  1.0000
  F   F173      1.0  0.92782  0.25281  0.35829  1.0000
  F   F174      1.0  0.93962  0.25308  0.85398  1.0000
  F   F175      1.0  0.94211  0.74533  0.33656  1.0000
  F   F176      1.0  0.93711  0.74454  0.85139  1.0000
  F   F177      1.0  0.12257  0.12821  0.39876  1.0000
  F   F178      1.0  0.12495  0.12518  0.91222  1.0000
  F   F179      1.0  0.12546  0.63398  0.38676  1.0000
  F   F180      1.0  0.12341  0.62130  0.90431  1.0000
  F   F181      1.0  0.37644  0.12107  0.39869  1.0000
  F   F182      1.0  0.37305  0.14492  0.88627  1.0000
  F   F183      1.0  0.37777  0.64067  0.38898  1.0000
  F   F184      1.0  0.37156  0.62651  0.90405  1.0000
  F   F185      1.0  0.62407  0.13571  0.39354  1.0000
  F   F186      1.0  0.62515  0.12967  0.89019  1.0000
  F   F187      1.0  0.62474  0.62609  0.39165  1.0000
  F   F188      1.0  0.62365  0.62088  0.89369  1.0000
  F   F189      1.0  0.87531  0.13107  0.39634  1.0000
  F   F190      1.0  0.87884  0.14866  0.88712  1.0000
  F   F191      1.0  0.87231  0.63904  0.39708  1.0000
  F   F192      1.0  0.87485  0.62422  0.90056  1.0000
  F   F193      1.0  0.01109  0.35197  0.06513  1.0000
  F   F194      1.0  0.00052  0.35588  0.59387  1.0000
  F   F195      1.0  0.00794  0.85373  0.09537  1.0000
  F   F196      1.0  0.00876  0.86409  0.56715  1.0000
  F   F197      1.0  0.25403  0.36279  0.07609  1.0000
  F   F198      1.0  0.25561  0.36986  0.56597  1.0000
  F   F199      1.0  0.26024  0.87722  0.05022  1.0000
  F   F200      1.0  0.25726  0.88076  0.56613  1.0000
  F   F201      1.0  0.51033  0.35853  0.08794  1.0000
  F   F202      1.0  0.50898  0.35677  0.58518  1.0000
  F   F203      1.0  0.50812  0.86804  0.06892  1.0000
  F   F204      1.0  0.50804  0.86209  0.57783  1.0000
  F   F205      1.0  0.75283  0.34480  0.08709  1.0000
  F   F206      1.0  0.75724  0.37129  0.57360  1.0000
  F   F207      1.0  0.75500  0.86955  0.06871  1.0000
  F   F208      1.0  0.75687  0.85914  0.57053  1.0000
  F   F209      1.0  0.06277  0.49628  0.18219  1.0000
  F   F210      1.0  0.06844  0.48130  0.67331  1.0000
  F   F211      1.0  0.06773  0.97439  0.18733  1.0000
  F   F212      1.0  0.06836  0.99140  0.66917  1.0000
  F   F213      1.0  0.31888  0.48720  0.16607  1.0000
  F   F214      1.0  0.31961  0.48167  0.68936  1.0000
  F   F215      1.0  0.31989  0.99047  0.16428  1.0000
  F   F216      1.0  0.32520  0.99009  0.65900  1.0000
  F   F217      1.0  0.56250  0.47309  0.20227  1.0000
  F   F218      1.0  0.56320  0.48577  0.69069  1.0000
  F   F219      1.0  0.57291  0.98067  0.16575  1.0000
  F   F220      1.0  0.56750  0.98363  0.66817  1.0000
  F   F221      1.0  0.81832  0.48197  0.16516  1.0000
  F   F222      1.0  0.82331  0.48139  0.66783  1.0000
  F   F223      1.0  0.82002  0.98930  0.17013  1.0000
  F   F224      1.0  0.81153  0.98577  0.67763  1.0000
  F   F225      1.0  0.23961  0.15190  0.41362  1.0000
  F   F226      1.0  0.24190  0.13576  0.92754  1.0000
  F   F227      1.0  0.24372  0.63048  0.43782  1.0000
  F   F228      1.0  0.24125  0.63143  0.93161  1.0000
  F   F229      1.0  0.49429  0.14082  0.42062  1.0000
  F   F230      1.0  0.49528  0.15011  0.91838  1.0000
  F   F231      1.0  0.49563  0.62576  0.44232  1.0000
  F   F232      1.0  0.48902  0.62810  0.95682  1.0000
  F   F233      1.0  0.74312  0.13959  0.42619  1.0000
  F   F234      1.0  0.74461  0.13880  0.91898  1.0000
  F   F235      1.0  0.74096  0.62914  0.43607  1.0000
  F   F236      1.0  0.74301  0.62554  0.92773  1.0000
  F   F237      1.0  0.98974  0.13737  0.42092  1.0000
  F   F238      1.0  0.99268  0.13060  0.93119  1.0000
  F   F239      1.0  0.98991  0.63035  0.42764  1.0000
  F   F240      1.0  0.99145  0.63994  0.92962  1.0000
  F   F241      1.0  0.18650  0.02706  0.30639  1.0000
  F   F242      1.0  0.18042  0.01816  0.80823  1.0000
  F   F243      1.0  0.18129  0.51854  0.31995  1.0000
  F   F244      1.0  0.17703  0.52197  0.81967  1.0000
  F   F245      1.0  0.43526  0.01511  0.31299  1.0000
  F   F246      1.0  0.42941  0.01214  0.83526  1.0000
  F   F247      1.0  0.43132  0.52014  0.33092  1.0000
  F   F248      1.0  0.43000  0.52085  0.83107  1.0000
  F   F249      1.0  0.68555  0.01425  0.31991  1.0000
  F   F250      1.0  0.68250  0.01195  0.83098  1.0000
  F   F251      1.0  0.68103  0.51386  0.32430  1.0000
  F   F252      1.0  0.68600  0.51566  0.82210  1.0000
  F   F253      1.0  0.92770  0.00415  0.33966  1.0000
  F   F254      1.0  0.93126  0.00880  0.83761  1.0000
  F   F255      1.0  0.93212  0.51957  0.30963  1.0000
  F   F256      1.0  0.93570  0.51717  0.81511  1.0000
  F   F257      1.0  0.99677  0.23635  0.00847  1.0000
  F   F258      1.0  0.99923  0.25396  0.49337  1.0000
  F   F259      1.0  0.00268  0.77117  0.98359  1.0000
  F   F260      1.0  0.00463  0.75961  0.48049  1.0000
  F   F261      1.0  0.24925  0.25962  0.99173  1.0000
  F   F262      1.0  0.25270  0.24816  0.49493  1.0000
  F   F263      1.0  0.25324  0.75094  0.99756  1.0000
  F   F264      1.0  0.25339  0.76778  0.48929  1.0000
  F   F265      1.0  0.50417  0.26615  0.99724  1.0000
  F   F266      1.0  0.50332  0.25597  0.49450  1.0000
  F   F267      1.0  0.49906  0.75689  0.98940  1.0000
  F   F268      1.0  0.50783  0.78653  0.46781  1.0000
  F   F269      1.0  0.74689  0.24193  0.00367  1.0000
  F   F270      1.0  0.75489  0.26910  0.48764  1.0000
  F   F271      1.0  0.74748  0.75093  0.99900  1.0000
  F   F272      1.0  0.74860  0.75606  0.49795  1.0000
  F   F273      1.0  0.11688  0.99536  0.27277  1.0000
  F   F274      1.0  0.12199  0.00169  0.74520  1.0000
  F   F275      1.0  0.11635  0.50287  0.25715  1.0000
  F   F276      1.0  0.12100  0.49323  0.74581  1.0000
  F   F277      1.0  0.37307  0.00016  0.23506  1.0000
  F   F278      1.0  0.38322  0.01123  0.74648  1.0000
  F   F279      1.0  0.38051  0.49722  0.23702  1.0000
  F   F280      1.0  0.37907  0.50278  0.75043  1.0000
  F   F281      1.0  0.63440  0.00013  0.24153  1.0000
  F   F282      1.0  0.62559  0.99179  0.75136  1.0000
  F   F283      1.0  0.62433  0.50590  0.25308  1.0000
  F   F284      1.0  0.63072  0.50128  0.75747  1.0000
  F   F285      1.0  0.87147  0.99149  0.25222  1.0000
  F   F286      1.0  0.87210  0.00017  0.76060  1.0000
  F   F287      1.0  0.87359  0.50063  0.24923  1.0000
  F   F288      1.0  0.87823  0.50970  0.73761  1.0000
  F   F289      1.0  0.04200  0.02969  0.02733  1.0000
  F   F290      1.0  0.03780  0.03859  0.52832  1.0000
  F   F291      1.0  0.04763  0.53026  0.01433  1.0000
  F   F292      1.0  0.03544  0.52807  0.52666  1.0000
  F   F293      1.0  0.29130  0.03983  0.02483  1.0000
  F   F294      1.0  0.28423  0.04114  0.52786  1.0000
  F   F295      1.0  0.28705  0.52938  0.03343  1.0000
  F   F296      1.0  0.30020  0.53174  0.52709  1.0000
  F   F297      1.0  0.54097  0.02618  0.01978  1.0000
  F   F298      1.0  0.54411  0.02853  0.52240  1.0000
  F   F299      1.0  0.53489  0.52006  0.04114  1.0000
  F   F300      1.0  0.54794  0.52643  0.52283  1.0000
  F   F301      1.0  0.79535  0.03198  0.01862  1.0000
  F   F302      1.0  0.78815  0.02913  0.52891  1.0000
  F   F303      1.0  0.79293  0.52608  0.01810  1.0000
  F   F304      1.0  0.79256  0.53355  0.52368  1.0000
  F   F305      1.0  0.23616  0.38919  0.23664  1.0000
  F   F306      1.0  0.23602  0.40957  0.72076  1.0000
  F   F307      1.0  0.23076  0.91268  0.22380  1.0000
  F   F308      1.0  0.23908  0.91230  0.73138  1.0000
  F   F309      1.0  0.47922  0.42341  0.24590  1.0000
  F   F310      1.0  0.48205  0.42918  0.71781  1.0000
  F   F311      1.0  0.49013  0.90469  0.23080  1.0000
  F   F312      1.0  0.48541  0.92322  0.72866  1.0000
  F   F313      1.0  0.73233  0.42352  0.22716  1.0000
  F   F314      1.0  0.73101  0.39895  0.73903  1.0000
  F   F315      1.0  0.73883  0.90446  0.22528  1.0000
  F   F316      1.0  0.73215  0.90007  0.73220  1.0000
  F   F317      1.0  0.98554  0.41030  0.22418  1.0000
  F   F318      1.0  0.98195  0.41849  0.72567  1.0000
  F   F319      1.0  0.98092  0.91846  0.23199  1.0000
  F   F320      1.0  0.98394  0.92306  0.71703  1.0000
  F   F321      1.0  0.20115  0.47793  0.48633  1.0000
  F   F322      1.0  0.20730  0.48042  0.96050  1.0000
  F   F323      1.0  0.20831  0.97320  0.47716  1.0000
  F   F324      1.0  0.20500  0.97704  0.96579  1.0000
  F   F325      1.0  0.46968  0.46703  0.47218  1.0000
  F   F326      1.0  0.46159  0.46613  0.98487  1.0000
  F   F327      1.0  0.45430  0.96931  0.48046  1.0000
  F   F328      1.0  0.45906  0.97164  0.97294  1.0000
  F   F329      1.0  0.70619  0.47565  0.47823  1.0000
  F   F330      1.0  0.70672  0.46149  0.99161  1.0000
  F   F331      1.0  0.70834  0.97110  0.46907  1.0000
  F   F332      1.0  0.70969  0.97443  0.97461  1.0000
  F   F333      1.0  0.95299  0.46424  0.48733  1.0000
  F   F334      1.0  0.95653  0.47096  0.97604  1.0000
  F   F335      1.0  0.96087  0.96819  0.47837  1.0000
  F   F336      1.0  0.96427  0.96115  0.98246  1.0000
  F   F337      1.0  0.01516  0.06597  0.29527  1.0000
  F   F338      1.0  0.01769  0.09868  0.76261  1.0000
  F   F339      1.0  0.00977  0.58482  0.27567  1.0000
  F   F340      1.0  0.01824  0.57617  0.79076  1.0000
  F   F341      1.0  0.26887  0.09860  0.25982  1.0000
  F   F342      1.0  0.26247  0.08395  0.77489  1.0000
  F   F343      1.0  0.26869  0.57473  0.27646  1.0000
  F   F344      1.0  0.26817  0.59501  0.76669  1.0000
  F   F345      1.0  0.51573  0.08124  0.27352  1.0000
  F   F346      1.0  0.51722  0.08009  0.77399  1.0000
  F   F347      1.0  0.50525  0.60559  0.26448  1.0000
  F   F348      1.0  0.50833  0.60457  0.77717  1.0000
  F   F349      1.0  0.77088  0.08723  0.26747  1.0000
  F   F350      1.0  0.76518  0.07725  0.78263  1.0000
  F   F351      1.0  0.76695  0.58913  0.26084  1.0000
  F   F352      1.0  0.76991  0.57312  0.78046  1.0000
  F   F353      1.0  0.09604  0.40037  0.46766  1.0000
  F   F354      1.0  0.09755  0.40019  0.95656  1.0000
  F   F355      1.0  0.10065  0.92067  0.47754  1.0000
  F   F356      1.0  0.10052  0.89765  0.95675  1.0000
  F   F357      1.0  0.34976  0.40801  0.46513  1.0000
  F   F358      1.0  0.35113  0.42503  0.95986  1.0000
  F   F359      1.0  0.35678  0.92222  0.44637  1.0000
  F   F360      1.0  0.35610  0.88861  0.95324  1.0000
  F   F361      1.0  0.60144  0.40322  0.46478  1.0000
  F   F362      1.0  0.60133  0.40892  0.96915  1.0000
  F   F363      1.0  0.60055  0.90868  0.45688  1.0000
  F   F364      1.0  0.59564  0.89366  0.96292  1.0000
  F   F365      1.0  0.85002  0.40049  0.45808  1.0000
  F   F366      1.0  0.85893  0.42451  0.94585  1.0000
  F   F367      1.0  0.84828  0.90801  0.46984  1.0000
  F   F368      1.0  0.84735  0.89993  0.95852  1.0000
  F   F369      1.0  0.04495  0.30667  0.29050  1.0000
  F   F370      1.0  0.03798  0.28992  0.79496  1.0000
  F   F371      1.0  0.05659  0.79346  0.28857  1.0000
  F   F372      1.0  0.03914  0.80259  0.78449  1.0000
  F   F373      1.0  0.30094  0.29986  0.28772  1.0000
  F   F374      1.0  0.29950  0.30140  0.78482  1.0000
  F   F375      1.0  0.29283  0.80260  0.29091  1.0000
  F   F376      1.0  0.29489  0.79343  0.78261  1.0000
  F   F377      1.0  0.54758  0.29335  0.28937  1.0000
  F   F378      1.0  0.54378  0.31099  0.78434  1.0000
  F   F379      1.0  0.55785  0.80089  0.28201  1.0000
  F   F380      1.0  0.54584  0.79307  0.77745  1.0000
  F   F381      1.0  0.79294  0.28727  0.28502  1.0000
  F   F382      1.0  0.79766  0.31055  0.79142  1.0000
  F   F383      1.0  0.80099  0.78342  0.28579  1.0000
  F   F384      1.0  0.79199  0.79276  0.79343  1.0000
