data_image0
_chemical_formula_structural       Hf96F384
_chemical_formula_sum              "Hf96 F384"
_cell_length_a       31.0366
_cell_length_b       15.5211
_cell_length_c       15.5095
_cell_angle_alpha    63.342
_cell_angle_beta     63.342
_cell_angle_gamma    80.1625

_space_group_name_H-M_alt    "P 1"
_space_group_IT_number       1

loop_
  _space_group_symop_operation_xyz
  'x, y, z'

loop_
  _atom_site_type_symbol
  _atom_site_label
  _atom_site_symmetry_multiplicity
  _atom_site_fract_x
  _atom_site_fract_y
  _atom_site_fract_z
  _atom_site_occupancy
  Hf  Hf1       1.0  0.19656  0.11338  0.37816  1.0000
  Hf  Hf2       1.0  0.19309  0.10680  0.87977  1.0000
  Hf  Hf3       1.0  0.19434  0.60911  0.38679  1.0000
  Hf  Hf4       1.0  0.19712  0.60082  0.86844  1.0000
  Hf  Hf5       1.0  0.44753  0.10999  0.36865  1.0000
  Hf  Hf6       1.0  0.44635  0.10591  0.87387  1.0000
  Hf  Hf7       1.0  0.44568  0.61529  0.37853  1.0000
  Hf  Hf8       1.0  0.44712  0.60587  0.87002  1.0000
  Hf  Hf9       1.0  0.69410  0.09939  0.38301  1.0000
  Hf  Hf10      1.0  0.69405  0.10792  0.88808  1.0000
  Hf  Hf11      1.0  0.69330  0.60659  0.38033  1.0000
  Hf  Hf12      1.0  0.69405  0.60390  0.88135  1.0000
  Hf  Hf13      1.0  0.94573  0.10696  0.37657  1.0000
  Hf  Hf14      1.0  0.94801  0.10786  0.87000  1.0000
  Hf  Hf15      1.0  0.94572  0.60523  0.37710  1.0000
  Hf  Hf16      1.0  0.94612  0.59881  0.88202  1.0000
  Hf  Hf17      1.0  0.05583  0.39338  0.11821  1.0000
  Hf  Hf18      1.0  0.05478  0.39568  0.61804  1.0000
  Hf  Hf19      1.0  0.05476  0.89191  0.11761  1.0000
  Hf  Hf20      1.0  0.05463  0.89138  0.61995  1.0000
  Hf  Hf21      1.0  0.30395  0.39000  0.13089  1.0000
  Hf  Hf22      1.0  0.30636  0.39264  0.63107  1.0000
  Hf  Hf23      1.0  0.30416  0.89965  0.11657  1.0000
  Hf  Hf24      1.0  0.30437  0.90251  0.61925  1.0000
  Hf  Hf25      1.0  0.55329  0.38754  0.12689  1.0000
  Hf  Hf26      1.0  0.55337  0.38840  0.62624  1.0000
  Hf  Hf27      1.0  0.55188  0.88516  0.13325  1.0000
  Hf  Hf28      1.0  0.55525  0.89614  0.62067  1.0000
  Hf  Hf29      1.0  0.80511  0.38511  0.13593  1.0000
  Hf  Hf30      1.0  0.80306  0.39478  0.63006  1.0000
  Hf  Hf31      1.0  0.80312  0.89984  0.12282  1.0000
  Hf  Hf32      1.0  0.79691  0.87515  0.64638  1.0000
  Hf  Hf33      1.0  0.05778  0.18771  0.40659  1.0000
  Hf  Hf34      1.0  0.05660  0.18134  0.91188  1.0000
  Hf  Hf35      1.0  0.05649  0.69506  0.40621  1.0000
  Hf  Hf36      1.0  0.05540  0.68277  0.91197  1.0000
  Hf  Hf37      1.0  0.31214  0.19229  0.40491  1.0000
  Hf  Hf38      1.0  0.30351  0.17841  0.91599  1.0000
  Hf  Hf39      1.0  0.30514  0.69440  0.41312  1.0000
  Hf  Hf40      1.0  0.30549  0.68034  0.92362  1.0000
  Hf  Hf41      1.0  0.55815  0.18548  0.41002  1.0000
  Hf  Hf42      1.0  0.55346  0.17631  0.91772  1.0000
  Hf  Hf43      1.0  0.55667  0.67451  0.41781  1.0000
  Hf  Hf44      1.0  0.55539  0.67909  0.91580  1.0000
  Hf  Hf45      1.0  0.80806  0.17350  0.41827  1.0000
  Hf  Hf46      1.0  0.80765  0.18662  0.91420  1.0000
  Hf  Hf47      1.0  0.80757  0.67630  0.41792  1.0000
  Hf  Hf48      1.0  0.80269  0.67217  0.93271  1.0000
  Hf  Hf49      1.0  0.15872  0.39406  0.33627  1.0000
  Hf  Hf50      1.0  0.15670  0.38378  0.83901  1.0000
  Hf  Hf51      1.0  0.16222  0.90234  0.31518  1.0000
  Hf  Hf52      1.0  0.16185  0.88577  0.83285  1.0000
  Hf  Hf53      1.0  0.40874  0.39326  0.33246  1.0000
  Hf  Hf54      1.0  0.41480  0.38216  0.82297  1.0000
  Hf  Hf55      1.0  0.40850  0.88850  0.33947  1.0000
  Hf  Hf56      1.0  0.40971  0.88822  0.83437  1.0000
  Hf  Hf57      1.0  0.66253  0.39032  0.33160  1.0000
  Hf  Hf58      1.0  0.65672  0.38402  0.83945  1.0000
  Hf  Hf59      1.0  0.65709  0.88886  0.32773  1.0000
  Hf  Hf60      1.0  0.65432  0.88638  0.83888  1.0000
  Hf  Hf61      1.0  0.90761  0.38609  0.33240  1.0000
  Hf  Hf62      1.0  0.90846  0.38810  0.83885  1.0000
  Hf  Hf63      1.0  0.91588  0.89652  0.32043  1.0000
  Hf  Hf64      1.0  0.90693  0.88319  0.83640  1.0000
  Hf  Hf65      1.0  0.19787  0.31779  0.08056  1.0000
  Hf  Hf66      1.0  0.19722  0.32272  0.57767  1.0000
  Hf  Hf67      1.0  0.19504  0.81754  0.08416  1.0000
  Hf  Hf68      1.0  0.19425  0.82226  0.58143  1.0000
  Hf  Hf69      1.0  0.44465  0.32295  0.07839  1.0000
  Hf  Hf70      1.0  0.44704  0.32049  0.57730  1.0000
  Hf  Hf71      1.0  0.44226  0.81838  0.08902  1.0000
  Hf  Hf72      1.0  0.44329  0.82202  0.58183  1.0000
  Hf  Hf73      1.0  0.69348  0.32185  0.08235  1.0000
  Hf  Hf74      1.0  0.69281  0.31089  0.58783  1.0000
  Hf  Hf75      1.0  0.69008  0.81199  0.09076  1.0000
  Hf  Hf76      1.0  0.69039  0.81563  0.58922  1.0000
  Hf  Hf77      1.0  0.94622  0.31680  0.08153  1.0000
  Hf  Hf78      1.0  0.94020  0.31816  0.58541  1.0000
  Hf  Hf79      1.0  0.94172  0.81521  0.08724  1.0000
  Hf  Hf80      1.0  0.94611  0.80605  0.58466  1.0000
  Hf  Hf81      1.0  0.09311  0.11266  0.15804  1.0000
  Hf  Hf82      1.0  0.09234  0.11091  0.66119  1.0000
  Hf  Hf83      1.0  0.09043  0.61045  0.16389  1.0000
  Hf  Hf84      1.0  0.09310  0.61519  0.66503  1.0000
  Hf  Hf85      1.0  0.34006  0.11337  0.16676  1.0000
  Hf  Hf86      1.0  0.34573  0.11293  0.66330  1.0000
  Hf  Hf87      1.0  0.33767  0.61387  0.17475  1.0000
  Hf  Hf88      1.0  0.34300  0.62172  0.66142  1.0000
  Hf  Hf89      1.0  0.59057  0.10979  0.16465  1.0000
  Hf  Hf90      1.0  0.59067  0.10684  0.66469  1.0000
  Hf  Hf91      1.0  0.58784  0.60870  0.16804  1.0000
  Hf  Hf92      1.0  0.58928  0.60688  0.67040  1.0000
  Hf  Hf93      1.0  0.84568  0.11036  0.15796  1.0000
  Hf  Hf94      1.0  0.83485  0.10881  0.67622  1.0000
  Hf  Hf95      1.0  0.83782  0.60912  0.17357  1.0000
  Hf  Hf96      1.0  0.84176  0.60886  0.67241  1.0000
  F   F1        1.0  0.07973  0.14377  0.28473  1.0000
  F   F2        1.0  0.08055  0.12250  0.80409  1.0000
  F   F3        1.0  0.07687  0.62773  0.29875  1.0000
  F   F4        1.0  0.09133  0.65315  0.78229  1.0000
  F   F5        1.0  0.33102  0.13402  0.29429  1.0000
  F   F6        1.0  0.33391  0.12261  0.80398  1.0000
  F   F7        1.0  0.32502  0.63505  0.31489  1.0000
  F   F8        1.0  0.33679  0.63928  0.78538  1.0000
  F   F9        1.0  0.58574  0.13052  0.29271  1.0000
  F   F10       1.0  0.57411  0.11755  0.81721  1.0000
  F   F11       1.0  0.57961  0.63756  0.29613  1.0000
  F   F12       1.0  0.58033  0.61591  0.81775  1.0000
  F   F13       1.0  0.82896  0.10991  0.30460  1.0000
  F   F14       1.0  0.82401  0.13533  0.80320  1.0000
  F   F15       1.0  0.82783  0.61944  0.30847  1.0000
  F   F16       1.0  0.83097  0.62916  0.80390  1.0000
  F   F17       1.0  0.18892  0.34282  0.43716  1.0000
  F   F18       1.0  0.18438  0.34191  0.94767  1.0000
  F   F19       1.0  0.19126  0.86157  0.43191  1.0000
  F   F20       1.0  0.18617  0.83536  0.94609  1.0000
  F   F21       1.0  0.43791  0.34211  0.44084  1.0000
  F   F22       1.0  0.44127  0.34654  0.93699  1.0000
  F   F23       1.0  0.43958  0.85138  0.43919  1.0000
  F   F24       1.0  0.43596  0.84732  0.94060  1.0000
  F   F25       1.0  0.68035  0.31927  0.46293  1.0000
  F   F26       1.0  0.69115  0.35173  0.94421  1.0000
  F   F27       1.0  0.68961  0.85321  0.43168  1.0000
  F   F28       1.0  0.67604  0.83932  0.95801  1.0000
  F   F29       1.0  0.93856  0.33764  0.44545  1.0000
  F   F30       1.0  0.94340  0.35322  0.93812  1.0000
  F   F31       1.0  0.94867  0.85478  0.42962  1.0000
  F   F32       1.0  0.92869  0.84570  0.94846  1.0000
  F   F33       1.0  0.16901  0.37582  0.19163  1.0000
  F   F34       1.0  0.16970  0.38852  0.69542  1.0000
  F   F35       1.0  0.17059  0.88732  0.18162  1.0000
  F   F36       1.0  0.17041  0.88592  0.68987  1.0000
  F   F37       1.0  0.41678  0.38028  0.19746  1.0000
  F   F38       1.0  0.43029  0.37935  0.68627  1.0000
  F   F39       1.0  0.42225  0.87354  0.19795  1.0000
  F   F40       1.0  0.42287  0.86871  0.69333  1.0000
  F   F41       1.0  0.67687  0.38138  0.19160  1.0000
  F   F42       1.0  0.67144  0.37430  0.70157  1.0000
  F   F43       1.0  0.67565  0.87438  0.18496  1.0000
  F   F44       1.0  0.66125  0.87638  0.69309  1.0000
  F   F45       1.0  0.91656  0.35305  0.20525  1.0000
  F   F46       1.0  0.91463  0.36844  0.69924  1.0000
  F   F47       1.0  0.93439  0.87488  0.18521  1.0000
  F   F48       1.0  0.91693  0.87676  0.69697  1.0000
  F   F49       1.0  0.08050  0.17250  0.02491  1.0000
  F   F50       1.0  0.07616  0.17717  0.53339  1.0000
  F   F51       1.0  0.05806  0.65934  0.05639  1.0000
  F   F52       1.0  0.07416  0.67823  0.53845  1.0000
  F   F53       1.0  0.30573  0.15802  0.05602  1.0000
  F   F54       1.0  0.32546  0.16422  0.53924  1.0000
  F   F55       1.0  0.30421  0.65459  0.06534  1.0000
  F   F56       1.0  0.31894  0.67105  0.55117  1.0000
  F   F57       1.0  0.56179  0.16055  0.05870  1.0000
  F   F58       1.0  0.55907  0.15794  0.55473  1.0000
  F   F59       1.0  0.55831  0.65271  0.05933  1.0000
  F   F60       1.0  0.56671  0.65128  0.55960  1.0000
  F   F61       1.0  0.81629  0.15610  0.04574  1.0000
  F   F62       1.0  0.80506  0.15203  0.56042  1.0000
  F   F63       1.0  0.81309  0.65462  0.05771  1.0000
  F   F64       1.0  0.81826  0.65207  0.55068  1.0000
  F   F65       1.0  0.21108  0.21455  0.20436  1.0000
  F   F66       1.0  0.20134  0.21410  0.71740  1.0000
  F   F67       1.0  0.20350  0.70863  0.22186  1.0000
  F   F68       1.0  0.21112  0.69696  0.69554  1.0000
  F   F69       1.0  0.45654  0.20113  0.22024  1.0000
  F   F70       1.0  0.45857  0.19466  0.70603  1.0000
  F   F71       1.0  0.45415  0.71052  0.21982  1.0000
  F   F72       1.0  0.45877  0.70725  0.69622  1.0000
  F   F73       1.0  0.69282  0.20916  0.21053  1.0000
  F   F74       1.0  0.70528  0.20664  0.72468  1.0000
  F   F75       1.0  0.69831  0.70632  0.22035  1.0000
  F   F76       1.0  0.69269  0.70558  0.71682  1.0000
  F   F77       1.0  0.95578  0.19681  0.21491  1.0000
  F   F78       1.0  0.95604  0.21115  0.70213  1.0000
  F   F79       1.0  0.95338  0.71093  0.21884  1.0000
  F   F80       1.0  0.95274  0.70412  0.71462  1.0000
  F   F81       1.0  0.15380  0.08457  0.04542  1.0000
  F   F82       1.0  0.14939  0.09202  0.53426  1.0000
  F   F83       1.0  0.14786  0.61231  0.03445  1.0000
  F   F84       1.0  0.14962  0.56951  0.55402  1.0000
  F   F85       1.0  0.39453  0.10446  0.04291  1.0000
  F   F86       1.0  0.40460  0.09200  0.53568  1.0000
  F   F87       1.0  0.39527  0.61057  0.04307  1.0000
  F   F88       1.0  0.39947  0.59578  0.53225  1.0000
  F   F89       1.0  0.64793  0.07640  0.04659  1.0000
  F   F90       1.0  0.64093  0.07939  0.53661  1.0000
  F   F91       1.0  0.64357  0.57534  0.05685  1.0000
  F   F92       1.0  0.64699  0.58835  0.55249  1.0000
  F   F93       1.0  0.89794  0.10249  0.02187  1.0000
  F   F94       1.0  0.89500  0.09273  0.54987  1.0000
  F   F95       1.0  0.89909  0.59582  0.04224  1.0000
  F   F96       1.0  0.90389  0.59863  0.54352  1.0000
  F   F97       1.0  0.15738  0.19017  0.13404  1.0000
  F   F98       1.0  0.15104  0.20352  0.61439  1.0000
  F   F99       1.0  0.15439  0.69705  0.13795  1.0000
  F   F100      1.0  0.15692  0.70529  0.60268  1.0000
  F   F101      1.0  0.40409  0.20276  0.14273  1.0000
  F   F102      1.0  0.40913  0.19817  0.62102  1.0000
  F   F103      1.0  0.39751  0.69700  0.16028  1.0000
  F   F104      1.0  0.40751  0.70367  0.59786  1.0000
  F   F105      1.0  0.64691  0.20169  0.10984  1.0000
  F   F106      1.0  0.65259  0.17554  0.64007  1.0000
  F   F107      1.0  0.64935  0.68724  0.13043  1.0000
  F   F108      1.0  0.64618  0.70536  0.61870  1.0000
  F   F109      1.0  0.90334  0.18960  0.12278  1.0000
  F   F110      1.0  0.89910  0.21060  0.62422  1.0000
  F   F111      1.0  0.89473  0.70393  0.13742  1.0000
  F   F112      1.0  0.90433  0.69610  0.62696  1.0000
  F   F113      1.0  0.09409  0.30968  0.35920  1.0000
  F   F114      1.0  0.09750  0.29887  0.86456  1.0000
  F   F115      1.0  0.08920  0.82315  0.34950  1.0000
  F   F116      1.0  0.10131  0.79829  0.86279  1.0000
  F   F117      1.0  0.34579  0.30824  0.37840  1.0000
  F   F118      1.0  0.35413  0.27663  0.85949  1.0000
  F   F119      1.0  0.33859  0.81251  0.36011  1.0000
  F   F120      1.0  0.35563  0.79279  0.87834  1.0000
  F   F121      1.0  0.60274  0.29684  0.38668  1.0000
  F   F122      1.0  0.59837  0.29681  0.86027  1.0000
  F   F123      1.0  0.60355  0.79879  0.35940  1.0000
  F   F124      1.0  0.59999  0.79967  0.89096  1.0000
  F   F125      1.0  0.84695  0.30108  0.37520  1.0000
  F   F126      1.0  0.85203  0.29254  0.90169  1.0000
  F   F127      1.0  0.84837  0.78713  0.34830  1.0000
  F   F128      1.0  0.84845  0.79383  0.88434  1.0000
  F   F129      1.0  0.07279  0.25166  0.13241  1.0000
  F   F130      1.0  0.06021  0.24650  0.64333  1.0000
  F   F131      1.0  0.07235  0.75217  0.13130  1.0000
  F   F132      1.0  0.05588  0.75174  0.66017  1.0000
  F   F133      1.0  0.32101  0.26242  0.12355  1.0000
  F   F134      1.0  0.32213  0.25282  0.63143  1.0000
  F   F135      1.0  0.32409  0.75240  0.12495  1.0000
  F   F136      1.0  0.31575  0.76188  0.63706  1.0000
  F   F137      1.0  0.55350  0.24102  0.15879  1.0000
  F   F138      1.0  0.57159  0.24417  0.63629  1.0000
  F   F139      1.0  0.55889  0.75510  0.14286  1.0000
  F   F140      1.0  0.55449  0.74848  0.66103  1.0000
  F   F141      1.0  0.81731  0.24905  0.14184  1.0000
  F   F142      1.0  0.81313  0.24886  0.64338  1.0000
  F   F143      1.0  0.82023  0.75304  0.13784  1.0000
  F   F144      1.0  0.81449  0.74392  0.64154  1.0000
  F   F145      1.0  0.12395  0.37541  0.10250  1.0000
  F   F146      1.0  0.12091  0.36472  0.61501  1.0000
  F   F147      1.0  0.12594  0.87919  0.09923  1.0000
  F   F148      1.0  0.12022  0.86139  0.61269  1.0000
  F   F149      1.0  0.37628  0.38692  0.08347  1.0000
  F   F150      1.0  0.37992  0.36291  0.62448  1.0000
  F   F151      1.0  0.37024  0.87750  0.11607  1.0000
  F   F152      1.0  0.37321  0.87591  0.60060  1.0000
  F   F153      1.0  0.62235  0.35920  0.11983  1.0000
  F   F154      1.0  0.62425  0.34842  0.63453  1.0000
  F   F155      1.0  0.62029  0.85985  0.11931  1.0000
  F   F156      1.0  0.62350  0.88233  0.58886  1.0000
  F   F157      1.0  0.87926  0.36725  0.10171  1.0000
  F   F158      1.0  0.87300  0.38895  0.60224  1.0000
  F   F159      1.0  0.87689  0.89306  0.10852  1.0000
  F   F160      1.0  0.87076  0.85724  0.60887  1.0000
  F   F161      1.0  0.18309  0.25842  0.35262  1.0000
  F   F162      1.0  0.17722  0.24568  0.86535  1.0000
  F   F163      1.0  0.17350  0.75793  0.37122  1.0000
  F   F164      1.0  0.18834  0.75088  0.84011  1.0000
  F   F165      1.0  0.43250  0.25255  0.36226  1.0000
  F   F166      1.0  0.42937  0.24616  0.86448  1.0000
  F   F167      1.0  0.42757  0.75030  0.37820  1.0000
  F   F168      1.0  0.43987  0.74293  0.85875  1.0000
  F   F169      1.0  0.69307  0.23915  0.35177  1.0000
  F   F170      1.0  0.68006  0.24686  0.87627  1.0000
  F   F171      1.0  0.68543  0.74823  0.35732  1.0000
  F   F172      1.0  0.68758  0.74867  0.86068  1.0000
  F   F173      1.0  0.93495  0.25676  0.35047  1.0000
  F   F174      1.0  0.93517  0.24794  0.84752  1.0000
  F   F175      1.0  0.93374  0.75614  0.36236  1.0000
  F   F176      1.0  0.94172  0.75086  0.85093  1.0000
  F   F177      1.0  0.12915  0.13015  0.38500  1.0000
  F   F178      1.0  0.12413  0.11660  0.89432  1.0000
  F   F179      1.0  0.12677  0.63249  0.38981  1.0000
  F   F180      1.0  0.12840  0.61832  0.89897  1.0000
  F   F181      1.0  0.37732  0.13580  0.38196  1.0000
  F   F182      1.0  0.37358  0.11558  0.90579  1.0000
  F   F183      1.0  0.37282  0.64031  0.39179  1.0000
  F   F184      1.0  0.37625  0.62077  0.90064  1.0000
  F   F185      1.0  0.62953  0.13500  0.38447  1.0000
  F   F186      1.0  0.62104  0.12066  0.91071  1.0000
  F   F187      1.0  0.62436  0.61976  0.39976  1.0000
  F   F188      1.0  0.62875  0.62387  0.90486  1.0000
  F   F189      1.0  0.87533  0.13306  0.38522  1.0000
  F   F190      1.0  0.87647  0.13786  0.87145  1.0000
  F   F191      1.0  0.87451  0.61186  0.40752  1.0000
  F   F192      1.0  0.87396  0.63716  0.88923  1.0000
  F   F193      1.0  0.01391  0.34481  0.07149  1.0000
  F   F194      1.0  0.00842  0.36804  0.57255  1.0000
  F   F195      1.0  0.00950  0.85564  0.06819  1.0000
  F   F196      1.0  0.00726  0.86497  0.56837  1.0000
  F   F197      1.0  0.26170  0.38272  0.05841  1.0000
  F   F198      1.0  0.25471  0.35914  0.58439  1.0000
  F   F199      1.0  0.25929  0.86288  0.06691  1.0000
  F   F200      1.0  0.25807  0.86711  0.57781  1.0000
  F   F201      1.0  0.50450  0.35732  0.08293  1.0000
  F   F202      1.0  0.50940  0.36855  0.56997  1.0000
  F   F203      1.0  0.51091  0.87372  0.05093  1.0000
  F   F204      1.0  0.50674  0.86778  0.56869  1.0000
  F   F205      1.0  0.76255  0.37733  0.06388  1.0000
  F   F206      1.0  0.75986  0.36883  0.57350  1.0000
  F   F207      1.0  0.75613  0.86475  0.07962  1.0000
  F   F208      1.0  0.75308  0.85900  0.58477  1.0000
  F   F209      1.0  0.07173  0.49080  0.16047  1.0000
  F   F210      1.0  0.06814  0.48926  0.66819  1.0000
  F   F211      1.0  0.07446  0.98908  0.15709  1.0000
  F   F212      1.0  0.07218  0.97920  0.67655  1.0000
  F   F213      1.0  0.32277  0.48658  0.18422  1.0000
  F   F214      1.0  0.32193  0.48205  0.67247  1.0000
  F   F215      1.0  0.31027  0.99253  0.17659  1.0000
  F   F216      1.0  0.31704  0.98624  0.67360  1.0000
  F   F217      1.0  0.56950  0.47658  0.18647  1.0000
  F   F218      1.0  0.56905  0.48150  0.67631  1.0000
  F   F219      1.0  0.57010  0.97319  0.17528  1.0000
  F   F220      1.0  0.56976  0.97736  0.68673  1.0000
  F   F221      1.0  0.81910  0.48288  0.18159  1.0000
  F   F222      1.0  0.82156  0.49290  0.68120  1.0000
  F   F223      1.0  0.81603  0.99280  0.17421  1.0000
  F   F224      1.0  0.81698  0.96685  0.70139  1.0000
  F   F225      1.0  0.24379  0.13549  0.42554  1.0000
  F   F226      1.0  0.24350  0.14697  0.90623  1.0000
  F   F227      1.0  0.23603  0.64949  0.43477  1.0000
  F   F228      1.0  0.24425  0.64738  0.92415  1.0000
  F   F229      1.0  0.49513  0.13749  0.41774  1.0000
  F   F230      1.0  0.48589  0.13379  0.93686  1.0000
  F   F231      1.0  0.48981  0.61989  0.44392  1.0000
  F   F232      1.0  0.49495  0.63476  0.92170  1.0000
  F   F233      1.0  0.74565  0.12835  0.43689  1.0000
  F   F234      1.0  0.74263  0.15663  0.92669  1.0000
  F   F235      1.0  0.73926  0.61771  0.43035  1.0000
  F   F236      1.0  0.73925  0.62484  0.93818  1.0000
  F   F237      1.0  0.99074  0.14829  0.41724  1.0000
  F   F238      1.0  0.99329  0.13241  0.92717  1.0000
  F   F239      1.0  0.99217  0.64660  0.40994  1.0000
  F   F240      1.0  0.99231  0.63135  0.92023  1.0000
  F   F241      1.0  0.18340  0.02378  0.30677  1.0000
  F   F242      1.0  0.18436  0.02719  0.81571  1.0000
  F   F243      1.0  0.17916  0.51222  0.32812  1.0000
  F   F244      1.0  0.18097  0.51455  0.81867  1.0000
  F   F245      1.0  0.42647  0.01391  0.32726  1.0000
  F   F246      1.0  0.42795  0.00838  0.83147  1.0000
  F   F247      1.0  0.42680  0.51824  0.33256  1.0000
  F   F248      1.0  0.42941  0.51645  0.82354  1.0000
  F   F249      1.0  0.68327  0.02032  0.31198  1.0000
  F   F250      1.0  0.68063  0.01491  0.83466  1.0000
  F   F251      1.0  0.68208  0.52550  0.31458  1.0000
  F   F252      1.0  0.67189  0.51608  0.83440  1.0000
  F   F253      1.0  0.92679  0.01823  0.33548  1.0000
  F   F254      1.0  0.92499  0.01454  0.83215  1.0000
  F   F255      1.0  0.93021  0.51669  0.31454  1.0000
  F   F256      1.0  0.92770  0.52879  0.82143  1.0000
  F   F257      1.0  0.99816  0.22851  0.01352  1.0000
  F   F258      1.0  0.00242  0.24229  0.50220  1.0000
  F   F259      1.0  0.98735  0.74878  0.00410  1.0000
  F   F260      1.0  0.00054  0.73638  0.51055  1.0000
  F   F261      1.0  0.25576  0.26600  0.99619  1.0000
  F   F262      1.0  0.25946  0.26698  0.49302  1.0000
  F   F263      1.0  0.25528  0.76209  0.98781  1.0000
  F   F264      1.0  0.25396  0.76527  0.49234  1.0000
  F   F265      1.0  0.49555  0.24032  0.01742  1.0000
  F   F266      1.0  0.50147  0.25067  0.48676  1.0000
  F   F267      1.0  0.49777  0.74610  0.00644  1.0000
  F   F268      1.0  0.50082  0.75166  0.49667  1.0000
  F   F269      1.0  0.74571  0.24702  0.01249  1.0000
  F   F270      1.0  0.74801  0.25349  0.50011  1.0000
  F   F271      1.0  0.74464  0.73838  0.01290  1.0000
  F   F272      1.0  0.74473  0.74098  0.50870  1.0000
  F   F273      1.0  0.12088  0.99791  0.25177  1.0000
  F   F274      1.0  0.12039  0.99953  0.76009  1.0000
  F   F275      1.0  0.12867  0.50425  0.24175  1.0000
  F   F276      1.0  0.11669  0.50433  0.76422  1.0000
  F   F277      1.0  0.37412  0.00729  0.24552  1.0000
  F   F278      1.0  0.36963  0.99422  0.75060  1.0000
  F   F279      1.0  0.38215  0.51111  0.23893  1.0000
  F   F280      1.0  0.38167  0.50620  0.74093  1.0000
  F   F281      1.0  0.62177  0.99647  0.24570  1.0000
  F   F282      1.0  0.62210  0.99315  0.75704  1.0000
  F   F283      1.0  0.62541  0.49597  0.26218  1.0000
  F   F284      1.0  0.61922  0.50151  0.76029  1.0000
  F   F285      1.0  0.87975  0.99463  0.23688  1.0000
  F   F286      1.0  0.87732  0.01576  0.74196  1.0000
  F   F287      1.0  0.87255  0.49699  0.25416  1.0000
  F   F288      1.0  0.87933  0.50038  0.75194  1.0000
  F   F289      1.0  0.04257  0.02609  0.02416  1.0000
  F   F290      1.0  0.04474  0.03046  0.51407  1.0000
  F   F291      1.0  0.04441  0.52975  0.00562  1.0000
  F   F292      1.0  0.04602  0.54504  0.50959  1.0000
  F   F293      1.0  0.28660  0.03718  0.02047  1.0000
  F   F294      1.0  0.29629  0.03630  0.51719  1.0000
  F   F295      1.0  0.29773  0.53239  0.00786  1.0000
  F   F296      1.0  0.28899  0.54037  0.53775  1.0000
  F   F297      1.0  0.54055  0.03602  0.03961  1.0000
  F   F298      1.0  0.55484  0.03114  0.51348  1.0000
  F   F299      1.0  0.54366  0.52242  0.02466  1.0000
  F   F300      1.0  0.53704  0.53197  0.53844  1.0000
  F   F301      1.0  0.79375  0.03953  0.02200  1.0000
  F   F302      1.0  0.80449  0.00089  0.52367  1.0000
  F   F303      1.0  0.78704  0.52550  0.04545  1.0000
  F   F304      1.0  0.79737  0.52922  0.51851  1.0000
  F   F305      1.0  0.23469  0.43024  0.22341  1.0000
  F   F306      1.0  0.23442  0.41517  0.73253  1.0000
  F   F307      1.0  0.23367  0.92785  0.21115  1.0000
  F   F308      1.0  0.23418  0.90040  0.73963  1.0000
  F   F309      1.0  0.48446  0.41220  0.22973  1.0000
  F   F310      1.0  0.48738  0.41013  0.73736  1.0000
  F   F311      1.0  0.48409  0.91781  0.22275  1.0000
  F   F312      1.0  0.48584  0.92626  0.72022  1.0000
  F   F313      1.0  0.73853  0.40825  0.24385  1.0000
  F   F314      1.0  0.73738  0.41613  0.73874  1.0000
  F   F315      1.0  0.73342  0.91404  0.21972  1.0000
  F   F316      1.0  0.72887  0.91016  0.73567  1.0000
  F   F317      1.0  0.98175  0.40423  0.22260  1.0000
  F   F318      1.0  0.97810  0.42029  0.73662  1.0000
  F   F319      1.0  0.99068  0.93373  0.22162  1.0000
  F   F320      1.0  0.98640  0.90687  0.72091  1.0000
  F   F321      1.0  0.20754  0.46621  0.48410  1.0000
  F   F322      1.0  0.21080  0.47316  0.96917  1.0000
  F   F323      1.0  0.21166  0.97917  0.46750  1.0000
  F   F324      1.0  0.21369  0.97696  0.96722  1.0000
  F   F325      1.0  0.45985  0.46450  0.47692  1.0000
  F   F326      1.0  0.45575  0.47946  0.98290  1.0000
  F   F327      1.0  0.46034  0.97675  0.46372  1.0000
  F   F328      1.0  0.45174  0.97522  0.98823  1.0000
  F   F329      1.0  0.70055  0.45980  0.47216  1.0000
  F   F330      1.0  0.70748  0.47544  0.97625  1.0000
  F   F331      1.0  0.70838  0.96086  0.47933  1.0000
  F   F332      1.0  0.70584  0.96384  0.98131  1.0000
  F   F333      1.0  0.96132  0.47410  0.46816  1.0000
  F   F334      1.0  0.95865  0.46927  0.98627  1.0000
  F   F335      1.0  0.95684  0.98289  0.47488  1.0000
  F   F336      1.0  0.95312  0.97925  0.97334  1.0000
  F   F337      1.0  0.01828  0.08284  0.26938  1.0000
  F   F338      1.0  0.02019  0.07705  0.76896  1.0000
  F   F339      1.0  0.00896  0.58790  0.26549  1.0000
  F   F340      1.0  0.01539  0.58143  0.77896  1.0000
  F   F341      1.0  0.26389  0.09667  0.26961  1.0000
  F   F342      1.0  0.27202  0.10039  0.75047  1.0000
  F   F343      1.0  0.26212  0.59372  0.28349  1.0000
  F   F344      1.0  0.26560  0.58096  0.77150  1.0000
  F   F345      1.0  0.51727  0.07808  0.27756  1.0000
  F   F346      1.0  0.51487  0.07968  0.78575  1.0000
  F   F347      1.0  0.51670  0.59572  0.26424  1.0000
  F   F348      1.0  0.51528  0.58108  0.77148  1.0000
  F   F349      1.0  0.76035  0.10617  0.26435  1.0000
  F   F350      1.0  0.76229  0.07370  0.79161  1.0000
  F   F351      1.0  0.76853  0.58308  0.26973  1.0000
  F   F352      1.0  0.76120  0.58898  0.77248  1.0000
  F   F353      1.0  0.09591  0.42195  0.45643  1.0000
  F   F354      1.0  0.10184  0.41105  0.95577  1.0000
  F   F355      1.0  0.10498  0.89780  0.45906  1.0000
  F   F356      1.0  0.09952  0.90702  0.96029  1.0000
  F   F357      1.0  0.34846  0.41199  0.46807  1.0000
  F   F358      1.0  0.35174  0.38809  0.94685  1.0000
  F   F359      1.0  0.34880  0.89690  0.46559  1.0000
  F   F360      1.0  0.34959  0.91017  0.95511  1.0000
  F   F361      1.0  0.60717  0.42318  0.46974  1.0000
  F   F362      1.0  0.59718  0.37973  0.96724  1.0000
  F   F363      1.0  0.59527  0.89697  0.46068  1.0000
  F   F364      1.0  0.59783  0.92521  0.96941  1.0000
  F   F365      1.0  0.84849  0.39509  0.46977  1.0000
  F   F366      1.0  0.84921  0.40666  0.97190  1.0000
  F   F367      1.0  0.85602  0.88184  0.45115  1.0000
  F   F368      1.0  0.84454  0.90172  0.96933  1.0000
  F   F369      1.0  0.05134  0.31356  0.27088  1.0000
  F   F370      1.0  0.04447  0.31015  0.78948  1.0000
  F   F371      1.0  0.04331  0.79820  0.27460  1.0000
  F   F372      1.0  0.04626  0.79524  0.79914  1.0000
  F   F373      1.0  0.29267  0.29906  0.28053  1.0000
  F   F374      1.0  0.29524  0.29820  0.77824  1.0000
  F   F375      1.0  0.28412  0.79462  0.27956  1.0000
  F   F376      1.0  0.30712  0.79557  0.78888  1.0000
  F   F377      1.0  0.55108  0.30970  0.28104  1.0000
  F   F378      1.0  0.53884  0.28519  0.79124  1.0000
  F   F379      1.0  0.53767  0.78432  0.30798  1.0000
  F   F380      1.0  0.55375  0.79382  0.79302  1.0000
  F   F381      1.0  0.80137  0.28738  0.28460  1.0000
  F   F382      1.0  0.79649  0.31164  0.79597  1.0000
  F   F383      1.0  0.78877  0.79094  0.28441  1.0000
  F   F384      1.0  0.78988  0.78154  0.80515  1.0000
