data_image0
_chemical_formula_structural       Hf96F384
_chemical_formula_sum              "Hf96 F384"
_cell_length_a       31.0123
_cell_length_b       15.5078
_cell_length_c       15.499
_cell_angle_alpha    63.342
_cell_angle_beta     63.342
_cell_angle_gamma    80.1625

_space_group_name_H-M_alt    "P 1"
_space_group_IT_number       1

loop_
  _space_group_symop_operation_xyz
  'x, y, z'

loop_
  _atom_site_type_symbol
  _atom_site_label
  _atom_site_symmetry_multiplicity
  _atom_site_fract_x
  _atom_site_fract_y
  _atom_site_fract_z
  _atom_site_occupancy
  Hf  Hf1       1.0  0.19487  0.10124  0.38144  1.0000
  Hf  Hf2       1.0  0.19760  0.10185  0.87510  1.0000
  Hf  Hf3       1.0  0.19810  0.61099  0.36825  1.0000
  Hf  Hf4       1.0  0.19711  0.60547  0.87394  1.0000
  Hf  Hf5       1.0  0.44327  0.11587  0.37168  1.0000
  Hf  Hf6       1.0  0.44327  0.09954  0.88183  1.0000
  Hf  Hf7       1.0  0.44514  0.61363  0.37342  1.0000
  Hf  Hf8       1.0  0.44424  0.60587  0.87418  1.0000
  Hf  Hf9       1.0  0.69324  0.10782  0.38021  1.0000
  Hf  Hf10      1.0  0.69338  0.10856  0.87764  1.0000
  Hf  Hf11      1.0  0.69582  0.60859  0.37376  1.0000
  Hf  Hf12      1.0  0.69744  0.61071  0.87077  1.0000
  Hf  Hf13      1.0  0.94646  0.10385  0.37622  1.0000
  Hf  Hf14      1.0  0.94558  0.10965  0.87613  1.0000
  Hf  Hf15      1.0  0.94870  0.60842  0.37162  1.0000
  Hf  Hf16      1.0  0.94763  0.61406  0.87400  1.0000
  Hf  Hf17      1.0  0.05473  0.38922  0.12104  1.0000
  Hf  Hf18      1.0  0.05318  0.38886  0.63740  1.0000
  Hf  Hf19      1.0  0.05639  0.89152  0.11920  1.0000
  Hf  Hf20      1.0  0.05620  0.89302  0.63185  1.0000
  Hf  Hf21      1.0  0.30160  0.38571  0.13685  1.0000
  Hf  Hf22      1.0  0.30562  0.39246  0.62839  1.0000
  Hf  Hf23      1.0  0.30385  0.88860  0.12284  1.0000
  Hf  Hf24      1.0  0.30642  0.88472  0.63174  1.0000
  Hf  Hf25      1.0  0.55304  0.40280  0.12219  1.0000
  Hf  Hf26      1.0  0.55210  0.40201  0.62085  1.0000
  Hf  Hf27      1.0  0.55287  0.89879  0.12447  1.0000
  Hf  Hf28      1.0  0.55657  0.90497  0.62479  1.0000
  Hf  Hf29      1.0  0.80509  0.40198  0.11604  1.0000
  Hf  Hf30      1.0  0.80407  0.39286  0.61888  1.0000
  Hf  Hf31      1.0  0.80915  0.89794  0.11441  1.0000
  Hf  Hf32      1.0  0.80535  0.89674  0.62320  1.0000
  Hf  Hf33      1.0  0.05389  0.18338  0.42270  1.0000
  Hf  Hf34      1.0  0.05400  0.16799  0.92356  1.0000
  Hf  Hf35      1.0  0.05609  0.67891  0.41577  1.0000
  Hf  Hf36      1.0  0.05919  0.67554  0.91992  1.0000
  Hf  Hf37      1.0  0.30298  0.17526  0.42183  1.0000
  Hf  Hf38      1.0  0.30485  0.17930  0.92080  1.0000
  Hf  Hf39      1.0  0.30586  0.67821  0.41825  1.0000
  Hf  Hf40      1.0  0.30486  0.67069  0.92287  1.0000
  Hf  Hf41      1.0  0.55454  0.19045  0.40953  1.0000
  Hf  Hf42      1.0  0.55075  0.18496  0.92175  1.0000
  Hf  Hf43      1.0  0.56147  0.68721  0.40355  1.0000
  Hf  Hf44      1.0  0.55563  0.68935  0.90820  1.0000
  Hf  Hf45      1.0  0.80781  0.18570  0.41054  1.0000
  Hf  Hf46      1.0  0.80221  0.17650  0.92406  1.0000
  Hf  Hf47      1.0  0.80792  0.68528  0.41168  1.0000
  Hf  Hf48      1.0  0.80348  0.68307  0.91734  1.0000
  Hf  Hf49      1.0  0.15631  0.38085  0.34245  1.0000
  Hf  Hf50      1.0  0.15803  0.37816  0.84229  1.0000
  Hf  Hf51      1.0  0.15829  0.88169  0.34127  1.0000
  Hf  Hf52      1.0  0.15899  0.88221  0.83619  1.0000
  Hf  Hf53      1.0  0.40594  0.38858  0.33495  1.0000
  Hf  Hf54      1.0  0.40619  0.38914  0.83778  1.0000
  Hf  Hf55      1.0  0.40216  0.88851  0.33966  1.0000
  Hf  Hf56      1.0  0.41161  0.88917  0.83032  1.0000
  Hf  Hf57      1.0  0.65832  0.39356  0.33111  1.0000
  Hf  Hf58      1.0  0.65757  0.39222  0.83675  1.0000
  Hf  Hf59      1.0  0.66090  0.89562  0.32433  1.0000
  Hf  Hf60      1.0  0.65544  0.89188  0.83332  1.0000
  Hf  Hf61      1.0  0.91261  0.38886  0.32431  1.0000
  Hf  Hf62      1.0  0.90723  0.38879  0.83673  1.0000
  Hf  Hf63      1.0  0.90963  0.88852  0.33111  1.0000
  Hf  Hf64      1.0  0.91348  0.89657  0.81960  1.0000
  Hf  Hf65      1.0  0.19455  0.31148  0.09102  1.0000
  Hf  Hf66      1.0  0.19753  0.31807  0.57548  1.0000
  Hf  Hf67      1.0  0.19364  0.81119  0.09409  1.0000
  Hf  Hf68      1.0  0.19431  0.80772  0.59013  1.0000
  Hf  Hf69      1.0  0.44305  0.32516  0.08160  1.0000
  Hf  Hf70      1.0  0.44354  0.31912  0.58156  1.0000
  Hf  Hf71      1.0  0.44453  0.81207  0.08503  1.0000
  Hf  Hf72      1.0  0.44781  0.81593  0.58124  1.0000
  Hf  Hf73      1.0  0.69424  0.32098  0.08212  1.0000
  Hf  Hf74      1.0  0.69564  0.32238  0.57793  1.0000
  Hf  Hf75      1.0  0.69690  0.81964  0.07922  1.0000
  Hf  Hf76      1.0  0.69488  0.81950  0.57937  1.0000
  Hf  Hf77      1.0  0.94705  0.31454  0.07791  1.0000
  Hf  Hf78      1.0  0.94003  0.31781  0.59041  1.0000
  Hf  Hf79      1.0  0.94603  0.81408  0.08020  1.0000
  Hf  Hf80      1.0  0.94710  0.81805  0.58352  1.0000
  Hf  Hf81      1.0  0.09517  0.10829  0.16998  1.0000
  Hf  Hf82      1.0  0.09299  0.11407  0.66478  1.0000
  Hf  Hf83      1.0  0.09539  0.60619  0.16723  1.0000
  Hf  Hf84      1.0  0.09218  0.61067  0.66683  1.0000
  Hf  Hf85      1.0  0.34138  0.11551  0.16194  1.0000
  Hf  Hf86      1.0  0.33956  0.11253  0.66264  1.0000
  Hf  Hf87      1.0  0.34009  0.61027  0.16681  1.0000
  Hf  Hf88      1.0  0.33889  0.61005  0.67179  1.0000
  Hf  Hf89      1.0  0.58985  0.11580  0.16783  1.0000
  Hf  Hf90      1.0  0.58868  0.11670  0.66744  1.0000
  Hf  Hf91      1.0  0.59273  0.61903  0.15783  1.0000
  Hf  Hf92      1.0  0.59076  0.61786  0.65928  1.0000
  Hf  Hf93      1.0  0.84285  0.11622  0.16840  1.0000
  Hf  Hf94      1.0  0.83870  0.11116  0.66886  1.0000
  Hf  Hf95      1.0  0.84187  0.61108  0.16785  1.0000
  Hf  Hf96      1.0  0.84343  0.61311  0.66426  1.0000
  F   F1        1.0  0.07068  0.11470  0.32531  1.0000
  F   F2        1.0  0.08221  0.13117  0.79855  1.0000
  F   F3        1.0  0.08030  0.60965  0.31622  1.0000
  F   F4        1.0  0.08749  0.64378  0.79384  1.0000
  F   F5        1.0  0.32597  0.11622  0.30705  1.0000
  F   F6        1.0  0.33455  0.13638  0.79611  1.0000
  F   F7        1.0  0.32791  0.61547  0.30618  1.0000
  F   F8        1.0  0.32558  0.62337  0.80743  1.0000
  F   F9        1.0  0.57853  0.13414  0.30270  1.0000
  F   F10       1.0  0.57856  0.13833  0.80103  1.0000
  F   F11       1.0  0.57621  0.61786  0.30927  1.0000
  F   F12       1.0  0.57108  0.62487  0.81028  1.0000
  F   F13       1.0  0.82819  0.11578  0.30957  1.0000
  F   F14       1.0  0.82704  0.12506  0.81140  1.0000
  F   F15       1.0  0.82493  0.61978  0.30535  1.0000
  F   F16       1.0  0.83187  0.61885  0.80734  1.0000
  F   F17       1.0  0.18817  0.34269  0.44446  1.0000
  F   F18       1.0  0.18868  0.33855  0.95312  1.0000
  F   F19       1.0  0.18717  0.83791  0.44431  1.0000
  F   F20       1.0  0.18481  0.84650  0.94523  1.0000
  F   F21       1.0  0.44242  0.35567  0.42603  1.0000
  F   F22       1.0  0.43905  0.34840  0.93522  1.0000
  F   F23       1.0  0.44028  0.84048  0.43819  1.0000
  F   F24       1.0  0.43825  0.83543  0.94370  1.0000
  F   F25       1.0  0.69533  0.34646  0.43654  1.0000
  F   F26       1.0  0.69545  0.35459  0.93389  1.0000
  F   F27       1.0  0.68129  0.83613  0.44891  1.0000
  F   F28       1.0  0.67884  0.84913  0.94853  1.0000
  F   F29       1.0  0.93736  0.34947  0.44908  1.0000
  F   F30       1.0  0.93996  0.33514  0.94766  1.0000
  F   F31       1.0  0.92697  0.82402  0.46733  1.0000
  F   F32       1.0  0.93626  0.83377  0.94788  1.0000
  F   F33       1.0  0.17205  0.36539  0.20627  1.0000
  F   F34       1.0  0.16493  0.36806  0.70083  1.0000
  F   F35       1.0  0.16590  0.86518  0.20812  1.0000
  F   F36       1.0  0.16601  0.86511  0.70612  1.0000
  F   F37       1.0  0.42351  0.37718  0.19189  1.0000
  F   F38       1.0  0.41610  0.36873  0.70428  1.0000
  F   F39       1.0  0.42130  0.86186  0.19174  1.0000
  F   F40       1.0  0.42233  0.87238  0.70445  1.0000
  F   F41       1.0  0.67093  0.37625  0.19229  1.0000
  F   F42       1.0  0.66930  0.38052  0.69368  1.0000
  F   F43       1.0  0.68006  0.89346  0.17926  1.0000
  F   F44       1.0  0.67332  0.86056  0.70390  1.0000
  F   F45       1.0  0.92430  0.37607  0.18376  1.0000
  F   F46       1.0  0.91797  0.37107  0.70499  1.0000
  F   F47       1.0  0.92504  0.86774  0.19126  1.0000
  F   F48       1.0  0.92171  0.87794  0.68563  1.0000
  F   F49       1.0  0.06763  0.13710  0.05455  1.0000
  F   F50       1.0  0.06808  0.15966  0.55293  1.0000
  F   F51       1.0  0.06873  0.65565  0.05689  1.0000
  F   F52       1.0  0.06424  0.65976  0.55638  1.0000
  F   F53       1.0  0.31334  0.16271  0.05410  1.0000
  F   F54       1.0  0.30626  0.15413  0.56055  1.0000
  F   F55       1.0  0.31643  0.65431  0.04973  1.0000
  F   F56       1.0  0.30691  0.65479  0.55875  1.0000
  F   F57       1.0  0.56163  0.15761  0.05732  1.0000
  F   F58       1.0  0.56181  0.16362  0.56094  1.0000
  F   F59       1.0  0.56499  0.65970  0.04241  1.0000
  F   F60       1.0  0.56814  0.66562  0.53524  1.0000
  F   F61       1.0  0.81835  0.15339  0.04976  1.0000
  F   F62       1.0  0.82312  0.16326  0.53589  1.0000
  F   F63       1.0  0.80889  0.65305  0.06219  1.0000
  F   F64       1.0  0.81500  0.65955  0.55398  1.0000
  F   F65       1.0  0.20518  0.20979  0.21389  1.0000
  F   F66       1.0  0.20476  0.20477  0.69865  1.0000
  F   F67       1.0  0.20345  0.70800  0.21673  1.0000
  F   F68       1.0  0.20227  0.70538  0.71909  1.0000
  F   F69       1.0  0.45454  0.21152  0.20557  1.0000
  F   F70       1.0  0.44676  0.20085  0.70850  1.0000
  F   F71       1.0  0.44931  0.69404  0.20465  1.0000
  F   F72       1.0  0.45231  0.69538  0.70980  1.0000
  F   F73       1.0  0.69253  0.19545  0.21821  1.0000
  F   F74       1.0  0.69709  0.19922  0.72275  1.0000
  F   F75       1.0  0.70455  0.71143  0.20842  1.0000
  F   F76       1.0  0.71142  0.69876  0.71066  1.0000
  F   F77       1.0  0.95222  0.20819  0.21630  1.0000
  F   F78       1.0  0.94997  0.20148  0.71491  1.0000
  F   F79       1.0  0.96402  0.70299  0.20587  1.0000
  F   F80       1.0  0.95761  0.70896  0.70829  1.0000
  F   F81       1.0  0.15028  0.09442  0.04774  1.0000
  F   F82       1.0  0.14905  0.08732  0.53529  1.0000
  F   F83       1.0  0.14752  0.58189  0.04295  1.0000
  F   F84       1.0  0.15161  0.59758  0.54018  1.0000
  F   F85       1.0  0.39757  0.07722  0.03792  1.0000
  F   F86       1.0  0.38973  0.09165  0.53347  1.0000
  F   F87       1.0  0.39614  0.58166  0.04256  1.0000
  F   F88       1.0  0.39344  0.59562  0.54134  1.0000
  F   F89       1.0  0.64669  0.07498  0.04423  1.0000
  F   F90       1.0  0.64985  0.08483  0.53952  1.0000
  F   F91       1.0  0.64995  0.58346  0.03494  1.0000
  F   F92       1.0  0.65327  0.60563  0.54062  1.0000
  F   F93       1.0  0.90358  0.10330  0.04849  1.0000
  F   F94       1.0  0.89652  0.07946  0.53844  1.0000
  F   F95       1.0  0.89576  0.58974  0.04381  1.0000
  F   F96       1.0  0.89911  0.60862  0.52848  1.0000
  F   F97       1.0  0.15417  0.19083  0.13429  1.0000
  F   F98       1.0  0.15084  0.19395  0.61162  1.0000
  F   F99       1.0  0.15422  0.68709  0.12960  1.0000
  F   F100      1.0  0.15325  0.69245  0.62669  1.0000
  F   F101      1.0  0.39897  0.19776  0.11849  1.0000
  F   F102      1.0  0.39893  0.21357  0.59770  1.0000
  F   F103      1.0  0.39793  0.69885  0.11548  1.0000
  F   F104      1.0  0.40238  0.69321  0.62414  1.0000
  F   F105      1.0  0.64962  0.20089  0.10667  1.0000
  F   F106      1.0  0.64617  0.20733  0.61840  1.0000
  F   F107      1.0  0.65422  0.69430  0.12411  1.0000
  F   F108      1.0  0.64998  0.69949  0.63937  1.0000
  F   F109      1.0  0.89951  0.19796  0.14041  1.0000
  F   F110      1.0  0.89630  0.18617  0.62110  1.0000
  F   F111      1.0  0.90316  0.69352  0.13243  1.0000
  F   F112      1.0  0.89946  0.68140  0.63297  1.0000
  F   F113      1.0  0.09505  0.29843  0.37042  1.0000
  F   F114      1.0  0.09585  0.28574  0.88831  1.0000
  F   F115      1.0  0.09624  0.80406  0.37277  1.0000
  F   F116      1.0  0.10311  0.78973  0.87663  1.0000
  F   F117      1.0  0.34655  0.29354  0.39246  1.0000
  F   F118      1.0  0.34434  0.29508  0.87308  1.0000
  F   F119      1.0  0.34276  0.80732  0.38032  1.0000
  F   F120      1.0  0.34320  0.79230  0.88051  1.0000
  F   F121      1.0  0.59363  0.30407  0.36735  1.0000
  F   F122      1.0  0.59802  0.30089  0.88188  1.0000
  F   F123      1.0  0.59997  0.81082  0.35565  1.0000
  F   F124      1.0  0.59526  0.81892  0.87031  1.0000
  F   F125      1.0  0.84544  0.32042  0.36668  1.0000
  F   F126      1.0  0.84366  0.30283  0.87859  1.0000
  F   F127      1.0  0.85161  0.80270  0.37625  1.0000
  F   F128      1.0  0.85499  0.80332  0.87296  1.0000
  F   F129      1.0  0.07794  0.24836  0.12585  1.0000
  F   F130      1.0  0.05898  0.24271  0.66210  1.0000
  F   F131      1.0  0.06928  0.75373  0.13364  1.0000
  F   F132      1.0  0.07342  0.75464  0.63621  1.0000
  F   F133      1.0  0.31098  0.24359  0.16160  1.0000
  F   F134      1.0  0.31176  0.25017  0.64540  1.0000
  F   F135      1.0  0.31259  0.74142  0.15764  1.0000
  F   F136      1.0  0.31860  0.75117  0.63099  1.0000
  F   F137      1.0  0.55760  0.25474  0.15260  1.0000
  F   F138      1.0  0.56353  0.26045  0.63544  1.0000
  F   F139      1.0  0.57517  0.75792  0.12396  1.0000
  F   F140      1.0  0.56800  0.75381  0.64159  1.0000
  F   F141      1.0  0.81767  0.25264  0.13345  1.0000
  F   F142      1.0  0.81167  0.24930  0.64103  1.0000
  F   F143      1.0  0.81561  0.74810  0.14660  1.0000
  F   F144      1.0  0.81142  0.75792  0.63999  1.0000
  F   F145      1.0  0.13019  0.37743  0.09798  1.0000
  F   F146      1.0  0.12539  0.36515  0.60232  1.0000
  F   F147      1.0  0.12665  0.87062  0.10649  1.0000
  F   F148      1.0  0.12768  0.88181  0.60525  1.0000
  F   F149      1.0  0.37783  0.36378  0.11030  1.0000
  F   F150      1.0  0.37348  0.37387  0.60746  1.0000
  F   F151      1.0  0.37655  0.88814  0.08509  1.0000
  F   F152      1.0  0.37545  0.84249  0.63046  1.0000
  F   F153      1.0  0.62418  0.37076  0.10333  1.0000
  F   F154      1.0  0.62685  0.36932  0.60752  1.0000
  F   F155      1.0  0.62439  0.86226  0.12648  1.0000
  F   F156      1.0  0.62899  0.88760  0.59402  1.0000
  F   F157      1.0  0.87217  0.37953  0.10322  1.0000
  F   F158      1.0  0.86840  0.34756  0.64409  1.0000
  F   F159      1.0  0.87480  0.86188  0.11019  1.0000
  F   F160      1.0  0.87047  0.85760  0.62929  1.0000
  F   F161      1.0  0.18222  0.24542  0.36655  1.0000
  F   F162      1.0  0.17750  0.23605  0.86638  1.0000
  F   F163      1.0  0.18262  0.74259  0.37319  1.0000
  F   F164      1.0  0.18785  0.74821  0.85804  1.0000
  F   F165      1.0  0.43321  0.25848  0.34707  1.0000
  F   F166      1.0  0.43015  0.24818  0.85479  1.0000
  F   F167      1.0  0.42968  0.75059  0.36062  1.0000
  F   F168      1.0  0.43548  0.74670  0.85413  1.0000
  F   F169      1.0  0.68128  0.24716  0.36412  1.0000
  F   F170      1.0  0.68311  0.25362  0.86322  1.0000
  F   F171      1.0  0.69012  0.75071  0.35462  1.0000
  F   F172      1.0  0.68650  0.74545  0.85626  1.0000
  F   F173      1.0  0.94055  0.25597  0.35447  1.0000
  F   F174      1.0  0.93249  0.25466  0.85647  1.0000
  F   F175      1.0  0.94094  0.75254  0.35034  1.0000
  F   F176      1.0  0.93987  0.75179  0.85641  1.0000
  F   F177      1.0  0.12584  0.13102  0.39311  1.0000
  F   F178      1.0  0.12796  0.10778  0.90079  1.0000
  F   F179      1.0  0.12868  0.63742  0.38147  1.0000
  F   F180      1.0  0.12575  0.62222  0.89792  1.0000
  F   F181      1.0  0.37547  0.13450  0.37714  1.0000
  F   F182      1.0  0.37041  0.11863  0.90468  1.0000
  F   F183      1.0  0.37135  0.62910  0.39959  1.0000
  F   F184      1.0  0.37608  0.60894  0.89540  1.0000
  F   F185      1.0  0.61866  0.11231  0.41022  1.0000
  F   F186      1.0  0.62371  0.13368  0.89543  1.0000
  F   F187      1.0  0.62265  0.62067  0.39821  1.0000
  F   F188      1.0  0.62472  0.63278  0.88226  1.0000
  F   F189      1.0  0.87875  0.14859  0.37526  1.0000
  F   F190      1.0  0.87661  0.12047  0.90384  1.0000
  F   F191      1.0  0.87704  0.63910  0.38088  1.0000
  F   F192      1.0  0.87694  0.63476  0.89037  1.0000
  F   F193      1.0  0.01137  0.34619  0.07439  1.0000
  F   F194      1.0  0.00558  0.35048  0.58534  1.0000
  F   F195      1.0  0.01343  0.86643  0.06570  1.0000
  F   F196      1.0  0.00989  0.86363  0.57923  1.0000
  F   F197      1.0  0.25876  0.36076  0.08118  1.0000
  F   F198      1.0  0.25850  0.35481  0.58494  1.0000
  F   F199      1.0  0.25983  0.85116  0.07369  1.0000
  F   F200      1.0  0.25999  0.85773  0.57031  1.0000
  F   F201      1.0  0.50773  0.36805  0.07031  1.0000
  F   F202      1.0  0.50812  0.36937  0.56543  1.0000
  F   F203      1.0  0.50623  0.84317  0.09105  1.0000
  F   F204      1.0  0.50329  0.87458  0.57843  1.0000
  F   F205      1.0  0.75531  0.35472  0.09379  1.0000
  F   F206      1.0  0.75675  0.35441  0.57188  1.0000
  F   F207      1.0  0.76403  0.85775  0.06302  1.0000
  F   F208      1.0  0.76063  0.86666  0.56770  1.0000
  F   F209      1.0  0.07000  0.47344  0.17347  1.0000
  F   F210      1.0  0.06629  0.48442  0.67428  1.0000
  F   F211      1.0  0.06886  0.98086  0.17649  1.0000
  F   F212      1.0  0.07141  0.98551  0.68075  1.0000
  F   F213      1.0  0.32306  0.48329  0.17317  1.0000
  F   F214      1.0  0.31370  0.48176  0.68921  1.0000
  F   F215      1.0  0.31240  0.97933  0.18893  1.0000
  F   F216      1.0  0.31728  0.96891  0.68642  1.0000
  F   F217      1.0  0.57173  0.49271  0.16785  1.0000
  F   F218      1.0  0.57302  0.49512  0.66444  1.0000
  F   F219      1.0  0.56322  0.99263  0.18105  1.0000
  F   F220      1.0  0.56650  0.99112  0.67800  1.0000
  F   F221      1.0  0.81896  0.48730  0.17131  1.0000
  F   F222      1.0  0.82149  0.48935  0.66200  1.0000
  F   F223      1.0  0.82627  0.99034  0.16204  1.0000
  F   F224      1.0  0.81796  0.98596  0.67921  1.0000
  F   F225      1.0  0.23705  0.13649  0.43687  1.0000
  F   F226      1.0  0.24528  0.13894  0.91560  1.0000
  F   F227      1.0  0.24392  0.62973  0.41653  1.0000
  F   F228      1.0  0.24334  0.63644  0.92810  1.0000
  F   F229      1.0  0.48600  0.15509  0.41951  1.0000
  F   F230      1.0  0.48900  0.13812  0.92228  1.0000
  F   F231      1.0  0.49109  0.64852  0.42103  1.0000
  F   F232      1.0  0.49165  0.64324  0.92658  1.0000
  F   F233      1.0  0.74193  0.13512  0.41869  1.0000
  F   F234      1.0  0.73772  0.13859  0.93814  1.0000
  F   F235      1.0  0.74256  0.64513  0.42231  1.0000
  F   F236      1.0  0.74489  0.63091  0.93160  1.0000
  F   F237      1.0  0.98818  0.13045  0.44269  1.0000
  F   F238      1.0  0.99045  0.14638  0.92009  1.0000
  F   F239      1.0  0.99395  0.63897  0.42086  1.0000
  F   F240      1.0  0.99331  0.63956  0.93351  1.0000
  F   F241      1.0  0.18425  0.01496  0.31041  1.0000
  F   F242      1.0  0.18846  0.02193  0.80207  1.0000
  F   F243      1.0  0.17330  0.52164  0.32228  1.0000
  F   F244      1.0  0.17772  0.50377  0.83311  1.0000
  F   F245      1.0  0.42815  0.00661  0.32727  1.0000
  F   F246      1.0  0.42993  0.01515  0.82622  1.0000
  F   F247      1.0  0.42655  0.51469  0.33886  1.0000
  F   F248      1.0  0.43403  0.51984  0.80799  1.0000
  F   F249      1.0  0.67591  0.01667  0.32782  1.0000
  F   F250      1.0  0.67724  0.01822  0.81933  1.0000
  F   F251      1.0  0.67602  0.52235  0.32353  1.0000
  F   F252      1.0  0.68200  0.52260  0.81785  1.0000
  F   F253      1.0  0.93356  0.00900  0.32706  1.0000
  F   F254      1.0  0.93518  0.01918  0.80983  1.0000
  F   F255      1.0  0.93602  0.51603  0.31468  1.0000
  F   F256      1.0  0.92921  0.51966  0.82818  1.0000
  F   F257      1.0  0.99780  0.23312  0.01619  1.0000
  F   F258      1.0  0.99742  0.24482  0.50645  1.0000
  F   F259      1.0  0.00531  0.75655  0.98905  1.0000
  F   F260      1.0  0.00089  0.74445  0.50474  1.0000
  F   F261      1.0  0.24978  0.24664  0.00265  1.0000
  F   F262      1.0  0.25208  0.25591  0.49062  1.0000
  F   F263      1.0  0.24627  0.73359  0.02210  1.0000
  F   F264      1.0  0.24566  0.74170  0.50378  1.0000
  F   F265      1.0  0.49564  0.25061  0.00143  1.0000
  F   F266      1.0  0.50137  0.25609  0.49728  1.0000
  F   F267      1.0  0.50247  0.76229  0.98937  1.0000
  F   F268      1.0  0.50252  0.75555  0.49294  1.0000
  F   F269      1.0  0.74910  0.24606  0.00745  1.0000
  F   F270      1.0  0.74861  0.23710  0.50684  1.0000
  F   F271      1.0  0.74522  0.76066  0.98741  1.0000
  F   F272      1.0  0.75147  0.74966  0.50096  1.0000
  F   F273      1.0  0.12723  0.00133  0.25688  1.0000
  F   F274      1.0  0.12982  0.00115  0.74636  1.0000
  F   F275      1.0  0.12296  0.48395  0.25343  1.0000
  F   F276      1.0  0.11821  0.49205  0.76919  1.0000
  F   F277      1.0  0.37656  0.00171  0.23988  1.0000
  F   F278      1.0  0.38145  0.02009  0.72610  1.0000
  F   F279      1.0  0.38407  0.50794  0.23971  1.0000
  F   F280      1.0  0.36882  0.50117  0.75415  1.0000
  F   F281      1.0  0.61925  0.00410  0.24901  1.0000
  F   F282      1.0  0.62659  0.00213  0.74415  1.0000
  F   F283      1.0  0.62876  0.50487  0.23895  1.0000
  F   F284      1.0  0.62698  0.50920  0.74646  1.0000
  F   F285      1.0  0.88277  0.99968  0.24622  1.0000
  F   F286      1.0  0.86762  0.99236  0.76583  1.0000
  F   F287      1.0  0.87698  0.50778  0.24343  1.0000
  F   F288      1.0  0.87983  0.49990  0.73669  1.0000
  F   F289      1.0  0.03261  0.02712  0.02973  1.0000
  F   F290      1.0  0.03874  0.04470  0.53290  1.0000
  F   F291      1.0  0.04427  0.53133  0.01700  1.0000
  F   F292      1.0  0.04126  0.52919  0.52346  1.0000
  F   F293      1.0  0.29004  0.02418  0.03168  1.0000
  F   F294      1.0  0.28930  0.02666  0.53999  1.0000
  F   F295      1.0  0.29502  0.52073  0.02686  1.0000
  F   F296      1.0  0.28936  0.53268  0.52364  1.0000
  F   F297      1.0  0.53905  0.03479  0.02004  1.0000
  F   F298      1.0  0.53831  0.03630  0.53378  1.0000
  F   F299      1.0  0.54547  0.53783  0.01705  1.0000
  F   F300      1.0  0.53984  0.53760  0.52768  1.0000
  F   F301      1.0  0.78798  0.02824  0.02079  1.0000
  F   F302      1.0  0.79695  0.03791  0.51228  1.0000
  F   F303      1.0  0.79215  0.53526  0.02155  1.0000
  F   F304      1.0  0.78983  0.52978  0.51501  1.0000
  F   F305      1.0  0.23604  0.40969  0.24009  1.0000
  F   F306      1.0  0.23294  0.40451  0.73453  1.0000
  F   F307      1.0  0.23058  0.89580  0.23079  1.0000
  F   F308      1.0  0.23437  0.90391  0.72568  1.0000
  F   F309      1.0  0.48192  0.42313  0.21857  1.0000
  F   F310      1.0  0.48468  0.40549  0.73542  1.0000
  F   F311      1.0  0.48223  0.92435  0.21637  1.0000
  F   F312      1.0  0.48657  0.92390  0.72619  1.0000
  F   F313      1.0  0.73407  0.40953  0.22410  1.0000
  F   F314      1.0  0.73825  0.41956  0.72061  1.0000
  F   F315      1.0  0.73600  0.91740  0.22942  1.0000
  F   F316      1.0  0.73749  0.92207  0.71519  1.0000
  F   F317      1.0  0.98611  0.42218  0.21373  1.0000
  F   F318      1.0  0.98290  0.41721  0.72706  1.0000
  F   F319      1.0  0.98485  0.91227  0.22734  1.0000
  F   F320      1.0  0.98679  0.90254  0.73661  1.0000
  F   F321      1.0  0.20307  0.47156  0.47572  1.0000
  F   F322      1.0  0.20698  0.47656  0.98445  1.0000
  F   F323      1.0  0.20663  0.96202  0.47164  1.0000
  F   F324      1.0  0.20966  0.97438  0.97560  1.0000
  F   F325      1.0  0.45420  0.47635  0.47953  1.0000
  F   F326      1.0  0.45936  0.47136  0.97505  1.0000
  F   F327      1.0  0.44596  0.97276  0.48317  1.0000
  F   F328      1.0  0.46577  0.95702  0.96563  1.0000
  F   F329      1.0  0.70310  0.47622  0.48611  1.0000
  F   F330      1.0  0.71227  0.47074  0.97190  1.0000
  F   F331      1.0  0.70990  0.96281  0.47117  1.0000
  F   F332      1.0  0.70603  0.96767  0.97744  1.0000
  F   F333      1.0  0.94842  0.47030  0.48850  1.0000
  F   F334      1.0  0.95947  0.47812  0.96297  1.0000
  F   F335      1.0  0.96218  0.96607  0.46611  1.0000
  F   F336      1.0  0.95075  0.96677  0.98561  1.0000
  F   F337      1.0  0.01279  0.08610  0.27719  1.0000
  F   F338      1.0  0.01343  0.08538  0.77909  1.0000
  F   F339      1.0  0.02142  0.58482  0.27055  1.0000
  F   F340      1.0  0.01702  0.58365  0.77662  1.0000
  F   F341      1.0  0.26266  0.09652  0.27286  1.0000
  F   F342      1.0  0.26565  0.08286  0.77066  1.0000
  F   F343      1.0  0.26328  0.57363  0.26976  1.0000
  F   F344      1.0  0.26272  0.58714  0.77606  1.0000
  F   F345      1.0  0.51307  0.08618  0.28071  1.0000
  F   F346      1.0  0.50926  0.08916  0.78049  1.0000
  F   F347      1.0  0.51382  0.59481  0.26297  1.0000
  F   F348      1.0  0.51222  0.59928  0.76694  1.0000
  F   F349      1.0  0.76363  0.09410  0.27010  1.0000
  F   F350      1.0  0.75962  0.08997  0.77269  1.0000
  F   F351      1.0  0.75730  0.57251  0.29063  1.0000
  F   F352      1.0  0.76698  0.56841  0.78706  1.0000
  F   F353      1.0  0.09940  0.39036  0.46282  1.0000
  F   F354      1.0  0.10062  0.39948  0.95964  1.0000
  F   F355      1.0  0.09838  0.91316  0.47034  1.0000
  F   F356      1.0  0.09990  0.90621  0.95989  1.0000
  F   F357      1.0  0.35026  0.40764  0.46381  1.0000
  F   F358      1.0  0.34952  0.39617  0.96611  1.0000
  F   F359      1.0  0.35344  0.90918  0.47174  1.0000
  F   F360      1.0  0.35045  0.90900  0.95219  1.0000
  F   F361      1.0  0.60130  0.39637  0.47136  1.0000
  F   F362      1.0  0.60288  0.40476  0.95882  1.0000
  F   F363      1.0  0.59689  0.90733  0.46044  1.0000
  F   F364      1.0  0.59503  0.92887  0.96835  1.0000
  F   F365      1.0  0.85739  0.40481  0.46667  1.0000
  F   F366      1.0  0.84806  0.41477  0.96293  1.0000
  F   F367      1.0  0.85805  0.91111  0.46094  1.0000
  F   F368      1.0  0.85469  0.91679  0.95984  1.0000
  F   F369      1.0  0.03741  0.28396  0.27192  1.0000
  F   F370      1.0  0.04684  0.29969  0.79494  1.0000
  F   F371      1.0  0.04988  0.79262  0.29174  1.0000
  F   F372      1.0  0.04698  0.79801  0.78676  1.0000
  F   F373      1.0  0.29535  0.28749  0.29865  1.0000
  F   F374      1.0  0.29763  0.29969  0.78297  1.0000
  F   F375      1.0  0.30194  0.79735  0.28504  1.0000
  F   F376      1.0  0.29602  0.79461  0.78599  1.0000
  F   F377      1.0  0.54636  0.30011  0.28499  1.0000
  F   F378      1.0  0.54570  0.30071  0.79588  1.0000
  F   F379      1.0  0.54154  0.80222  0.28182  1.0000
  F   F380      1.0  0.55189  0.81883  0.77283  1.0000
  F   F381      1.0  0.79392  0.30477  0.28220  1.0000
  F   F382      1.0  0.79437  0.28630  0.79432  1.0000
  F   F383      1.0  0.80106  0.79228  0.28866  1.0000
  F   F384      1.0  0.79499  0.79355  0.79284  1.0000
