data_image0
_chemical_formula_structural       Hf96F384
_chemical_formula_sum              "Hf96 F384"
_cell_length_a       31.0388
_cell_length_b       15.5236
_cell_length_c       15.5128
_cell_angle_alpha    63.342
_cell_angle_beta     63.342
_cell_angle_gamma    80.1625

_space_group_name_H-M_alt    "P 1"
_space_group_IT_number       1

loop_
  _space_group_symop_operation_xyz
  'x, y, z'

loop_
  _atom_site_type_symbol
  _atom_site_label
  _atom_site_symmetry_multiplicity
  _atom_site_fract_x
  _atom_site_fract_y
  _atom_site_fract_z
  _atom_site_occupancy
  Hf  Hf1       1.0  0.19336  0.10351  0.38102  1.0000
  Hf  Hf2       1.0  0.19382  0.09688  0.88272  1.0000
  Hf  Hf3       1.0  0.19521  0.60681  0.38359  1.0000
  Hf  Hf4       1.0  0.19996  0.61226  0.86203  1.0000
  Hf  Hf5       1.0  0.44752  0.10372  0.37084  1.0000
  Hf  Hf6       1.0  0.44788  0.11619  0.87483  1.0000
  Hf  Hf7       1.0  0.45081  0.61182  0.37130  1.0000
  Hf  Hf8       1.0  0.44382  0.60338  0.88158  1.0000
  Hf  Hf9       1.0  0.69587  0.10722  0.37382  1.0000
  Hf  Hf10      1.0  0.69668  0.11040  0.87364  1.0000
  Hf  Hf11      1.0  0.69599  0.60957  0.37633  1.0000
  Hf  Hf12      1.0  0.69787  0.60914  0.86735  1.0000
  Hf  Hf13      1.0  0.94458  0.10498  0.37275  1.0000
  Hf  Hf14      1.0  0.94760  0.10194  0.87362  1.0000
  Hf  Hf15      1.0  0.94556  0.60183  0.37720  1.0000
  Hf  Hf16      1.0  0.94987  0.61390  0.86971  1.0000
  Hf  Hf17      1.0  0.05302  0.39115  0.12762  1.0000
  Hf  Hf18      1.0  0.05556  0.38464  0.63262  1.0000
  Hf  Hf19      1.0  0.05109  0.88192  0.13499  1.0000
  Hf  Hf20      1.0  0.05434  0.89315  0.62224  1.0000
  Hf  Hf21      1.0  0.29820  0.39551  0.12683  1.0000
  Hf  Hf22      1.0  0.30530  0.39021  0.63358  1.0000
  Hf  Hf23      1.0  0.30308  0.88557  0.13911  1.0000
  Hf  Hf24      1.0  0.30438  0.89037  0.62154  1.0000
  Hf  Hf25      1.0  0.55562  0.39904  0.11871  1.0000
  Hf  Hf26      1.0  0.55534  0.39334  0.62214  1.0000
  Hf  Hf27      1.0  0.55601  0.89512  0.11177  1.0000
  Hf  Hf28      1.0  0.55306  0.89043  0.62736  1.0000
  Hf  Hf29      1.0  0.80215  0.39548  0.12727  1.0000
  Hf  Hf30      1.0  0.80598  0.39284  0.61880  1.0000
  Hf  Hf31      1.0  0.80410  0.89288  0.12691  1.0000
  Hf  Hf32      1.0  0.80621  0.90873  0.62220  1.0000
  Hf  Hf33      1.0  0.05564  0.17393  0.41958  1.0000
  Hf  Hf34      1.0  0.05358  0.18047  0.91463  1.0000
  Hf  Hf35      1.0  0.05718  0.67518  0.42353  1.0000
  Hf  Hf36      1.0  0.05276  0.68021  0.92540  1.0000
  Hf  Hf37      1.0  0.30349  0.18404  0.42220  1.0000
  Hf  Hf38      1.0  0.30459  0.17130  0.92737  1.0000
  Hf  Hf39      1.0  0.30961  0.67618  0.42075  1.0000
  Hf  Hf40      1.0  0.30269  0.68864  0.91877  1.0000
  Hf  Hf41      1.0  0.55477  0.18323  0.40378  1.0000
  Hf  Hf42      1.0  0.55768  0.18014  0.91141  1.0000
  Hf  Hf43      1.0  0.55376  0.68327  0.42094  1.0000
  Hf  Hf44      1.0  0.55270  0.68042  0.92922  1.0000
  Hf  Hf45      1.0  0.80600  0.18574  0.41111  1.0000
  Hf  Hf46      1.0  0.80699  0.18304  0.91338  1.0000
  Hf  Hf47      1.0  0.80322  0.67670  0.42428  1.0000
  Hf  Hf48      1.0  0.80484  0.69037  0.91642  1.0000
  Hf  Hf49      1.0  0.15669  0.38512  0.33871  1.0000
  Hf  Hf50      1.0  0.15914  0.38851  0.83092  1.0000
  Hf  Hf51      1.0  0.16038  0.88719  0.32977  1.0000
  Hf  Hf52      1.0  0.15480  0.88154  0.83880  1.0000
  Hf  Hf53      1.0  0.41180  0.38494  0.33000  1.0000
  Hf  Hf54      1.0  0.40374  0.38455  0.84452  1.0000
  Hf  Hf55      1.0  0.41200  0.88759  0.32835  1.0000
  Hf  Hf56      1.0  0.41207  0.88863  0.83415  1.0000
  Hf  Hf57      1.0  0.65968  0.38720  0.33312  1.0000
  Hf  Hf58      1.0  0.66250  0.39073  0.83158  1.0000
  Hf  Hf59      1.0  0.65677  0.89251  0.33509  1.0000
  Hf  Hf60      1.0  0.66166  0.88975  0.82401  1.0000
  Hf  Hf61      1.0  0.91067  0.38286  0.33501  1.0000
  Hf  Hf62      1.0  0.91040  0.38998  0.82595  1.0000
  Hf  Hf63      1.0  0.90671  0.88686  0.33439  1.0000
  Hf  Hf64      1.0  0.91012  0.89337  0.82506  1.0000
  Hf  Hf65      1.0  0.18775  0.31297  0.08803  1.0000
  Hf  Hf66      1.0  0.19447  0.31140  0.58545  1.0000
  Hf  Hf67      1.0  0.19088  0.81203  0.09465  1.0000
  Hf  Hf68      1.0  0.19585  0.81935  0.57679  1.0000
  Hf  Hf69      1.0  0.44546  0.31609  0.08741  1.0000
  Hf  Hf70      1.0  0.44724  0.31668  0.58333  1.0000
  Hf  Hf71      1.0  0.44112  0.81550  0.08837  1.0000
  Hf  Hf72      1.0  0.44390  0.82032  0.58495  1.0000
  Hf  Hf73      1.0  0.69152  0.31604  0.09067  1.0000
  Hf  Hf74      1.0  0.69611  0.33076  0.57432  1.0000
  Hf  Hf75      1.0  0.69479  0.82397  0.08073  1.0000
  Hf  Hf76      1.0  0.69675  0.82114  0.57976  1.0000
  Hf  Hf77      1.0  0.94356  0.32159  0.07870  1.0000
  Hf  Hf78      1.0  0.94607  0.31732  0.58156  1.0000
  Hf  Hf79      1.0  0.94158  0.82393  0.07863  1.0000
  Hf  Hf80      1.0  0.94769  0.82141  0.58004  1.0000
  Hf  Hf81      1.0  0.09041  0.10635  0.16280  1.0000
  Hf  Hf82      1.0  0.08944  0.10421  0.66929  1.0000
  Hf  Hf83      1.0  0.09001  0.61113  0.16597  1.0000
  Hf  Hf84      1.0  0.09027  0.61526  0.66872  1.0000
  Hf  Hf85      1.0  0.33964  0.11138  0.17903  1.0000
  Hf  Hf86      1.0  0.33985  0.10827  0.66724  1.0000
  Hf  Hf87      1.0  0.33725  0.60711  0.17727  1.0000
  Hf  Hf88      1.0  0.34582  0.61821  0.66632  1.0000
  Hf  Hf89      1.0  0.58759  0.10958  0.16582  1.0000
  Hf  Hf90      1.0  0.59073  0.11227  0.65899  1.0000
  Hf  Hf91      1.0  0.59608  0.61170  0.16475  1.0000
  Hf  Hf92      1.0  0.58989  0.61288  0.66641  1.0000
  Hf  Hf93      1.0  0.84022  0.11992  0.16624  1.0000
  Hf  Hf94      1.0  0.84424  0.12124  0.65633  1.0000
  Hf  Hf95      1.0  0.84293  0.61320  0.16626  1.0000
  Hf  Hf96      1.0  0.84437  0.61670  0.65962  1.0000
  F   F1        1.0  0.08147  0.12166  0.29805  1.0000
  F   F2        1.0  0.08061  0.11526  0.80969  1.0000
  F   F3        1.0  0.08473  0.63207  0.30647  1.0000
  F   F4        1.0  0.07082  0.62288  0.81086  1.0000
  F   F5        1.0  0.31983  0.11448  0.32286  1.0000
  F   F6        1.0  0.32932  0.12036  0.80487  1.0000
  F   F7        1.0  0.33872  0.62806  0.30029  1.0000
  F   F8        1.0  0.32299  0.64831  0.79464  1.0000
  F   F9        1.0  0.57318  0.12665  0.29427  1.0000
  F   F10       1.0  0.58350  0.12857  0.80657  1.0000
  F   F11       1.0  0.57820  0.64905  0.29348  1.0000
  F   F12       1.0  0.57539  0.63497  0.81197  1.0000
  F   F13       1.0  0.82927  0.13333  0.30413  1.0000
  F   F14       1.0  0.82890  0.13042  0.79861  1.0000
  F   F15       1.0  0.83352  0.63309  0.29309  1.0000
  F   F16       1.0  0.83882  0.64638  0.78737  1.0000
  F   F17       1.0  0.17597  0.32924  0.46173  1.0000
  F   F18       1.0  0.18463  0.33908  0.94402  1.0000
  F   F19       1.0  0.19450  0.83965  0.43248  1.0000
  F   F20       1.0  0.18236  0.82715  0.95073  1.0000
  F   F21       1.0  0.44342  0.34421  0.42992  1.0000
  F   F22       1.0  0.43405  0.34238  0.94976  1.0000
  F   F23       1.0  0.44305  0.83359  0.44618  1.0000
  F   F24       1.0  0.44022  0.86108  0.93868  1.0000
  F   F25       1.0  0.69140  0.35197  0.43935  1.0000
  F   F26       1.0  0.68004  0.33847  0.95463  1.0000
  F   F27       1.0  0.69367  0.85551  0.43651  1.0000
  F   F28       1.0  0.68970  0.84732  0.93810  1.0000
  F   F29       1.0  0.93218  0.34147  0.45231  1.0000
  F   F30       1.0  0.94882  0.35585  0.92761  1.0000
  F   F31       1.0  0.93063  0.85262  0.44792  1.0000
  F   F32       1.0  0.93547  0.84301  0.94350  1.0000
  F   F33       1.0  0.16854  0.37724  0.19380  1.0000
  F   F34       1.0  0.17651  0.37848  0.68949  1.0000
  F   F35       1.0  0.16118  0.85046  0.21484  1.0000
  F   F36       1.0  0.16789  0.85429  0.70314  1.0000
  F   F37       1.0  0.41732  0.36293  0.19914  1.0000
  F   F38       1.0  0.42260  0.38618  0.69269  1.0000
  F   F39       1.0  0.41896  0.87657  0.19249  1.0000
  F   F40       1.0  0.42683  0.87660  0.69126  1.0000
  F   F41       1.0  0.67009  0.36936  0.19998  1.0000
  F   F42       1.0  0.67297  0.39556  0.68570  1.0000
  F   F43       1.0  0.67543  0.87407  0.18434  1.0000
  F   F44       1.0  0.66936  0.86918  0.69064  1.0000
  F   F45       1.0  0.92697  0.38521  0.18810  1.0000
  F   F46       1.0  0.91983  0.37152  0.69285  1.0000
  F   F47       1.0  0.91943  0.87945  0.19283  1.0000
  F   F48       1.0  0.92594  0.88223  0.68849  1.0000
  F   F49       1.0  0.07033  0.18312  0.04052  1.0000
  F   F50       1.0  0.06372  0.14580  0.55485  1.0000
  F   F51       1.0  0.06019  0.65884  0.06081  1.0000
  F   F52       1.0  0.06104  0.67045  0.55885  1.0000
  F   F53       1.0  0.31435  0.16944  0.04326  1.0000
  F   F54       1.0  0.31732  0.16510  0.54564  1.0000
  F   F55       1.0  0.31213  0.66742  0.05185  1.0000
  F   F56       1.0  0.31486  0.64347  0.55907  1.0000
  F   F57       1.0  0.55296  0.15114  0.05817  1.0000
  F   F58       1.0  0.56789  0.17811  0.53212  1.0000
  F   F59       1.0  0.55908  0.65055  0.06264  1.0000
  F   F60       1.0  0.56379  0.66881  0.55059  1.0000
  F   F61       1.0  0.81481  0.15729  0.05377  1.0000
  F   F62       1.0  0.82120  0.16346  0.53814  1.0000
  F   F63       1.0  0.81041  0.66081  0.04867  1.0000
  F   F64       1.0  0.80933  0.66760  0.55467  1.0000
  F   F65       1.0  0.19351  0.18333  0.21782  1.0000
  F   F66       1.0  0.20082  0.19718  0.71814  1.0000
  F   F67       1.0  0.20767  0.69357  0.21580  1.0000
  F   F68       1.0  0.20749  0.70238  0.70638  1.0000
  F   F69       1.0  0.45608  0.19629  0.20788  1.0000
  F   F70       1.0  0.45327  0.21607  0.70364  1.0000
  F   F71       1.0  0.45688  0.70359  0.20959  1.0000
  F   F72       1.0  0.45427  0.69704  0.73203  1.0000
  F   F73       1.0  0.71257  0.21002  0.22221  1.0000
  F   F74       1.0  0.68124  0.21251  0.71666  1.0000
  F   F75       1.0  0.70485  0.70581  0.20891  1.0000
  F   F76       1.0  0.70268  0.69385  0.69696  1.0000
  F   F77       1.0  0.95269  0.20419  0.22356  1.0000
  F   F78       1.0  0.95689  0.19507  0.71497  1.0000
  F   F79       1.0  0.96080  0.70362  0.22654  1.0000
  F   F80       1.0  0.95418  0.71391  0.70911  1.0000
  F   F81       1.0  0.15014  0.07212  0.04916  1.0000
  F   F82       1.0  0.14840  0.08099  0.53702  1.0000
  F   F83       1.0  0.14992  0.58523  0.04602  1.0000
  F   F84       1.0  0.15228  0.59593  0.53790  1.0000
  F   F85       1.0  0.39656  0.11771  0.04085  1.0000
  F   F86       1.0  0.40452  0.09385  0.54122  1.0000
  F   F87       1.0  0.39045  0.58127  0.04524  1.0000
  F   F88       1.0  0.40276  0.59487  0.55226  1.0000
  F   F89       1.0  0.64729  0.11351  0.02903  1.0000
  F   F90       1.0  0.64173  0.08916  0.51939  1.0000
  F   F91       1.0  0.64976  0.61013  0.03071  1.0000
  F   F92       1.0  0.65033  0.58761  0.52862  1.0000
  F   F93       1.0  0.89949  0.09501  0.03261  1.0000
  F   F94       1.0  0.90139  0.09158  0.53980  1.0000
  F   F95       1.0  0.90001  0.59963  0.04295  1.0000
  F   F96       1.0  0.89555  0.57365  0.54389  1.0000
  F   F97       1.0  0.14461  0.19565  0.11760  1.0000
  F   F98       1.0  0.15702  0.18402  0.62212  1.0000
  F   F99       1.0  0.14167  0.70011  0.13107  1.0000
  F   F100      1.0  0.15024  0.70788  0.61943  1.0000
  F   F101      1.0  0.39692  0.20321  0.14753  1.0000
  F   F102      1.0  0.40638  0.20286  0.61324  1.0000
  F   F103      1.0  0.39660  0.70230  0.12982  1.0000
  F   F104      1.0  0.40854  0.69009  0.64212  1.0000
  F   F105      1.0  0.66204  0.18681  0.14764  1.0000
  F   F106      1.0  0.64989  0.18039  0.61383  1.0000
  F   F107      1.0  0.65781  0.69068  0.12981  1.0000
  F   F108      1.0  0.64517  0.69532  0.62440  1.0000
  F   F109      1.0  0.90269  0.20853  0.10952  1.0000
  F   F110      1.0  0.90448  0.19739  0.62080  1.0000
  F   F111      1.0  0.91330  0.69381  0.13371  1.0000
  F   F112      1.0  0.90007  0.69867  0.61521  1.0000
  F   F113      1.0  0.09424  0.29075  0.39934  1.0000
  F   F114      1.0  0.10462  0.30344  0.85389  1.0000
  F   F115      1.0  0.09767  0.79379  0.38629  1.0000
  F   F116      1.0  0.09325  0.79532  0.89167  1.0000
  F   F117      1.0  0.34722  0.31104  0.36217  1.0000
  F   F118      1.0  0.34976  0.31071  0.87844  1.0000
  F   F119      1.0  0.35218  0.79726  0.36014  1.0000
  F   F120      1.0  0.34200  0.81291  0.85236  1.0000
  F   F121      1.0  0.59324  0.30561  0.36302  1.0000
  F   F122      1.0  0.60503  0.30024  0.87536  1.0000
  F   F123      1.0  0.59935  0.79910  0.36437  1.0000
  F   F124      1.0  0.60808  0.78837  0.88297  1.0000
  F   F125      1.0  0.85744  0.29176  0.34872  1.0000
  F   F126      1.0  0.84585  0.30336  0.85396  1.0000
  F   F127      1.0  0.84857  0.80836  0.36230  1.0000
  F   F128      1.0  0.85110  0.79753  0.86562  1.0000
  F   F129      1.0  0.05893  0.25896  0.14866  1.0000
  F   F130      1.0  0.06621  0.24206  0.64686  1.0000
  F   F131      1.0  0.05838  0.74056  0.15380  1.0000
  F   F132      1.0  0.06405  0.74766  0.64938  1.0000
  F   F133      1.0  0.31539  0.25163  0.13900  1.0000
  F   F134      1.0  0.32416  0.24774  0.64007  1.0000
  F   F135      1.0  0.31295  0.74220  0.15759  1.0000
  F   F136      1.0  0.32279  0.75225  0.62088  1.0000
  F   F137      1.0  0.58056  0.25532  0.11070  1.0000
  F   F138      1.0  0.56358  0.25244  0.64299  1.0000
  F   F139      1.0  0.57856  0.75837  0.11315  1.0000
  F   F140      1.0  0.55885  0.74944  0.65824  1.0000
  F   F141      1.0  0.81342  0.25373  0.13837  1.0000
  F   F142      1.0  0.81842  0.25170  0.63206  1.0000
  F   F143      1.0  0.83530  0.75911  0.11195  1.0000
  F   F144      1.0  0.82371  0.77630  0.62067  1.0000
  F   F145      1.0  0.12252  0.37269  0.10671  1.0000
  F   F146      1.0  0.11922  0.34145  0.63872  1.0000
  F   F147      1.0  0.12768  0.87520  0.09529  1.0000
  F   F148      1.0  0.12743  0.88159  0.58738  1.0000
  F   F149      1.0  0.36700  0.38062  0.10957  1.0000
  F   F150      1.0  0.37592  0.38277  0.60069  1.0000
  F   F151      1.0  0.37387  0.88452  0.10567  1.0000
  F   F152      1.0  0.37606  0.86323  0.61538  1.0000
  F   F153      1.0  0.62547  0.37460  0.10846  1.0000
  F   F154      1.0  0.62654  0.36263  0.60144  1.0000
  F   F155      1.0  0.62392  0.86120  0.11564  1.0000
  F   F156      1.0  0.62001  0.86644  0.61025  1.0000
  F   F157      1.0  0.87231  0.38354  0.10483  1.0000
  F   F158      1.0  0.87559  0.38719  0.59597  1.0000
  F   F159      1.0  0.87525  0.88019  0.10142  1.0000
  F   F160      1.0  0.87920  0.88763  0.61390  1.0000
  F   F161      1.0  0.17847  0.24363  0.35519  1.0000
  F   F162      1.0  0.18638  0.24056  0.86412  1.0000
  F   F163      1.0  0.18572  0.74904  0.35748  1.0000
  F   F164      1.0  0.17832  0.74103  0.86696  1.0000
  F   F165      1.0  0.43890  0.24511  0.34716  1.0000
  F   F166      1.0  0.43711  0.25739  0.85069  1.0000
  F   F167      1.0  0.42769  0.74246  0.37740  1.0000
  F   F168      1.0  0.41667  0.74744  0.89875  1.0000
  F   F169      1.0  0.67183  0.24697  0.37547  1.0000
  F   F170      1.0  0.68863  0.25369  0.84926  1.0000
  F   F171      1.0  0.68051  0.75716  0.36607  1.0000
  F   F172      1.0  0.69278  0.75231  0.82293  1.0000
  F   F173      1.0  0.93833  0.24689  0.35620  1.0000
  F   F174      1.0  0.93407  0.24783  0.85731  1.0000
  F   F175      1.0  0.92652  0.73879  0.38547  1.0000
  F   F176      1.0  0.93522  0.75630  0.86300  1.0000
  F   F177      1.0  0.12257  0.12161  0.38897  1.0000
  F   F178      1.0  0.12272  0.12019  0.90831  1.0000
  F   F179      1.0  0.12886  0.62537  0.39496  1.0000
  F   F180      1.0  0.12306  0.62168  0.89844  1.0000
  F   F181      1.0  0.37726  0.13459  0.37986  1.0000
  F   F182      1.0  0.37725  0.13491  0.89049  1.0000
  F   F183      1.0  0.37908  0.62974  0.40211  1.0000
  F   F184      1.0  0.37515  0.63541  0.88462  1.0000
  F   F185      1.0  0.62568  0.14983  0.35724  1.0000
  F   F186      1.0  0.62734  0.12511  0.89440  1.0000
  F   F187      1.0  0.62591  0.63042  0.38917  1.0000
  F   F188      1.0  0.62224  0.61536  0.90045  1.0000
  F   F189      1.0  0.87469  0.10934  0.40808  1.0000
  F   F190      1.0  0.87853  0.12671  0.88131  1.0000
  F   F191      1.0  0.87113  0.61163  0.40890  1.0000
  F   F192      1.0  0.88329  0.62606  0.88895  1.0000
  F   F193      1.0  0.00427  0.36257  0.06289  1.0000
  F   F194      1.0  0.01083  0.35437  0.58389  1.0000
  F   F195      1.0  0.00715  0.86429  0.07362  1.0000
  F   F196      1.0  0.01169  0.86482  0.57109  1.0000
  F   F197      1.0  0.25646  0.34489  0.07531  1.0000
  F   F198      1.0  0.26137  0.34334  0.58061  1.0000
  F   F199      1.0  0.25260  0.85091  0.09939  1.0000
  F   F200      1.0  0.26127  0.85957  0.56765  1.0000
  F   F201      1.0  0.50830  0.35163  0.08922  1.0000
  F   F202      1.0  0.50764  0.37330  0.56543  1.0000
  F   F203      1.0  0.50882  0.86362  0.07276  1.0000
  F   F204      1.0  0.51067  0.85900  0.57100  1.0000
  F   F205      1.0  0.75523  0.36669  0.07582  1.0000
  F   F206      1.0  0.75103  0.34536  0.60448  1.0000
  F   F207      1.0  0.76283  0.86190  0.05798  1.0000
  F   F208      1.0  0.75854  0.87911  0.56332  1.0000
  F   F209      1.0  0.07001  0.48715  0.17518  1.0000
  F   F210      1.0  0.07670  0.48493  0.66545  1.0000
  F   F211      1.0  0.06599  0.99137  0.16612  1.0000
  F   F212      1.0  0.07235  0.98185  0.66736  1.0000
  F   F213      1.0  0.30453  0.49719  0.18058  1.0000
  F   F214      1.0  0.31900  0.48325  0.68223  1.0000
  F   F215      1.0  0.31321  0.99648  0.18734  1.0000
  F   F216      1.0  0.31833  0.98698  0.67641  1.0000
  F   F217      1.0  0.56902  0.48024  0.18422  1.0000
  F   F218      1.0  0.57379  0.48410  0.66512  1.0000
  F   F219      1.0  0.57095  0.98859  0.16434  1.0000
  F   F220      1.0  0.56630  0.00039  0.66929  1.0000
  F   F221      1.0  0.81033  0.50614  0.16514  1.0000
  F   F222      1.0  0.81723  0.49202  0.67172  1.0000
  F   F223      1.0  0.82157  0.98884  0.15908  1.0000
  F   F224      1.0  0.81312  0.99526  0.68000  1.0000
  F   F225      1.0  0.23415  0.13100  0.45252  1.0000
  F   F226      1.0  0.24324  0.12663  0.92956  1.0000
  F   F227      1.0  0.24563  0.63020  0.42820  1.0000
  F   F228      1.0  0.23915  0.64983  0.91741  1.0000
  F   F229      1.0  0.49161  0.12986  0.42252  1.0000
  F   F230      1.0  0.49187  0.14848  0.92916  1.0000
  F   F231      1.0  0.49296  0.62395  0.43121  1.0000
  F   F232      1.0  0.48615  0.65573  0.91629  1.0000
  F   F233      1.0  0.74179  0.14137  0.42106  1.0000
  F   F234      1.0  0.74347  0.13577  0.92512  1.0000
  F   F235      1.0  0.74005  0.64715  0.42853  1.0000
  F   F236      1.0  0.74645  0.66068  0.90150  1.0000
  F   F237      1.0  0.99455  0.13441  0.41588  1.0000
  F   F238      1.0  0.99006  0.11476  0.93742  1.0000
  F   F239      1.0  0.99209  0.63565  0.42857  1.0000
  F   F240      1.0  0.98609  0.63475  0.94072  1.0000
  F   F241      1.0  0.17370  0.01044  0.34724  1.0000
  F   F242      1.0  0.17741  0.01365  0.83197  1.0000
  F   F243      1.0  0.18007  0.49901  0.34733  1.0000
  F   F244      1.0  0.18198  0.52221  0.81930  1.0000
  F   F245      1.0  0.43486  0.00801  0.33104  1.0000
  F   F246      1.0  0.43353  0.02348  0.82499  1.0000
  F   F247      1.0  0.43081  0.50652  0.32718  1.0000
  F   F248      1.0  0.43665  0.50345  0.83460  1.0000
  F   F249      1.0  0.67749  0.02301  0.32061  1.0000
  F   F250      1.0  0.67532  0.02524  0.81433  1.0000
  F   F251      1.0  0.68322  0.51729  0.32822  1.0000
  F   F252      1.0  0.69003  0.51262  0.82458  1.0000
  F   F253      1.0  0.93103  0.01642  0.31651  1.0000
  F   F254      1.0  0.93309  0.00936  0.82023  1.0000
  F   F255      1.0  0.92989  0.50938  0.32596  1.0000
  F   F256      1.0  0.93956  0.51881  0.80245  1.0000
  F   F257      1.0  0.99423  0.23238  0.01755  1.0000
  F   F258      1.0  0.00308  0.25316  0.48623  1.0000
  F   F259      1.0  0.99561  0.74307  0.01199  1.0000
  F   F260      1.0  0.99835  0.75435  0.49793  1.0000
  F   F261      1.0  0.23809  0.23724  0.01393  1.0000
  F   F262      1.0  0.24866  0.26338  0.47551  1.0000
  F   F263      1.0  0.25141  0.76208  0.99651  1.0000
  F   F264      1.0  0.25584  0.74592  0.50518  1.0000
  F   F265      1.0  0.50296  0.26782  0.98475  1.0000
  F   F266      1.0  0.49948  0.24934  0.50201  1.0000
  F   F267      1.0  0.49800  0.76108  0.00344  1.0000
  F   F268      1.0  0.49753  0.73810  0.50900  1.0000
  F   F269      1.0  0.75029  0.24539  0.00066  1.0000
  F   F270      1.0  0.74715  0.25233  0.51247  1.0000
  F   F271      1.0  0.74852  0.74702  0.99995  1.0000
  F   F272      1.0  0.75574  0.76088  0.49040  1.0000
  F   F273      1.0  0.12083  0.98546  0.25126  1.0000
  F   F274      1.0  0.12314  0.98896  0.75631  1.0000
  F   F275      1.0  0.12526  0.49086  0.25793  1.0000
  F   F276      1.0  0.12852  0.50591  0.74148  1.0000
  F   F277      1.0  0.37892  0.00072  0.24637  1.0000
  F   F278      1.0  0.37297  0.99537  0.76078  1.0000
  F   F279      1.0  0.37339  0.49897  0.24772  1.0000
  F   F280      1.0  0.36741  0.50068  0.77136  1.0000
  F   F281      1.0  0.62423  0.00303  0.24356  1.0000
  F   F282      1.0  0.62390  0.99611  0.74488  1.0000
  F   F283      1.0  0.62492  0.50939  0.25580  1.0000
  F   F284      1.0  0.62238  0.51053  0.74684  1.0000
  F   F285      1.0  0.87173  0.00583  0.25147  1.0000
  F   F286      1.0  0.87265  0.00824  0.74123  1.0000
  F   F287      1.0  0.87033  0.49687  0.25597  1.0000
  F   F288      1.0  0.87587  0.49522  0.74780  1.0000
  F   F289      1.0  0.03950  0.04821  0.03313  1.0000
  F   F290      1.0  0.04290  0.02661  0.50810  1.0000
  F   F291      1.0  0.04052  0.53633  0.02731  1.0000
  F   F292      1.0  0.04129  0.53248  0.53040  1.0000
  F   F293      1.0  0.30329  0.01826  0.01527  1.0000
  F   F294      1.0  0.29662  0.02811  0.52275  1.0000
  F   F295      1.0  0.29201  0.53481  0.01276  1.0000
  F   F296      1.0  0.30332  0.51531  0.52337  1.0000
  F   F297      1.0  0.54549  0.02906  0.01734  1.0000
  F   F298      1.0  0.55198  0.03254  0.51752  1.0000
  F   F299      1.0  0.53637  0.53641  0.02518  1.0000
  F   F300      1.0  0.54654  0.53928  0.51360  1.0000
  F   F301      1.0  0.79211  0.02704  0.01694  1.0000
  F   F302      1.0  0.78643  0.04516  0.52408  1.0000
  F   F303      1.0  0.79172  0.53404  0.01636  1.0000
  F   F304      1.0  0.79159  0.52901  0.51352  1.0000
  F   F305      1.0  0.23214  0.41821  0.22427  1.0000
  F   F306      1.0  0.23431  0.41555  0.72607  1.0000
  F   F307      1.0  0.23132  0.91763  0.21642  1.0000
  F   F308      1.0  0.23013  0.92634  0.70709  1.0000
  F   F309      1.0  0.48460  0.42744  0.20640  1.0000
  F   F310      1.0  0.48829  0.40965  0.72469  1.0000
  F   F311      1.0  0.48490  0.92814  0.21311  1.0000
  F   F312      1.0  0.48912  0.91829  0.72204  1.0000
  F   F313      1.0  0.72842  0.41900  0.22577  1.0000
  F   F314      1.0  0.73600  0.41775  0.71759  1.0000
  F   F315      1.0  0.73380  0.92447  0.21967  1.0000
  F   F316      1.0  0.73194  0.91684  0.72493  1.0000
  F   F317      1.0  0.98338  0.41091  0.23390  1.0000
  F   F318      1.0  0.98381  0.40570  0.72917  1.0000
  F   F319      1.0  0.98154  0.89696  0.24661  1.0000
  F   F320      1.0  0.99221  0.91723  0.72321  1.0000
  F   F321      1.0  0.20429  0.46095  0.49262  1.0000
  F   F322      1.0  0.20902  0.47583  0.96242  1.0000
  F   F323      1.0  0.21546  0.96342  0.48219  1.0000
  F   F324      1.0  0.20950  0.96329  0.98492  1.0000
  F   F325      1.0  0.45464  0.47615  0.48196  1.0000
  F   F326      1.0  0.45414  0.46508  0.99060  1.0000
  F   F327      1.0  0.44867  0.97258  0.48480  1.0000
  F   F328      1.0  0.45582  0.98114  0.98564  1.0000
  F   F329      1.0  0.71469  0.47421  0.46776  1.0000
  F   F330      1.0  0.70309  0.48069  0.98251  1.0000
  F   F331      1.0  0.70454  0.97337  0.48011  1.0000
  F   F332      1.0  0.70651  0.97388  0.97578  1.0000
  F   F333      1.0  0.96236  0.45637  0.47712  1.0000
  F   F334      1.0  0.94986  0.47431  0.98239  1.0000
  F   F335      1.0  0.96159  0.96404  0.48584  1.0000
  F   F336      1.0  0.95731  0.96670  0.96656  1.0000
  F   F337      1.0  0.01536  0.07533  0.27419  1.0000
  F   F338      1.0  0.01497  0.07540  0.77640  1.0000
  F   F339      1.0  0.01696  0.57001  0.28653  1.0000
  F   F340      1.0  0.01585  0.57478  0.77559  1.0000
  F   F341      1.0  0.26103  0.08721  0.28051  1.0000
  F   F342      1.0  0.26296  0.07835  0.77846  1.0000
  F   F343      1.0  0.26678  0.58690  0.28964  1.0000
  F   F344      1.0  0.27039  0.60255  0.75534  1.0000
  F   F345      1.0  0.51456  0.07012  0.27999  1.0000
  F   F346      1.0  0.51469  0.09623  0.76998  1.0000
  F   F347      1.0  0.51911  0.59392  0.25570  1.0000
  F   F348      1.0  0.51607  0.57542  0.78996  1.0000
  F   F349      1.0  0.76950  0.07141  0.28653  1.0000
  F   F350      1.0  0.75977  0.11560  0.74810  1.0000
  F   F351      1.0  0.76471  0.60151  0.26995  1.0000
  F   F352      1.0  0.76942  0.60080  0.77079  1.0000
  F   F353      1.0  0.10183  0.41164  0.47179  1.0000
  F   F354      1.0  0.09779  0.40401  0.96017  1.0000
  F   F355      1.0  0.10365  0.89868  0.45517  1.0000
  F   F356      1.0  0.09780  0.90319  0.97517  1.0000
  F   F357      1.0  0.36049  0.38259  0.46155  1.0000
  F   F358      1.0  0.34469  0.40531  0.97615  1.0000
  F   F359      1.0  0.35367  0.90910  0.45604  1.0000
  F   F360      1.0  0.35315  0.88381  0.96840  1.0000
  F   F361      1.0  0.60224  0.39959  0.46473  1.0000
  F   F362      1.0  0.60358  0.41698  0.96552  1.0000
  F   F363      1.0  0.60362  0.89592  0.45865  1.0000
  F   F364      1.0  0.60354  0.90963  0.95951  1.0000
  F   F365      1.0  0.84733  0.40285  0.45970  1.0000
  F   F366      1.0  0.85545  0.37906  0.96660  1.0000
  F   F367      1.0  0.85119  0.92110  0.45064  1.0000
  F   F368      1.0  0.85328  0.90667  0.95064  1.0000
  F   F369      1.0  0.04792  0.30274  0.29087  1.0000
  F   F370      1.0  0.03557  0.28380  0.80555  1.0000
  F   F371      1.0  0.05397  0.80577  0.28013  1.0000
  F   F372      1.0  0.04363  0.79080  0.80395  1.0000
  F   F373      1.0  0.29235  0.28771  0.28447  1.0000
  F   F374      1.0  0.30000  0.27836  0.79632  1.0000
  F   F375      1.0  0.29305  0.79920  0.29165  1.0000
  F   F376      1.0  0.28082  0.79808  0.77985  1.0000
  F   F377      1.0  0.54189  0.29583  0.27882  1.0000
  F   F378      1.0  0.55369  0.29723  0.77872  1.0000
  F   F379      1.0  0.53372  0.79255  0.29419  1.0000
  F   F380      1.0  0.54690  0.80973  0.79478  1.0000
  F   F381      1.0  0.78688  0.31460  0.29092  1.0000
  F   F382      1.0  0.79309  0.28753  0.78540  1.0000
  F   F383      1.0  0.79572  0.79439  0.28319  1.0000
  F   F384      1.0  0.79598  0.80282  0.77924  1.0000
