data_image0
_chemical_formula_structural       Hf96F384
_chemical_formula_sum              "Hf96 F384"
_cell_length_a       31.0306
_cell_length_b       15.5167
_cell_length_c       15.5086
_cell_angle_alpha    63.342
_cell_angle_beta     63.342
_cell_angle_gamma    80.1625

_space_group_name_H-M_alt    "P 1"
_space_group_IT_number       1

loop_
  _space_group_symop_operation_xyz
  'x, y, z'

loop_
  _atom_site_type_symbol
  _atom_site_label
  _atom_site_symmetry_multiplicity
  _atom_site_fract_x
  _atom_site_fract_y
  _atom_site_fract_z
  _atom_site_occupancy
  Hf  Hf1       1.0  0.19752  0.10717  0.37449  1.0000
  Hf  Hf2       1.0  0.19598  0.10576  0.87401  1.0000
  Hf  Hf3       1.0  0.19811  0.60721  0.37246  1.0000
  Hf  Hf4       1.0  0.19501  0.61297  0.87494  1.0000
  Hf  Hf5       1.0  0.44787  0.10944  0.37495  1.0000
  Hf  Hf6       1.0  0.44679  0.10071  0.88181  1.0000
  Hf  Hf7       1.0  0.44677  0.61625  0.37931  1.0000
  Hf  Hf8       1.0  0.44724  0.61091  0.86689  1.0000
  Hf  Hf9       1.0  0.69888  0.10523  0.37261  1.0000
  Hf  Hf10      1.0  0.69775  0.10978  0.86815  1.0000
  Hf  Hf11      1.0  0.69461  0.60511  0.37606  1.0000
  Hf  Hf12      1.0  0.69774  0.61157  0.86587  1.0000
  Hf  Hf13      1.0  0.94455  0.10445  0.37322  1.0000
  Hf  Hf14      1.0  0.94942  0.10573  0.87010  1.0000
  Hf  Hf15      1.0  0.95070  0.61085  0.36507  1.0000
  Hf  Hf16      1.0  0.94144  0.60820  0.87755  1.0000
  Hf  Hf17      1.0  0.05446  0.39109  0.11644  1.0000
  Hf  Hf18      1.0  0.05342  0.38986  0.62524  1.0000
  Hf  Hf19      1.0  0.05287  0.89133  0.12861  1.0000
  Hf  Hf20      1.0  0.05600  0.88827  0.62652  1.0000
  Hf  Hf21      1.0  0.30196  0.39653  0.12197  1.0000
  Hf  Hf22      1.0  0.30534  0.39353  0.62471  1.0000
  Hf  Hf23      1.0  0.30420  0.89191  0.12396  1.0000
  Hf  Hf24      1.0  0.30119  0.89472  0.63245  1.0000
  Hf  Hf25      1.0  0.55961  0.39497  0.11956  1.0000
  Hf  Hf26      1.0  0.55248  0.39549  0.61725  1.0000
  Hf  Hf27      1.0  0.55039  0.89741  0.13073  1.0000
  Hf  Hf28      1.0  0.55419  0.89202  0.63097  1.0000
  Hf  Hf29      1.0  0.80231  0.38914  0.12307  1.0000
  Hf  Hf30      1.0  0.80337  0.38725  0.62771  1.0000
  Hf  Hf31      1.0  0.80423  0.89246  0.12088  1.0000
  Hf  Hf32      1.0  0.80130  0.88420  0.63331  1.0000
  Hf  Hf33      1.0  0.05447  0.17624  0.41597  1.0000
  Hf  Hf34      1.0  0.05714  0.17399  0.91791  1.0000
  Hf  Hf35      1.0  0.05692  0.67923  0.41612  1.0000
  Hf  Hf36      1.0  0.05512  0.67997  0.92043  1.0000
  Hf  Hf37      1.0  0.30567  0.18327  0.41343  1.0000
  Hf  Hf38      1.0  0.30490  0.17574  0.91933  1.0000
  Hf  Hf39      1.0  0.30476  0.68368  0.41993  1.0000
  Hf  Hf40      1.0  0.30481  0.67818  0.92834  1.0000
  Hf  Hf41      1.0  0.55914  0.18569  0.41500  1.0000
  Hf  Hf42      1.0  0.55760  0.19014  0.91478  1.0000
  Hf  Hf43      1.0  0.55857  0.68583  0.41461  1.0000
  Hf  Hf44      1.0  0.55340  0.68552  0.91616  1.0000
  Hf  Hf45      1.0  0.80556  0.17935  0.41516  1.0000
  Hf  Hf46      1.0  0.80830  0.17663  0.92149  1.0000
  Hf  Hf47      1.0  0.80450  0.68545  0.41441  1.0000
  Hf  Hf48      1.0  0.80633  0.69213  0.91853  1.0000
  Hf  Hf49      1.0  0.15723  0.38027  0.33965  1.0000
  Hf  Hf50      1.0  0.16023  0.38936  0.83218  1.0000
  Hf  Hf51      1.0  0.15600  0.88760  0.33142  1.0000
  Hf  Hf52      1.0  0.15720  0.88829  0.83863  1.0000
  Hf  Hf53      1.0  0.41216  0.38695  0.33683  1.0000
  Hf  Hf54      1.0  0.40789  0.38414  0.83447  1.0000
  Hf  Hf55      1.0  0.40576  0.89275  0.33340  1.0000
  Hf  Hf56      1.0  0.40802  0.88554  0.83944  1.0000
  Hf  Hf57      1.0  0.65932  0.39779  0.32622  1.0000
  Hf  Hf58      1.0  0.66100  0.38998  0.82597  1.0000
  Hf  Hf59      1.0  0.66076  0.88955  0.33631  1.0000
  Hf  Hf60      1.0  0.65545  0.89051  0.83836  1.0000
  Hf  Hf61      1.0  0.90988  0.38390  0.33106  1.0000
  Hf  Hf62      1.0  0.91047  0.39413  0.82959  1.0000
  Hf  Hf63      1.0  0.90394  0.88186  0.33850  1.0000
  Hf  Hf64      1.0  0.90914  0.88579  0.83344  1.0000
  Hf  Hf65      1.0  0.19511  0.31210  0.08415  1.0000
  Hf  Hf66      1.0  0.19262  0.30389  0.58959  1.0000
  Hf  Hf67      1.0  0.19202  0.81858  0.08703  1.0000
  Hf  Hf68      1.0  0.19325  0.81922  0.58163  1.0000
  Hf  Hf69      1.0  0.44662  0.32118  0.08011  1.0000
  Hf  Hf70      1.0  0.44345  0.30939  0.59402  1.0000
  Hf  Hf71      1.0  0.44221  0.81759  0.08961  1.0000
  Hf  Hf72      1.0  0.44274  0.82945  0.57852  1.0000
  Hf  Hf73      1.0  0.69615  0.31763  0.08223  1.0000
  Hf  Hf74      1.0  0.69560  0.31336  0.57768  1.0000
  Hf  Hf75      1.0  0.69170  0.81857  0.08200  1.0000
  Hf  Hf76      1.0  0.69511  0.81210  0.59082  1.0000
  Hf  Hf77      1.0  0.94282  0.31461  0.08541  1.0000
  Hf  Hf78      1.0  0.94427  0.32055  0.58171  1.0000
  Hf  Hf79      1.0  0.94321  0.81873  0.08506  1.0000
  Hf  Hf80      1.0  0.94633  0.82031  0.57808  1.0000
  Hf  Hf81      1.0  0.09061  0.10738  0.16626  1.0000
  Hf  Hf82      1.0  0.09619  0.10995  0.65746  1.0000
  Hf  Hf83      1.0  0.08987  0.61408  0.16935  1.0000
  Hf  Hf84      1.0  0.08985  0.61629  0.66270  1.0000
  Hf  Hf85      1.0  0.34163  0.11697  0.16535  1.0000
  Hf  Hf86      1.0  0.34173  0.11101  0.66486  1.0000
  Hf  Hf87      1.0  0.34313  0.61649  0.16551  1.0000
  Hf  Hf88      1.0  0.33999  0.61798  0.66863  1.0000
  Hf  Hf89      1.0  0.59501  0.11370  0.16281  1.0000
  Hf  Hf90      1.0  0.59109  0.11523  0.66466  1.0000
  Hf  Hf91      1.0  0.59381  0.62334  0.15446  1.0000
  Hf  Hf92      1.0  0.59357  0.60949  0.66489  1.0000
  Hf  Hf93      1.0  0.83947  0.10779  0.16536  1.0000
  Hf  Hf94      1.0  0.84089  0.11204  0.66756  1.0000
  Hf  Hf95      1.0  0.83883  0.60716  0.17857  1.0000
  Hf  Hf96      1.0  0.84062  0.60874  0.66917  1.0000
  F   F1        1.0  0.07861  0.11291  0.30450  1.0000
  F   F2        1.0  0.07685  0.11799  0.80926  1.0000
  F   F3        1.0  0.08209  0.61567  0.30284  1.0000
  F   F4        1.0  0.07105  0.60976  0.81400  1.0000
  F   F5        1.0  0.32791  0.12903  0.30140  1.0000
  F   F6        1.0  0.33286  0.12333  0.80651  1.0000
  F   F7        1.0  0.33246  0.63178  0.30405  1.0000
  F   F8        1.0  0.33162  0.63681  0.79668  1.0000
  F   F9        1.0  0.57872  0.13137  0.30547  1.0000
  F   F10       1.0  0.58037  0.14114  0.80048  1.0000
  F   F11       1.0  0.58098  0.63723  0.29662  1.0000
  F   F12       1.0  0.58127  0.63566  0.80350  1.0000
  F   F13       1.0  0.82697  0.13457  0.29905  1.0000
  F   F14       1.0  0.83230  0.13307  0.79479  1.0000
  F   F15       1.0  0.82932  0.62110  0.30942  1.0000
  F   F16       1.0  0.83156  0.63194  0.80782  1.0000
  F   F17       1.0  0.19689  0.35143  0.43383  1.0000
  F   F18       1.0  0.18859  0.33308  0.94405  1.0000
  F   F19       1.0  0.18164  0.82642  0.45029  1.0000
  F   F20       1.0  0.17568  0.82177  0.96077  1.0000
  F   F21       1.0  0.43512  0.34017  0.45658  1.0000
  F   F22       1.0  0.43966  0.36454  0.94672  1.0000
  F   F23       1.0  0.43714  0.84737  0.44243  1.0000
  F   F24       1.0  0.42469  0.84617  0.96231  1.0000
  F   F25       1.0  0.68496  0.33996  0.44623  1.0000
  F   F26       1.0  0.68388  0.34602  0.94093  1.0000
  F   F27       1.0  0.69278  0.85151  0.43782  1.0000
  F   F28       1.0  0.68657  0.85249  0.94562  1.0000
  F   F29       1.0  0.93294  0.33506  0.44741  1.0000
  F   F30       1.0  0.93816  0.33586  0.94285  1.0000
  F   F31       1.0  0.93469  0.84390  0.44591  1.0000
  F   F32       1.0  0.93437  0.83528  0.94922  1.0000
  F   F33       1.0  0.17288  0.36695  0.19357  1.0000
  F   F34       1.0  0.16411  0.34912  0.71460  1.0000
  F   F35       1.0  0.16983  0.87422  0.19668  1.0000
  F   F36       1.0  0.16650  0.86535  0.69811  1.0000
  F   F37       1.0  0.41690  0.37036  0.19876  1.0000
  F   F38       1.0  0.42161  0.37610  0.70102  1.0000
  F   F39       1.0  0.41736  0.86761  0.20172  1.0000
  F   F40       1.0  0.41571  0.84583  0.71704  1.0000
  F   F41       1.0  0.67250  0.37669  0.19234  1.0000
  F   F42       1.0  0.67331  0.37571  0.68384  1.0000
  F   F43       1.0  0.67180  0.87021  0.18985  1.0000
  F   F44       1.0  0.67341  0.86998  0.70229  1.0000
  F   F45       1.0  0.92773  0.38277  0.18099  1.0000
  F   F46       1.0  0.92095  0.37034  0.70078  1.0000
  F   F47       1.0  0.91447  0.86136  0.20410  1.0000
  F   F48       1.0  0.92398  0.89420  0.68126  1.0000
  F   F49       1.0  0.06991  0.15493  0.05152  1.0000
  F   F50       1.0  0.07086  0.14199  0.54509  1.0000
  F   F51       1.0  0.06023  0.65513  0.05963  1.0000
  F   F52       1.0  0.06370  0.66963  0.54869  1.0000
  F   F53       1.0  0.31231  0.16735  0.05657  1.0000
  F   F54       1.0  0.31257  0.16259  0.55136  1.0000
  F   F55       1.0  0.30589  0.64809  0.07516  1.0000
  F   F56       1.0  0.31291  0.66400  0.55756  1.0000
  F   F57       1.0  0.56618  0.16382  0.05055  1.0000
  F   F58       1.0  0.56339  0.15326  0.55950  1.0000
  F   F59       1.0  0.56290  0.66625  0.05651  1.0000
  F   F60       1.0  0.56103  0.66109  0.55667  1.0000
  F   F61       1.0  0.80809  0.14146  0.06131  1.0000
  F   F62       1.0  0.80719  0.15485  0.55458  1.0000
  F   F63       1.0  0.81008  0.64292  0.07153  1.0000
  F   F64       1.0  0.80800  0.65775  0.56198  1.0000
  F   F65       1.0  0.20977  0.20803  0.21498  1.0000
  F   F66       1.0  0.20596  0.19102  0.70349  1.0000
  F   F67       1.0  0.20369  0.69620  0.21088  1.0000
  F   F68       1.0  0.20299  0.69373  0.71269  1.0000
  F   F69       1.0  0.45117  0.19118  0.22905  1.0000
  F   F70       1.0  0.45410  0.19827  0.71943  1.0000
  F   F71       1.0  0.44419  0.69797  0.22087  1.0000
  F   F72       1.0  0.46178  0.70471  0.71259  1.0000
  F   F73       1.0  0.70280  0.21253  0.21130  1.0000
  F   F74       1.0  0.70348  0.19976  0.70443  1.0000
  F   F75       1.0  0.70101  0.70567  0.21258  1.0000
  F   F76       1.0  0.70376  0.69526  0.70764  1.0000
  F   F77       1.0  0.95335  0.20073  0.21415  1.0000
  F   F78       1.0  0.95746  0.20969  0.71055  1.0000
  F   F79       1.0  0.96115  0.69340  0.21852  1.0000
  F   F80       1.0  0.93966  0.70321  0.71725  1.0000
  F   F81       1.0  0.14592  0.07073  0.04278  1.0000
  F   F82       1.0  0.15352  0.08008  0.53514  1.0000
  F   F83       1.0  0.14412  0.60170  0.03137  1.0000
  F   F84       1.0  0.14802  0.60238  0.53507  1.0000
  F   F85       1.0  0.40024  0.09126  0.04041  1.0000
  F   F86       1.0  0.39243  0.08230  0.54628  1.0000
  F   F87       1.0  0.39631  0.59854  0.03804  1.0000
  F   F88       1.0  0.39809  0.61760  0.53791  1.0000
  F   F89       1.0  0.64697  0.10454  0.02266  1.0000
  F   F90       1.0  0.64595  0.08875  0.53228  1.0000
  F   F91       1.0  0.64820  0.59899  0.01634  1.0000
  F   F92       1.0  0.65376  0.60017  0.53343  1.0000
  F   F93       1.0  0.89748  0.09375  0.02699  1.0000
  F   F94       1.0  0.89148  0.08836  0.54254  1.0000
  F   F95       1.0  0.89566  0.60837  0.04298  1.0000
  F   F96       1.0  0.89989  0.58615  0.54988  1.0000
  F   F97       1.0  0.15246  0.19280  0.11865  1.0000
  F   F98       1.0  0.14993  0.20308  0.60372  1.0000
  F   F99       1.0  0.14748  0.69477  0.12888  1.0000
  F   F100      1.0  0.14334  0.71237  0.63691  1.0000
  F   F101      1.0  0.40208  0.21173  0.10772  1.0000
  F   F102      1.0  0.40174  0.18261  0.62751  1.0000
  F   F103      1.0  0.40286  0.69893  0.12082  1.0000
  F   F104      1.0  0.40911  0.70164  0.62565  1.0000
  F   F105      1.0  0.65180  0.19287  0.13711  1.0000
  F   F106      1.0  0.65634  0.19814  0.62293  1.0000
  F   F107      1.0  0.65432  0.69588  0.11413  1.0000
  F   F108      1.0  0.64731  0.70689  0.62153  1.0000
  F   F109      1.0  0.90359  0.19084  0.13789  1.0000
  F   F110      1.0  0.90056  0.20628  0.62069  1.0000
  F   F111      1.0  0.91135  0.69279  0.13754  1.0000
  F   F112      1.0  0.89427  0.69848  0.61578  1.0000
  F   F113      1.0  0.09567  0.31094  0.38121  1.0000
  F   F114      1.0  0.09913  0.28740  0.88713  1.0000
  F   F115      1.0  0.10295  0.79189  0.36572  1.0000
  F   F116      1.0  0.10048  0.80368  0.89470  1.0000
  F   F117      1.0  0.34856  0.30073  0.39173  1.0000
  F   F118      1.0  0.34802  0.30417  0.86799  1.0000
  F   F119      1.0  0.34356  0.80926  0.37862  1.0000
  F   F120      1.0  0.34621  0.79595  0.89970  1.0000
  F   F121      1.0  0.59919  0.30112  0.36938  1.0000
  F   F122      1.0  0.59802  0.30886  0.87279  1.0000
  F   F123      1.0  0.59596  0.80825  0.37111  1.0000
  F   F124      1.0  0.59352  0.82633  0.87576  1.0000
  F   F125      1.0  0.84645  0.29908  0.35836  1.0000
  F   F126      1.0  0.84617  0.28459  0.88363  1.0000
  F   F127      1.0  0.84701  0.79572  0.38189  1.0000
  F   F128      1.0  0.85161  0.80393  0.85902  1.0000
  F   F129      1.0  0.06046  0.24935  0.14937  1.0000
  F   F130      1.0  0.07183  0.24950  0.61744  1.0000
  F   F131      1.0  0.05451  0.75096  0.15397  1.0000
  F   F132      1.0  0.05798  0.75230  0.65549  1.0000
  F   F133      1.0  0.31061  0.25535  0.14370  1.0000
  F   F134      1.0  0.32349  0.25464  0.62600  1.0000
  F   F135      1.0  0.31991  0.75217  0.13315  1.0000
  F   F136      1.0  0.31948  0.75022  0.64207  1.0000
  F   F137      1.0  0.57415  0.25419  0.13379  1.0000
  F   F138      1.0  0.56858  0.25614  0.63833  1.0000
  F   F139      1.0  0.57767  0.76279  0.12586  1.0000
  F   F140      1.0  0.55859  0.75207  0.64676  1.0000
  F   F141      1.0  0.82185  0.25100  0.11676  1.0000
  F   F142      1.0  0.81877  0.25425  0.63001  1.0000
  F   F143      1.0  0.82087  0.74362  0.14940  1.0000
  F   F144      1.0  0.80396  0.73781  0.67352  1.0000
  F   F145      1.0  0.12276  0.36677  0.10777  1.0000
  F   F146      1.0  0.12462  0.36009  0.61235  1.0000
  F   F147      1.0  0.12884  0.87272  0.10494  1.0000
  F   F148      1.0  0.12822  0.89832  0.57888  1.0000
  F   F149      1.0  0.37568  0.37760  0.10670  1.0000
  F   F150      1.0  0.37222  0.36154  0.62356  1.0000
  F   F151      1.0  0.37429  0.87012  0.11405  1.0000
  F   F152      1.0  0.37664  0.87801  0.60194  1.0000
  F   F153      1.0  0.62806  0.37562  0.10366  1.0000
  F   F154      1.0  0.62260  0.38802  0.58826  1.0000
  F   F155      1.0  0.62393  0.89094  0.09955  1.0000
  F   F156      1.0  0.62273  0.87186  0.61734  1.0000
  F   F157      1.0  0.87408  0.35466  0.12072  1.0000
  F   F158      1.0  0.87518  0.37036  0.59736  1.0000
  F   F159      1.0  0.87296  0.86425  0.11349  1.0000
  F   F160      1.0  0.87038  0.85224  0.62160  1.0000
  F   F161      1.0  0.18253  0.24315  0.37385  1.0000
  F   F162      1.0  0.19094  0.24551  0.84773  1.0000
  F   F163      1.0  0.18745  0.74260  0.35384  1.0000
  F   F164      1.0  0.19302  0.75390  0.83985  1.0000
  F   F165      1.0  0.43677  0.25071  0.36514  1.0000
  F   F166      1.0  0.43163  0.24357  0.87951  1.0000
  F   F167      1.0  0.43228  0.75810  0.35452  1.0000
  F   F168      1.0  0.43512  0.74378  0.86627  1.0000
  F   F169      1.0  0.68191  0.25154  0.35754  1.0000
  F   F170      1.0  0.69289  0.25410  0.84595  1.0000
  F   F171      1.0  0.68062  0.75704  0.35170  1.0000
  F   F172      1.0  0.68311  0.75684  0.85672  1.0000
  F   F173      1.0  0.92831  0.23910  0.36456  1.0000
  F   F174      1.0  0.92810  0.25128  0.86840  1.0000
  F   F175      1.0  0.93723  0.75068  0.36321  1.0000
  F   F176      1.0  0.93984  0.75567  0.84482  1.0000
  F   F177      1.0  0.12701  0.15139  0.36945  1.0000
  F   F178      1.0  0.12823  0.13236  0.88116  1.0000
  F   F179      1.0  0.12124  0.61460  0.40816  1.0000
  F   F180      1.0  0.12442  0.64326  0.87504  1.0000
  F   F181      1.0  0.37393  0.13463  0.39652  1.0000
  F   F182      1.0  0.37404  0.12653  0.90099  1.0000
  F   F183      1.0  0.37287  0.63559  0.40126  1.0000
  F   F184      1.0  0.37661  0.62887  0.89108  1.0000
  F   F185      1.0  0.62600  0.12555  0.38422  1.0000
  F   F186      1.0  0.62674  0.15056  0.87792  1.0000
  F   F187      1.0  0.62383  0.61678  0.40293  1.0000
  F   F188      1.0  0.62791  0.65464  0.87518  1.0000
  F   F189      1.0  0.87321  0.12739  0.38619  1.0000
  F   F190      1.0  0.88052  0.12112  0.88275  1.0000
  F   F191      1.0  0.87490  0.62799  0.40259  1.0000
  F   F192      1.0  0.87451  0.62909  0.90055  1.0000
  F   F193      1.0  0.00410  0.35289  0.08029  1.0000
  F   F194      1.0  0.00606  0.37642  0.57083  1.0000
  F   F195      1.0  0.00494  0.86663  0.08150  1.0000
  F   F196      1.0  0.00583  0.85681  0.57968  1.0000
  F   F197      1.0  0.26094  0.36042  0.06107  1.0000
  F   F198      1.0  0.25865  0.35260  0.57723  1.0000
  F   F199      1.0  0.25500  0.84660  0.09969  1.0000
  F   F200      1.0  0.25431  0.85839  0.58635  1.0000
  F   F201      1.0  0.50920  0.34812  0.07820  1.0000
  F   F202      1.0  0.50349  0.36689  0.57141  1.0000
  F   F203      1.0  0.50429  0.86002  0.08095  1.0000
  F   F204      1.0  0.50873  0.87959  0.56366  1.0000
  F   F205      1.0  0.76208  0.36022  0.05886  1.0000
  F   F206      1.0  0.75624  0.34851  0.58615  1.0000
  F   F207      1.0  0.75973  0.86418  0.07059  1.0000
  F   F208      1.0  0.75477  0.84325  0.58992  1.0000
  F   F209      1.0  0.06903  0.48766  0.16395  1.0000
  F   F210      1.0  0.07233  0.48444  0.67408  1.0000
  F   F211      1.0  0.06514  0.98201  0.17907  1.0000
  F   F212      1.0  0.06785  0.97731  0.69678  1.0000
  F   F213      1.0  0.31902  0.48145  0.16996  1.0000
  F   F214      1.0  0.31704  0.48751  0.67926  1.0000
  F   F215      1.0  0.31902  0.97828  0.17823  1.0000
  F   F216      1.0  0.31266  0.97823  0.69236  1.0000
  F   F217      1.0  0.56925  0.48912  0.18240  1.0000
  F   F218      1.0  0.57211  0.50160  0.65440  1.0000
  F   F219      1.0  0.56895  0.00277  0.16629  1.0000
  F   F220      1.0  0.56084  0.98615  0.69467  1.0000
  F   F221      1.0  0.81751  0.47095  0.18835  1.0000
  F   F222      1.0  0.81826  0.47533  0.67998  1.0000
  F   F223      1.0  0.81410  0.98149  0.17940  1.0000
  F   F224      1.0  0.81079  0.97720  0.67812  1.0000
  F   F225      1.0  0.24582  0.13870  0.41637  1.0000
  F   F226      1.0  0.23870  0.12737  0.93367  1.0000
  F   F227      1.0  0.23736  0.63064  0.43159  1.0000
  F   F228      1.0  0.23919  0.63551  0.93135  1.0000
  F   F229      1.0  0.49434  0.13760  0.42044  1.0000
  F   F230      1.0  0.49168  0.13141  0.93055  1.0000
  F   F231      1.0  0.49329  0.64326  0.42097  1.0000
  F   F232      1.0  0.49362  0.63926  0.92438  1.0000
  F   F233      1.0  0.73767  0.13584  0.43820  1.0000
  F   F234      1.0  0.74323  0.13079  0.93441  1.0000
  F   F235      1.0  0.74519  0.64557  0.40660  1.0000
  F   F236      1.0  0.73980  0.65659  0.91645  1.0000
  F   F237      1.0  0.99034  0.13421  0.42170  1.0000
  F   F238      1.0  0.98908  0.14399  0.91881  1.0000
  F   F239      1.0  0.99644  0.64849  0.40640  1.0000
  F   F240      1.0  0.99169  0.64364  0.91731  1.0000
  F   F241      1.0  0.17848  0.01851  0.33284  1.0000
  F   F242      1.0  0.18459  0.00558  0.83495  1.0000
  F   F243      1.0  0.18915  0.51938  0.31571  1.0000
  F   F244      1.0  0.18160  0.50913  0.83005  1.0000
  F   F245      1.0  0.43014  0.01333  0.32937  1.0000
  F   F246      1.0  0.43652  0.02038  0.81073  1.0000
  F   F247      1.0  0.43117  0.51039  0.33769  1.0000
  F   F248      1.0  0.43109  0.51825  0.82392  1.0000
  F   F249      1.0  0.68429  0.01888  0.32289  1.0000
  F   F250      1.0  0.67905  0.02108  0.82023  1.0000
  F   F251      1.0  0.68284  0.51424  0.32631  1.0000
  F   F252      1.0  0.68134  0.52257  0.81303  1.0000
  F   F253      1.0  0.92931  0.00564  0.33374  1.0000
  F   F254      1.0  0.93278  0.00176  0.82983  1.0000
  F   F255      1.0  0.93684  0.50764  0.32495  1.0000
  F   F256      1.0  0.92910  0.51738  0.83018  1.0000
  F   F257      1.0  0.00546  0.24704  0.99460  1.0000
  F   F258      1.0  0.99639  0.24714  0.51568  1.0000
  F   F259      1.0  0.01081  0.76492  0.98529  1.0000
  F   F260      1.0  0.00203  0.74833  0.49641  1.0000
  F   F261      1.0  0.24888  0.24075  0.00321  1.0000
  F   F262      1.0  0.24238  0.23135  0.50864  1.0000
  F   F263      1.0  0.24846  0.75083  0.00111  1.0000
  F   F264      1.0  0.24726  0.74808  0.49547  1.0000
  F   F265      1.0  0.50001  0.23879  0.00687  1.0000
  F   F266      1.0  0.50096  0.25255  0.50102  1.0000
  F   F267      1.0  0.49610  0.74141  0.00905  1.0000
  F   F268      1.0  0.50424  0.76412  0.49325  1.0000
  F   F269      1.0  0.74745  0.24437  0.00944  1.0000
  F   F270      1.0  0.75329  0.26754  0.47935  1.0000
  F   F271      1.0  0.75078  0.75283  0.00599  1.0000
  F   F272      1.0  0.74426  0.73022  0.50929  1.0000
  F   F273      1.0  0.12466  0.99887  0.25124  1.0000
  F   F274      1.0  0.13776  0.00714  0.73932  1.0000
  F   F275      1.0  0.13097  0.50643  0.24343  1.0000
  F   F276      1.0  0.13093  0.50502  0.74051  1.0000
  F   F277      1.0  0.38464  0.01502  0.22777  1.0000
  F   F278      1.0  0.38101  0.99549  0.74000  1.0000
  F   F279      1.0  0.37009  0.49149  0.25947  1.0000
  F   F280      1.0  0.37217  0.49182  0.75999  1.0000
  F   F281      1.0  0.62937  0.00175  0.24382  1.0000
  F   F282      1.0  0.62408  0.00467  0.74365  1.0000
  F   F283      1.0  0.63275  0.51313  0.22997  1.0000
  F   F284      1.0  0.61713  0.48910  0.75373  1.0000
  F   F285      1.0  0.86743  0.98640  0.26402  1.0000
  F   F286      1.0  0.86746  0.98917  0.76453  1.0000
  F   F287      1.0  0.88075  0.50202  0.24738  1.0000
  F   F288      1.0  0.86821  0.49301  0.76428  1.0000
  F   F289      1.0  0.04554  0.03264  0.02062  1.0000
  F   F290      1.0  0.04306  0.02226  0.51763  1.0000
  F   F291      1.0  0.05034  0.53155  0.01731  1.0000
  F   F292      1.0  0.03814  0.53597  0.52595  1.0000
  F   F293      1.0  0.28436  0.03042  0.03202  1.0000
  F   F294      1.0  0.29307  0.02535  0.52753  1.0000
  F   F295      1.0  0.29257  0.53466  0.01267  1.0000
  F   F296      1.0  0.28738  0.54288  0.52583  1.0000
  F   F297      1.0  0.54776  0.03640  0.03029  1.0000
  F   F298      1.0  0.54270  0.02546  0.53775  1.0000
  F   F299      1.0  0.54696  0.53431  0.03238  1.0000
  F   F300      1.0  0.53926  0.53343  0.51711  1.0000
  F   F301      1.0  0.80134  0.02845  0.01089  1.0000
  F   F302      1.0  0.79402  0.02021  0.51187  1.0000
  F   F303      1.0  0.79825  0.53478  0.01792  1.0000
  F   F304      1.0  0.79430  0.51579  0.51980  1.0000
  F   F305      1.0  0.23712  0.41006  0.22363  1.0000
  F   F306      1.0  0.23108  0.41674  0.72456  1.0000
  F   F307      1.0  0.22889  0.93590  0.22080  1.0000
  F   F308      1.0  0.23514  0.90570  0.73552  1.0000
  F   F309      1.0  0.48039  0.41098  0.22934  1.0000
  F   F310      1.0  0.48277  0.41493  0.72752  1.0000
  F   F311      1.0  0.48023  0.93010  0.21445  1.0000
  F   F312      1.0  0.47937  0.90473  0.73571  1.0000
  F   F313      1.0  0.73759  0.42427  0.21033  1.0000
  F   F314      1.0  0.73474  0.42549  0.72027  1.0000
  F   F315      1.0  0.73745  0.91937  0.21720  1.0000
  F   F316      1.0  0.73520  0.90701  0.73379  1.0000
  F   F317      1.0  0.98974  0.40428  0.22182  1.0000
  F   F318      1.0  0.98712  0.42887  0.72684  1.0000
  F   F319      1.0  0.98462  0.91612  0.22678  1.0000
  F   F320      1.0  0.99055  0.91754  0.71410  1.0000
  F   F321      1.0  0.20622  0.46420  0.48220  1.0000
  F   F322      1.0  0.19847  0.46508  0.98767  1.0000
  F   F323      1.0  0.21382  0.96830  0.46360  1.0000
  F   F324      1.0  0.21310  0.96041  0.96878  1.0000
  F   F325      1.0  0.45326  0.47884  0.49091  1.0000
  F   F326      1.0  0.45842  0.48365  0.98067  1.0000
  F   F327      1.0  0.45684  0.97255  0.48204  1.0000
  F   F328      1.0  0.46138  0.97336  0.97672  1.0000
  F   F329      1.0  0.70030  0.47648  0.48663  1.0000
  F   F330      1.0  0.71206  0.47172  0.97299  1.0000
  F   F331      1.0  0.71441  0.96477  0.46856  1.0000
  F   F332      1.0  0.71176  0.97791  0.96296  1.0000
  F   F333      1.0  0.95532  0.46871  0.48522  1.0000
  F   F334      1.0  0.95362  0.47448  0.98067  1.0000
  F   F335      1.0  0.95540  0.96874  0.48481  1.0000
  F   F336      1.0  0.96107  0.96606  0.97796  1.0000
  F   F337      1.0  0.01642  0.08022  0.27619  1.0000
  F   F338      1.0  0.01724  0.08989  0.77013  1.0000
  F   F339      1.0  0.01444  0.57026  0.28422  1.0000
  F   F340      1.0  0.01070  0.59079  0.76864  1.0000
  F   F341      1.0  0.26648  0.08126  0.25553  1.0000
  F   F342      1.0  0.26527  0.09092  0.77247  1.0000
  F   F343      1.0  0.27059  0.59311  0.27914  1.0000
  F   F344      1.0  0.26320  0.59485  0.77644  1.0000
  F   F345      1.0  0.51538  0.09620  0.27973  1.0000
  F   F346      1.0  0.51609  0.09486  0.78384  1.0000
  F   F347      1.0  0.51637  0.60176  0.26489  1.0000
  F   F348      1.0  0.52193  0.58451  0.76555  1.0000
  F   F349      1.0  0.76742  0.08378  0.26896  1.0000
  F   F350      1.0  0.76759  0.10249  0.76211  1.0000
  F   F351      1.0  0.76513  0.58812  0.27357  1.0000
  F   F352      1.0  0.76466  0.57402  0.79386  1.0000
  F   F353      1.0  0.10238  0.41176  0.45395  1.0000
  F   F354      1.0  0.09730  0.40651  0.95442  1.0000
  F   F355      1.0  0.09320  0.89624  0.46694  1.0000
  F   F356      1.0  0.09777  0.91710  0.97426  1.0000
  F   F357      1.0  0.34845  0.43138  0.46733  1.0000
  F   F358      1.0  0.34838  0.40468  0.96380  1.0000
  F   F359      1.0  0.34602  0.91316  0.45937  1.0000
  F   F360      1.0  0.34480  0.92697  0.96145  1.0000
  F   F361      1.0  0.59770  0.42597  0.43871  1.0000
  F   F362      1.0  0.60646  0.41445  0.95866  1.0000
  F   F363      1.0  0.60458  0.90095  0.45932  1.0000
  F   F364      1.0  0.59707  0.92387  0.95942  1.0000
  F   F365      1.0  0.85011  0.39417  0.45130  1.0000
  F   F366      1.0  0.84949  0.40264  0.96501  1.0000
  F   F367      1.0  0.84690  0.89604  0.46563  1.0000
  F   F368      1.0  0.84797  0.89034  0.96813  1.0000
  F   F369      1.0  0.04147  0.28826  0.30996  1.0000
  F   F370      1.0  0.04488  0.28768  0.77884  1.0000
  F   F371      1.0  0.04917  0.79578  0.28530  1.0000
  F   F372      1.0  0.05102  0.79315  0.79664  1.0000
  F   F373      1.0  0.30218  0.29148  0.29060  1.0000
  F   F374      1.0  0.29373  0.29498  0.79283  1.0000
  F   F375      1.0  0.29205  0.79411  0.29090  1.0000
  F   F376      1.0  0.29637  0.78764  0.80474  1.0000
  F   F377      1.0  0.54911  0.30006  0.28104  1.0000
  F   F378      1.0  0.54689  0.31327  0.77849  1.0000
  F   F379      1.0  0.54072  0.80167  0.28150  1.0000
  F   F380      1.0  0.54287  0.80060  0.79284  1.0000
  F   F381      1.0  0.78751  0.28532  0.28374  1.0000
  F   F382      1.0  0.80353  0.29097  0.78773  1.0000
  F   F383      1.0  0.79163  0.79595  0.29348  1.0000
  F   F384      1.0  0.79393  0.80081  0.79975  1.0000
