data_image0
_chemical_formula_structural       Hf96F384
_chemical_formula_sum              "Hf96 F384"
_cell_length_a       31.01
_cell_length_b       15.5062
_cell_length_c       15.4987
_cell_angle_alpha    63.342
_cell_angle_beta     63.342
_cell_angle_gamma    80.1625

_space_group_name_H-M_alt    "P 1"
_space_group_IT_number       1

loop_
  _space_group_symop_operation_xyz
  'x, y, z'

loop_
  _atom_site_type_symbol
  _atom_site_label
  _atom_site_symmetry_multiplicity
  _atom_site_fract_x
  _atom_site_fract_y
  _atom_site_fract_z
  _atom_site_occupancy
  Hf  Hf1       1.0  0.19602  0.11063  0.36831  1.0000
  Hf  Hf2       1.0  0.19470  0.09893  0.87948  1.0000
  Hf  Hf3       1.0  0.19122  0.59789  0.39187  1.0000
  Hf  Hf4       1.0  0.20037  0.61257  0.86314  1.0000
  Hf  Hf5       1.0  0.44801  0.10817  0.37594  1.0000
  Hf  Hf6       1.0  0.44574  0.10507  0.87742  1.0000
  Hf  Hf7       1.0  0.44893  0.60572  0.37309  1.0000
  Hf  Hf8       1.0  0.44390  0.60951  0.88109  1.0000
  Hf  Hf9       1.0  0.69877  0.10437  0.38350  1.0000
  Hf  Hf10      1.0  0.70097  0.10755  0.87501  1.0000
  Hf  Hf11      1.0  0.69247  0.60777  0.37492  1.0000
  Hf  Hf12      1.0  0.69099  0.60439  0.88738  1.0000
  Hf  Hf13      1.0  0.95192  0.10785  0.37114  1.0000
  Hf  Hf14      1.0  0.94716  0.10526  0.88226  1.0000
  Hf  Hf15      1.0  0.94537  0.60329  0.37138  1.0000
  Hf  Hf16      1.0  0.94431  0.60711  0.87882  1.0000
  Hf  Hf17      1.0  0.05294  0.39592  0.12398  1.0000
  Hf  Hf18      1.0  0.05342  0.38616  0.62667  1.0000
  Hf  Hf19      1.0  0.05249  0.89277  0.13473  1.0000
  Hf  Hf20      1.0  0.05213  0.89432  0.62225  1.0000
  Hf  Hf21      1.0  0.30310  0.39390  0.12632  1.0000
  Hf  Hf22      1.0  0.30422  0.39468  0.62423  1.0000
  Hf  Hf23      1.0  0.30500  0.89609  0.11636  1.0000
  Hf  Hf24      1.0  0.30411  0.89189  0.61671  1.0000
  Hf  Hf25      1.0  0.55470  0.39308  0.11994  1.0000
  Hf  Hf26      1.0  0.55501  0.38737  0.62449  1.0000
  Hf  Hf27      1.0  0.55383  0.89789  0.12308  1.0000
  Hf  Hf28      1.0  0.55505  0.89648  0.62787  1.0000
  Hf  Hf29      1.0  0.80248  0.39302  0.11646  1.0000
  Hf  Hf30      1.0  0.80595  0.38926  0.62168  1.0000
  Hf  Hf31      1.0  0.80319  0.88664  0.12896  1.0000
  Hf  Hf32      1.0  0.79914  0.89110  0.63700  1.0000
  Hf  Hf33      1.0  0.05599  0.18785  0.41582  1.0000
  Hf  Hf34      1.0  0.05618  0.17722  0.91898  1.0000
  Hf  Hf35      1.0  0.05082  0.67249  0.43795  1.0000
  Hf  Hf36      1.0  0.05427  0.68174  0.91274  1.0000
  Hf  Hf37      1.0  0.30797  0.18244  0.41539  1.0000
  Hf  Hf38      1.0  0.30193  0.18808  0.91586  1.0000
  Hf  Hf39      1.0  0.30605  0.68262  0.41404  1.0000
  Hf  Hf40      1.0  0.30680  0.68451  0.91809  1.0000
  Hf  Hf41      1.0  0.55848  0.18515  0.41227  1.0000
  Hf  Hf42      1.0  0.56064  0.18063  0.91511  1.0000
  Hf  Hf43      1.0  0.55521  0.68674  0.41583  1.0000
  Hf  Hf44      1.0  0.55068  0.68110  0.92480  1.0000
  Hf  Hf45      1.0  0.80849  0.18969  0.41283  1.0000
  Hf  Hf46      1.0  0.80420  0.18083  0.91695  1.0000
  Hf  Hf47      1.0  0.80247  0.67853  0.41882  1.0000
  Hf  Hf48      1.0  0.80437  0.68198  0.92125  1.0000
  Hf  Hf49      1.0  0.15883  0.39095  0.33350  1.0000
  Hf  Hf50      1.0  0.16200  0.38098  0.83402  1.0000
  Hf  Hf51      1.0  0.15502  0.88517  0.33772  1.0000
  Hf  Hf52      1.0  0.16131  0.88312  0.83617  1.0000
  Hf  Hf53      1.0  0.40786  0.38612  0.33653  1.0000
  Hf  Hf54      1.0  0.40829  0.39530  0.82905  1.0000
  Hf  Hf55      1.0  0.40916  0.88829  0.33378  1.0000
  Hf  Hf56      1.0  0.40647  0.89241  0.83288  1.0000
  Hf  Hf57      1.0  0.65850  0.38991  0.33091  1.0000
  Hf  Hf58      1.0  0.66568  0.39133  0.82458  1.0000
  Hf  Hf59      1.0  0.66371  0.89408  0.32362  1.0000
  Hf  Hf60      1.0  0.65729  0.88333  0.83854  1.0000
  Hf  Hf61      1.0  0.90984  0.38702  0.32951  1.0000
  Hf  Hf62      1.0  0.90841  0.38774  0.83495  1.0000
  Hf  Hf63      1.0  0.91238  0.88825  0.32548  1.0000
  Hf  Hf64      1.0  0.90866  0.88932  0.83497  1.0000
  Hf  Hf65      1.0  0.19067  0.32370  0.08073  1.0000
  Hf  Hf66      1.0  0.19694  0.30910  0.58124  1.0000
  Hf  Hf67      1.0  0.19038  0.80791  0.09623  1.0000
  Hf  Hf68      1.0  0.19186  0.81568  0.58198  1.0000
  Hf  Hf69      1.0  0.44338  0.31920  0.08260  1.0000
  Hf  Hf70      1.0  0.44293  0.31601  0.58226  1.0000
  Hf  Hf71      1.0  0.44261  0.81775  0.08986  1.0000
  Hf  Hf72      1.0  0.44395  0.82021  0.58454  1.0000
  Hf  Hf73      1.0  0.69448  0.30834  0.08828  1.0000
  Hf  Hf74      1.0  0.69519  0.31822  0.57874  1.0000
  Hf  Hf75      1.0  0.69195  0.81600  0.08713  1.0000
  Hf  Hf76      1.0  0.69517  0.81365  0.58704  1.0000
  Hf  Hf77      1.0  0.94345  0.31800  0.08112  1.0000
  Hf  Hf78      1.0  0.94440  0.31944  0.58325  1.0000
  Hf  Hf79      1.0  0.94538  0.81896  0.07907  1.0000
  Hf  Hf80      1.0  0.94218  0.82116  0.58407  1.0000
  Hf  Hf81      1.0  0.09393  0.11581  0.16812  1.0000
  Hf  Hf82      1.0  0.09166  0.11150  0.66504  1.0000
  Hf  Hf83      1.0  0.09145  0.61781  0.15972  1.0000
  Hf  Hf84      1.0  0.09276  0.60455  0.67068  1.0000
  Hf  Hf85      1.0  0.33946  0.10690  0.16884  1.0000
  Hf  Hf86      1.0  0.33982  0.10942  0.66980  1.0000
  Hf  Hf87      1.0  0.33717  0.60976  0.17388  1.0000
  Hf  Hf88      1.0  0.34464  0.61800  0.65639  1.0000
  Hf  Hf89      1.0  0.59382  0.11386  0.16203  1.0000
  Hf  Hf90      1.0  0.58819  0.11001  0.67205  1.0000
  Hf  Hf91      1.0  0.59113  0.62045  0.16106  1.0000
  Hf  Hf92      1.0  0.59155  0.61629  0.66664  1.0000
  Hf  Hf93      1.0  0.84000  0.11502  0.16441  1.0000
  Hf  Hf94      1.0  0.84785  0.11722  0.65772  1.0000
  Hf  Hf95      1.0  0.84009  0.60989  0.16729  1.0000
  Hf  Hf96      1.0  0.84013  0.61366  0.66766  1.0000
  F   F1        1.0  0.08422  0.14837  0.29351  1.0000
  F   F2        1.0  0.07806  0.12638  0.80525  1.0000
  F   F3        1.0  0.08136  0.64783  0.30313  1.0000
  F   F4        1.0  0.08254  0.62441  0.80605  1.0000
  F   F5        1.0  0.32493  0.11341  0.31806  1.0000
  F   F6        1.0  0.33172  0.14942  0.79503  1.0000
  F   F7        1.0  0.32674  0.61739  0.31037  1.0000
  F   F8        1.0  0.33278  0.62922  0.79226  1.0000
  F   F9        1.0  0.58825  0.13218  0.29995  1.0000
  F   F10       1.0  0.58307  0.13087  0.80599  1.0000
  F   F11       1.0  0.58339  0.63481  0.29286  1.0000
  F   F12       1.0  0.57767  0.63416  0.80022  1.0000
  F   F13       1.0  0.83252  0.12210  0.30060  1.0000
  F   F14       1.0  0.82806  0.13157  0.80310  1.0000
  F   F15       1.0  0.82744  0.63497  0.29853  1.0000
  F   F16       1.0  0.82994  0.62866  0.81037  1.0000
  F   F17       1.0  0.18892  0.34042  0.44537  1.0000
  F   F18       1.0  0.18614  0.34681  0.94461  1.0000
  F   F19       1.0  0.19088  0.85076  0.43807  1.0000
  F   F20       1.0  0.18547  0.82671  0.94839  1.0000
  F   F21       1.0  0.43505  0.34308  0.44261  1.0000
  F   F22       1.0  0.43135  0.33957  0.95231  1.0000
  F   F23       1.0  0.43902  0.84706  0.43009  1.0000
  F   F24       1.0  0.42816  0.84978  0.95191  1.0000
  F   F25       1.0  0.68826  0.34555  0.44320  1.0000
  F   F26       1.0  0.69284  0.33667  0.93765  1.0000
  F   F27       1.0  0.69558  0.84488  0.42927  1.0000
  F   F28       1.0  0.68745  0.82996  0.95061  1.0000
  F   F29       1.0  0.92986  0.33576  0.45998  1.0000
  F   F30       1.0  0.93985  0.34399  0.93506  1.0000
  F   F31       1.0  0.93932  0.85100  0.43916  1.0000
  F   F32       1.0  0.93268  0.84527  0.94787  1.0000
  F   F33       1.0  0.17357  0.37579  0.19258  1.0000
  F   F34       1.0  0.16712  0.35054  0.71249  1.0000
  F   F35       1.0  0.17190  0.88295  0.19761  1.0000
  F   F36       1.0  0.17595  0.87509  0.68804  1.0000
  F   F37       1.0  0.41148  0.35644  0.20814  1.0000
  F   F38       1.0  0.41777  0.37059  0.69700  1.0000
  F   F39       1.0  0.41430  0.86494  0.20913  1.0000
  F   F40       1.0  0.42666  0.88186  0.69086  1.0000
  F   F41       1.0  0.66846  0.35848  0.21018  1.0000
  F   F42       1.0  0.67251  0.37969  0.68453  1.0000
  F   F43       1.0  0.67044  0.87649  0.19124  1.0000
  F   F44       1.0  0.67024  0.87876  0.69757  1.0000
  F   F45       1.0  0.91839  0.38692  0.18523  1.0000
  F   F46       1.0  0.92087  0.38330  0.69286  1.0000
  F   F47       1.0  0.92182  0.85872  0.19770  1.0000
  F   F48       1.0  0.91574  0.86383  0.70504  1.0000
  F   F49       1.0  0.06951  0.16216  0.05181  1.0000
  F   F50       1.0  0.06228  0.15332  0.55404  1.0000
  F   F51       1.0  0.05773  0.65691  0.05234  1.0000
  F   F52       1.0  0.06641  0.66340  0.55585  1.0000
  F   F53       1.0  0.30824  0.15686  0.06137  1.0000
  F   F54       1.0  0.31291  0.15329  0.55525  1.0000
  F   F55       1.0  0.31991  0.66800  0.04743  1.0000
  F   F56       1.0  0.31527  0.65166  0.55132  1.0000
  F   F57       1.0  0.56887  0.14881  0.05122  1.0000
  F   F58       1.0  0.56501  0.15542  0.55185  1.0000
  F   F59       1.0  0.56264  0.66293  0.05634  1.0000
  F   F60       1.0  0.55521  0.66407  0.55878  1.0000
  F   F61       1.0  0.81474  0.16530  0.04841  1.0000
  F   F62       1.0  0.81838  0.16608  0.54388  1.0000
  F   F63       1.0  0.80950  0.65116  0.05892  1.0000
  F   F64       1.0  0.81791  0.66651  0.54874  1.0000
  F   F65       1.0  0.19171  0.19918  0.21896  1.0000
  F   F66       1.0  0.20977  0.19688  0.72380  1.0000
  F   F67       1.0  0.19878  0.70823  0.22628  1.0000
  F   F68       1.0  0.19995  0.70288  0.70866  1.0000
  F   F69       1.0  0.45761  0.20233  0.21328  1.0000
  F   F70       1.0  0.44993  0.19948  0.72343  1.0000
  F   F71       1.0  0.46052  0.70244  0.20170  1.0000
  F   F72       1.0  0.45059  0.70193  0.71446  1.0000
  F   F73       1.0  0.70123  0.20058  0.21735  1.0000
  F   F74       1.0  0.70434  0.20653  0.70436  1.0000
  F   F75       1.0  0.70523  0.69233  0.21090  1.0000
  F   F76       1.0  0.69201  0.70581  0.72463  1.0000
  F   F77       1.0  0.95520  0.20433  0.20870  1.0000
  F   F78       1.0  0.94816  0.20560  0.71458  1.0000
  F   F79       1.0  0.96388  0.69025  0.20338  1.0000
  F   F80       1.0  0.95662  0.70159  0.71292  1.0000
  F   F81       1.0  0.15182  0.08639  0.05505  1.0000
  F   F82       1.0  0.15050  0.09919  0.53686  1.0000
  F   F83       1.0  0.14815  0.60808  0.03583  1.0000
  F   F84       1.0  0.14808  0.57076  0.54904  1.0000
  F   F85       1.0  0.40191  0.11736  0.03939  1.0000
  F   F86       1.0  0.40131  0.08637  0.53617  1.0000
  F   F87       1.0  0.39734  0.59248  0.04032  1.0000
  F   F88       1.0  0.39881  0.59935  0.53052  1.0000
  F   F89       1.0  0.65129  0.08934  0.03656  1.0000
  F   F90       1.0  0.64941  0.08932  0.55504  1.0000
  F   F91       1.0  0.64771  0.60053  0.03844  1.0000
  F   F92       1.0  0.64761  0.60264  0.52951  1.0000
  F   F93       1.0  0.89905  0.09048  0.03891  1.0000
  F   F94       1.0  0.90444  0.09536  0.53558  1.0000
  F   F95       1.0  0.89805  0.59976  0.03331  1.0000
  F   F96       1.0  0.89787  0.60433  0.53832  1.0000
  F   F97       1.0  0.14744  0.21050  0.11230  1.0000
  F   F98       1.0  0.15872  0.19033  0.63345  1.0000
  F   F99       1.0  0.15390  0.68263  0.13568  1.0000
  F   F100      1.0  0.14825  0.69271  0.62406  1.0000
  F   F101      1.0  0.39633  0.20429  0.14326  1.0000
  F   F102      1.0  0.40083  0.19861  0.60991  1.0000
  F   F103      1.0  0.39575  0.70725  0.12336  1.0000
  F   F104      1.0  0.40498  0.69814  0.62186  1.0000
  F   F105      1.0  0.65538  0.19478  0.10843  1.0000
  F   F106      1.0  0.64876  0.20176  0.62500  1.0000
  F   F107      1.0  0.65168  0.70485  0.12059  1.0000
  F   F108      1.0  0.65318  0.70164  0.61614  1.0000
  F   F109      1.0  0.90436  0.19702  0.12036  1.0000
  F   F110      1.0  0.90527  0.19040  0.62370  1.0000
  F   F111      1.0  0.90501  0.69980  0.12347  1.0000
  F   F112      1.0  0.89810  0.71687  0.62730  1.0000
  F   F113      1.0  0.09829  0.29781  0.38462  1.0000
  F   F114      1.0  0.09853  0.29910  0.87298  1.0000
  F   F115      1.0  0.09818  0.79426  0.37023  1.0000
  F   F116      1.0  0.10180  0.80639  0.88247  1.0000
  F   F117      1.0  0.35207  0.28829  0.39038  1.0000
  F   F118      1.0  0.34244  0.30435  0.87196  1.0000
  F   F119      1.0  0.34783  0.80824  0.37698  1.0000
  F   F120      1.0  0.34744  0.81001  0.87896  1.0000
  F   F121      1.0  0.59028  0.31069  0.37239  1.0000
  F   F122      1.0  0.60662  0.30094  0.88073  1.0000
  F   F123      1.0  0.59968  0.80398  0.36555  1.0000
  F   F124      1.0  0.58935  0.79901  0.88468  1.0000
  F   F125      1.0  0.84833  0.30806  0.38450  1.0000
  F   F126      1.0  0.84614  0.30265  0.86147  1.0000
  F   F127      1.0  0.84145  0.79363  0.36781  1.0000
  F   F128      1.0  0.84797  0.79426  0.87964  1.0000
  F   F129      1.0  0.05385  0.25188  0.15575  1.0000
  F   F130      1.0  0.07757  0.24923  0.61276  1.0000
  F   F131      1.0  0.06462  0.74559  0.13982  1.0000
  F   F132      1.0  0.05774  0.74256  0.65984  1.0000
  F   F133      1.0  0.31288  0.25314  0.14289  1.0000
  F   F134      1.0  0.31578  0.25500  0.63109  1.0000
  F   F135      1.0  0.31097  0.75512  0.13810  1.0000
  F   F136      1.0  0.31580  0.74911  0.63126  1.0000
  F   F137      1.0  0.56435  0.25163  0.13544  1.0000
  F   F138      1.0  0.56771  0.25175  0.63624  1.0000
  F   F139      1.0  0.55977  0.75989  0.14363  1.0000
  F   F140      1.0  0.56813  0.76078  0.64075  1.0000
  F   F141      1.0  0.80674  0.25040  0.15348  1.0000
  F   F142      1.0  0.82463  0.25048  0.61905  1.0000
  F   F143      1.0  0.82308  0.75336  0.11347  1.0000
  F   F144      1.0  0.81687  0.75103  0.64738  1.0000
  F   F145      1.0  0.12337  0.37430  0.11264  1.0000
  F   F146      1.0  0.12268  0.37197  0.59726  1.0000
  F   F147      1.0  0.12022  0.85891  0.12440  1.0000
  F   F148      1.0  0.11995  0.86519  0.62141  1.0000
  F   F149      1.0  0.37471  0.39135  0.09292  1.0000
  F   F150      1.0  0.37830  0.37988  0.59669  1.0000
  F   F151      1.0  0.37509  0.87400  0.10481  1.0000
  F   F152      1.0  0.37542  0.86263  0.61247  1.0000
  F   F153      1.0  0.63064  0.35568  0.11734  1.0000
  F   F154      1.0  0.62606  0.37925  0.59503  1.0000
  F   F155      1.0  0.62412  0.86758  0.10638  1.0000
  F   F156      1.0  0.62951  0.88053  0.59863  1.0000
  F   F157      1.0  0.87517  0.37068  0.08802  1.0000
  F   F158      1.0  0.87441  0.35988  0.61689  1.0000
  F   F159      1.0  0.87499  0.87786  0.10662  1.0000
  F   F160      1.0  0.87384  0.89941  0.58071  1.0000
  F   F161      1.0  0.18268  0.24524  0.35744  1.0000
  F   F162      1.0  0.17736  0.23456  0.88058  1.0000
  F   F163      1.0  0.16904  0.73594  0.39929  1.0000
  F   F164      1.0  0.19486  0.75148  0.84456  1.0000
  F   F165      1.0  0.44223  0.24992  0.34760  1.0000
  F   F166      1.0  0.43309  0.24853  0.85897  1.0000
  F   F167      1.0  0.43713  0.74576  0.35687  1.0000
  F   F168      1.0  0.43942  0.75510  0.85289  1.0000
  F   F169      1.0  0.68650  0.23727  0.37165  1.0000
  F   F170      1.0  0.68705  0.24803  0.85816  1.0000
  F   F171      1.0  0.68597  0.75178  0.35828  1.0000
  F   F172      1.0  0.67726  0.74430  0.86939  1.0000
  F   F173      1.0  0.93831  0.25016  0.35510  1.0000
  F   F174      1.0  0.93068  0.24895  0.86807  1.0000
  F   F175      1.0  0.92834  0.74953  0.36128  1.0000
  F   F176      1.0  0.93378  0.74831  0.86852  1.0000
  F   F177      1.0  0.12417  0.10628  0.40355  1.0000
  F   F178      1.0  0.12909  0.11523  0.89136  1.0000
  F   F179      1.0  0.12208  0.61819  0.41314  1.0000
  F   F180      1.0  0.12856  0.63462  0.88352  1.0000
  F   F181      1.0  0.37609  0.12357  0.39363  1.0000
  F   F182      1.0  0.37143  0.12104  0.92103  1.0000
  F   F183      1.0  0.37721  0.63275  0.37591  1.0000
  F   F184      1.0  0.37722  0.64270  0.88077  1.0000
  F   F185      1.0  0.62560  0.12634  0.39871  1.0000
  F   F186      1.0  0.63123  0.13587  0.88809  1.0000
  F   F187      1.0  0.62519  0.63169  0.38486  1.0000
  F   F188      1.0  0.62115  0.61737  0.90806  1.0000
  F   F189      1.0  0.88172  0.13472  0.38477  1.0000
  F   F190      1.0  0.87651  0.12880  0.88821  1.0000
  F   F191      1.0  0.87418  0.62041  0.38919  1.0000
  F   F192      1.0  0.87659  0.63210  0.88529  1.0000
  F   F193      1.0  0.00529  0.35921  0.07973  1.0000
  F   F194      1.0  0.01112  0.35673  0.57387  1.0000
  F   F195      1.0  0.00992  0.86308  0.07069  1.0000
  F   F196      1.0  0.00336  0.87330  0.57674  1.0000
  F   F197      1.0  0.25773  0.35761  0.07782  1.0000
  F   F198      1.0  0.25525  0.36548  0.58284  1.0000
  F   F199      1.0  0.25703  0.86468  0.06670  1.0000
  F   F200      1.0  0.25935  0.86145  0.57031  1.0000
  F   F201      1.0  0.50796  0.35559  0.07147  1.0000
  F   F202      1.0  0.50719  0.35678  0.56457  1.0000
  F   F203      1.0  0.50202  0.86888  0.06834  1.0000
  F   F204      1.0  0.50644  0.85918  0.57744  1.0000
  F   F205      1.0  0.75640  0.36388  0.06776  1.0000
  F   F206      1.0  0.76085  0.35679  0.57175  1.0000
  F   F207      1.0  0.75655  0.85010  0.09486  1.0000
  F   F208      1.0  0.75801  0.86091  0.57886  1.0000
  F   F209      1.0  0.06736  0.48805  0.17246  1.0000
  F   F210      1.0  0.06713  0.46879  0.69427  1.0000
  F   F211      1.0  0.06841  0.99149  0.17064  1.0000
  F   F212      1.0  0.06825  0.99210  0.66468  1.0000
  F   F213      1.0  0.31267  0.48998  0.18006  1.0000
  F   F214      1.0  0.31809  0.48095  0.67425  1.0000
  F   F215      1.0  0.32087  0.98721  0.17038  1.0000
  F   F216      1.0  0.32517  0.98160  0.66170  1.0000
  F   F217      1.0  0.57466  0.48432  0.17167  1.0000
  F   F218      1.0  0.56853  0.49200  0.68108  1.0000
  F   F219      1.0  0.56968  0.98079  0.18068  1.0000
  F   F220      1.0  0.56593  0.98088  0.68894  1.0000
  F   F221      1.0  0.81826  0.48187  0.17205  1.0000
  F   F222      1.0  0.81616  0.48827  0.68176  1.0000
  F   F223      1.0  0.81375  0.98978  0.18070  1.0000
  F   F224      1.0  0.81743  0.98782  0.67938  1.0000
  F   F225      1.0  0.24013  0.14352  0.42077  1.0000
  F   F226      1.0  0.23978  0.14459  0.92376  1.0000
  F   F227      1.0  0.23834  0.63257  0.43794  1.0000
  F   F228      1.0  0.24787  0.63366  0.91583  1.0000
  F   F229      1.0  0.49711  0.11681  0.42380  1.0000
  F   F230      1.0  0.49817  0.15570  0.90589  1.0000
  F   F231      1.0  0.49520  0.63003  0.42385  1.0000
  F   F232      1.0  0.49261  0.63586  0.93280  1.0000
  F   F233      1.0  0.74746  0.13037  0.43172  1.0000
  F   F234      1.0  0.74441  0.12522  0.93757  1.0000
  F   F235      1.0  0.73806  0.63774  0.43533  1.0000
  F   F236      1.0  0.74315  0.64011  0.92251  1.0000
  F   F237      1.0  0.99718  0.14731  0.41025  1.0000
  F   F238      1.0  0.99109  0.15062  0.92661  1.0000
  F   F239      1.0  0.99205  0.63290  0.42114  1.0000
  F   F240      1.0  0.99123  0.63354  0.92645  1.0000
  F   F241      1.0  0.18060  0.00977  0.31074  1.0000
  F   F242      1.0  0.19175  0.01381  0.80241  1.0000
  F   F243      1.0  0.17761  0.51662  0.32831  1.0000
  F   F244      1.0  0.18482  0.52220  0.81500  1.0000
  F   F245      1.0  0.43791  0.02053  0.30985  1.0000
  F   F246      1.0  0.42879  0.01751  0.82374  1.0000
  F   F247      1.0  0.42879  0.50988  0.33568  1.0000
  F   F248      1.0  0.43206  0.51396  0.82514  1.0000
  F   F249      1.0  0.67811  0.01742  0.34413  1.0000
  F   F250      1.0  0.67594  0.00460  0.84333  1.0000
  F   F251      1.0  0.68122  0.50888  0.32889  1.0000
  F   F252      1.0  0.68256  0.51208  0.82389  1.0000
  F   F253      1.0  0.93292  0.02181  0.32008  1.0000
  F   F254      1.0  0.93708  0.01142  0.82817  1.0000
  F   F255      1.0  0.93548  0.50969  0.32339  1.0000
  F   F256      1.0  0.93120  0.51116  0.83028  1.0000
  F   F257      1.0  0.99996  0.25830  0.99255  1.0000
  F   F258      1.0  0.99974  0.24420  0.50621  1.0000
  F   F259      1.0  0.99865  0.75983  0.98756  1.0000
  F   F260      1.0  0.00218  0.75897  0.49499  1.0000
  F   F261      1.0  0.24596  0.25142  0.00570  1.0000
  F   F262      1.0  0.25435  0.25049  0.50057  1.0000
  F   F263      1.0  0.24727  0.72624  0.02299  1.0000
  F   F264      1.0  0.24858  0.75427  0.48810  1.0000
  F   F265      1.0  0.50096  0.24624  0.99976  1.0000
  F   F266      1.0  0.49631  0.23742  0.49673  1.0000
  F   F267      1.0  0.49658  0.75632  0.99998  1.0000
  F   F268      1.0  0.49365  0.74320  0.50212  1.0000
  F   F269      1.0  0.75017  0.23293  0.01144  1.0000
  F   F270      1.0  0.75417  0.25073  0.48901  1.0000
  F   F271      1.0  0.75473  0.76615  0.98655  1.0000
  F   F272      1.0  0.74942  0.73979  0.51016  1.0000
  F   F273      1.0  0.10850  0.99163  0.28062  1.0000
  F   F274      1.0  0.12855  0.00499  0.74307  1.0000
  F   F275      1.0  0.11781  0.49637  0.25356  1.0000
  F   F276      1.0  0.12790  0.49305  0.74996  1.0000
  F   F277      1.0  0.37690  0.00400  0.24865  1.0000
  F   F278      1.0  0.36935  0.00110  0.75821  1.0000
  F   F279      1.0  0.37753  0.49795  0.24950  1.0000
  F   F280      1.0  0.38527  0.50475  0.72938  1.0000
  F   F281      1.0  0.63092  0.00323  0.23571  1.0000
  F   F282      1.0  0.61486  0.98805  0.76487  1.0000
  F   F283      1.0  0.62804  0.50189  0.24958  1.0000
  F   F284      1.0  0.62810  0.50405  0.73951  1.0000
  F   F285      1.0  0.88178  0.98930  0.23457  1.0000
  F   F286      1.0  0.87749  0.00279  0.75798  1.0000
  F   F287      1.0  0.87790  0.50379  0.24938  1.0000
  F   F288      1.0  0.87311  0.50485  0.75581  1.0000
  F   F289      1.0  0.04152  0.03790  0.02277  1.0000
  F   F290      1.0  0.03791  0.02912  0.52151  1.0000
  F   F291      1.0  0.04154  0.52834  0.02050  1.0000
  F   F292      1.0  0.03699  0.52627  0.53917  1.0000
  F   F293      1.0  0.29189  0.03583  0.02200  1.0000
  F   F294      1.0  0.28985  0.03119  0.52163  1.0000
  F   F295      1.0  0.29747  0.54069  0.01968  1.0000
  F   F296      1.0  0.29419  0.52975  0.51732  1.0000
  F   F297      1.0  0.54384  0.02735  0.02317  1.0000
  F   F298      1.0  0.54708  0.02884  0.52165  1.0000
  F   F299      1.0  0.54098  0.52835  0.03385  1.0000
  F   F300      1.0  0.54591  0.52036  0.52482  1.0000
  F   F301      1.0  0.79919  0.02713  0.02047  1.0000
  F   F302      1.0  0.80307  0.02189  0.51695  1.0000
  F   F303      1.0  0.79082  0.53033  0.01711  1.0000
  F   F304      1.0  0.78853  0.53125  0.53368  1.0000
  F   F305      1.0  0.23023  0.42011  0.23531  1.0000
  F   F306      1.0  0.23338  0.41315  0.72995  1.0000
  F   F307      1.0  0.23678  0.89688  0.23366  1.0000
  F   F308      1.0  0.24212  0.91200  0.72509  1.0000
  F   F309      1.0  0.48240  0.41322  0.21166  1.0000
  F   F310      1.0  0.48741  0.41455  0.71299  1.0000
  F   F311      1.0  0.48596  0.90987  0.21661  1.0000
  F   F312      1.0  0.48673  0.91187  0.73335  1.0000
  F   F313      1.0  0.73730  0.41488  0.21558  1.0000
  F   F314      1.0  0.73427  0.41043  0.71390  1.0000
  F   F315      1.0  0.73360  0.94035  0.20875  1.0000
  F   F316      1.0  0.72856  0.92043  0.74135  1.0000
  F   F317      1.0  0.98571  0.41905  0.21767  1.0000
  F   F318      1.0  0.98313  0.41284  0.72943  1.0000
  F   F319      1.0  0.98283  0.93603  0.20530  1.0000
  F   F320      1.0  0.98458  0.91576  0.72937  1.0000
  F   F321      1.0  0.20719  0.46743  0.47862  1.0000
  F   F322      1.0  0.20592  0.48141  0.97295  1.0000
  F   F323      1.0  0.20484  0.97944  0.47008  1.0000
  F   F324      1.0  0.20229  0.95971  0.97297  1.0000
  F   F325      1.0  0.45531  0.46517  0.48253  1.0000
  F   F326      1.0  0.46023  0.46612  0.97441  1.0000
  F   F327      1.0  0.45570  0.97037  0.47557  1.0000
  F   F328      1.0  0.45169  0.97596  0.98544  1.0000
  F   F329      1.0  0.71054  0.46480  0.47799  1.0000
  F   F330      1.0  0.70568  0.46939  0.97795  1.0000
  F   F331      1.0  0.71649  0.96270  0.46676  1.0000
  F   F332      1.0  0.71399  0.96349  0.97247  1.0000
  F   F333      1.0  0.95284  0.46856  0.48228  1.0000
  F   F334      1.0  0.96078  0.47198  0.97994  1.0000
  F   F335      1.0  0.95521  0.97487  0.48461  1.0000
  F   F336      1.0  0.96087  0.96916  0.97744  1.0000
  F   F337      1.0  0.02001  0.08031  0.27867  1.0000
  F   F338      1.0  0.01292  0.10227  0.76870  1.0000
  F   F339      1.0  0.01644  0.58453  0.27770  1.0000
  F   F340      1.0  0.01444  0.57583  0.77116  1.0000
  F   F341      1.0  0.26507  0.08978  0.27043  1.0000
  F   F342      1.0  0.27256  0.07351  0.77347  1.0000
  F   F343      1.0  0.26323  0.59341  0.27686  1.0000
  F   F344      1.0  0.26903  0.58870  0.76872  1.0000
  F   F345      1.0  0.52338  0.09222  0.26126  1.0000
  F   F346      1.0  0.51395  0.09105  0.76554  1.0000
  F   F347      1.0  0.51734  0.58683  0.26622  1.0000
  F   F348      1.0  0.51389  0.59564  0.77180  1.0000
  F   F349      1.0  0.76681  0.09783  0.26955  1.0000
  F   F350      1.0  0.76490  0.09664  0.76019  1.0000
  F   F351      1.0  0.76498  0.58473  0.27815  1.0000
  F   F352      1.0  0.76104  0.59680  0.77068  1.0000
  F   F353      1.0  0.09841  0.41218  0.45268  1.0000
  F   F354      1.0  0.10761  0.40577  0.95525  1.0000
  F   F355      1.0  0.10010  0.89858  0.46809  1.0000
  F   F356      1.0  0.10863  0.91788  0.95172  1.0000
  F   F357      1.0  0.35222  0.41188  0.46376  1.0000
  F   F358      1.0  0.35189  0.40318  0.96118  1.0000
  F   F359      1.0  0.35582  0.90920  0.46173  1.0000
  F   F360      1.0  0.34849  0.91249  0.96011  1.0000
  F   F361      1.0  0.60493  0.40724  0.45222  1.0000
  F   F362      1.0  0.60167  0.42397  0.96259  1.0000
  F   F363      1.0  0.60757  0.90172  0.45431  1.0000
  F   F364      1.0  0.59752  0.91412  0.95933  1.0000
  F   F365      1.0  0.85303  0.42690  0.45683  1.0000
  F   F366      1.0  0.84369  0.41242  0.95866  1.0000
  F   F367      1.0  0.85478  0.88608  0.44690  1.0000
  F   F368      1.0  0.84682  0.90809  0.95646  1.0000
  F   F369      1.0  0.04427  0.30253  0.29543  1.0000
  F   F370      1.0  0.04794  0.29090  0.77763  1.0000
  F   F371      1.0  0.02982  0.80533  0.29327  1.0000
  F   F372      1.0  0.04743  0.80143  0.79234  1.0000
  F   F373      1.0  0.29854  0.30036  0.28773  1.0000
  F   F374      1.0  0.29145  0.29937  0.78736  1.0000
  F   F375      1.0  0.30445  0.79063  0.27907  1.0000
  F   F376      1.0  0.30114  0.79878  0.78499  1.0000
  F   F377      1.0  0.54718  0.29740  0.26865  1.0000
  F   F378      1.0  0.55658  0.30303  0.77732  1.0000
  F   F379      1.0  0.54707  0.79286  0.29029  1.0000
  F   F380      1.0  0.54737  0.79770  0.78320  1.0000
  F   F381      1.0  0.80607  0.30183  0.28054  1.0000
  F   F382      1.0  0.78558  0.29812  0.79036  1.0000
  F   F383      1.0  0.78563  0.80206  0.27626  1.0000
  F   F384      1.0  0.79265  0.80482  0.79086  1.0000
