data_image0
_chemical_formula_structural       Hf96F384
_chemical_formula_sum              "Hf96 F384"
_cell_length_a       31.0603
_cell_length_b       15.5233
_cell_length_c       15.5154
_cell_angle_alpha    63.342
_cell_angle_beta     63.342
_cell_angle_gamma    80.1625

_space_group_name_H-M_alt    "P 1"
_space_group_IT_number       1

loop_
  _space_group_symop_operation_xyz
  'x, y, z'

loop_
  _atom_site_type_symbol
  _atom_site_label
  _atom_site_symmetry_multiplicity
  _atom_site_fract_x
  _atom_site_fract_y
  _atom_site_fract_z
  _atom_site_occupancy
  Hf  Hf1       1.0  0.19589  0.10462  0.37033  1.0000
  Hf  Hf2       1.0  0.19582  0.11318  0.86345  1.0000
  Hf  Hf3       1.0  0.19146  0.60892  0.36791  1.0000
  Hf  Hf4       1.0  0.19399  0.60559  0.88604  1.0000
  Hf  Hf5       1.0  0.44732  0.09848  0.37426  1.0000
  Hf  Hf6       1.0  0.44767  0.10304  0.87593  1.0000
  Hf  Hf7       1.0  0.44778  0.60173  0.37702  1.0000
  Hf  Hf8       1.0  0.44825  0.60440  0.87093  1.0000
  Hf  Hf9       1.0  0.69587  0.09970  0.38429  1.0000
  Hf  Hf10      1.0  0.69763  0.10112  0.87473  1.0000
  Hf  Hf11      1.0  0.69890  0.60914  0.37198  1.0000
  Hf  Hf12      1.0  0.69520  0.60587  0.88115  1.0000
  Hf  Hf13      1.0  0.94485  0.10909  0.37559  1.0000
  Hf  Hf14      1.0  0.94343  0.10849  0.87537  1.0000
  Hf  Hf15      1.0  0.94870  0.60774  0.37397  1.0000
  Hf  Hf16      1.0  0.94911  0.60755  0.87021  1.0000
  Hf  Hf17      1.0  0.05534  0.39671  0.12684  1.0000
  Hf  Hf18      1.0  0.05409  0.39478  0.62455  1.0000
  Hf  Hf19      1.0  0.05573  0.89590  0.12742  1.0000
  Hf  Hf20      1.0  0.05009  0.89470  0.63377  1.0000
  Hf  Hf21      1.0  0.30284  0.39909  0.11030  1.0000
  Hf  Hf22      1.0  0.30595  0.39683  0.61692  1.0000
  Hf  Hf23      1.0  0.30541  0.89011  0.12543  1.0000
  Hf  Hf24      1.0  0.30646  0.90610  0.60589  1.0000
  Hf  Hf25      1.0  0.54912  0.38706  0.13157  1.0000
  Hf  Hf26      1.0  0.54969  0.38935  0.63135  1.0000
  Hf  Hf27      1.0  0.55545  0.89825  0.11550  1.0000
  Hf  Hf28      1.0  0.55351  0.89295  0.62733  1.0000
  Hf  Hf29      1.0  0.80422  0.39121  0.12600  1.0000
  Hf  Hf30      1.0  0.80579  0.39209  0.62985  1.0000
  Hf  Hf31      1.0  0.80528  0.88194  0.13389  1.0000
  Hf  Hf32      1.0  0.80649  0.90283  0.61543  1.0000
  Hf  Hf33      1.0  0.05366  0.17884  0.42348  1.0000
  Hf  Hf34      1.0  0.05561  0.19937  0.90675  1.0000
  Hf  Hf35      1.0  0.05243  0.68603  0.42471  1.0000
  Hf  Hf36      1.0  0.05700  0.67791  0.91960  1.0000
  Hf  Hf37      1.0  0.30304  0.19924  0.40395  1.0000
  Hf  Hf38      1.0  0.30631  0.17825  0.90784  1.0000
  Hf  Hf39      1.0  0.30465  0.67954  0.41281  1.0000
  Hf  Hf40      1.0  0.30589  0.68819  0.91382  1.0000
  Hf  Hf41      1.0  0.55749  0.17396  0.42286  1.0000
  Hf  Hf42      1.0  0.55567  0.18515  0.91666  1.0000
  Hf  Hf43      1.0  0.56222  0.68319  0.40650  1.0000
  Hf  Hf44      1.0  0.55592  0.67778  0.91819  1.0000
  Hf  Hf45      1.0  0.80809  0.18649  0.41842  1.0000
  Hf  Hf46      1.0  0.80155  0.16858  0.93355  1.0000
  Hf  Hf47      1.0  0.80564  0.67802  0.41858  1.0000
  Hf  Hf48      1.0  0.80516  0.68552  0.91954  1.0000
  Hf  Hf49      1.0  0.15405  0.38437  0.33702  1.0000
  Hf  Hf50      1.0  0.15897  0.38631  0.83970  1.0000
  Hf  Hf51      1.0  0.15983  0.88544  0.33667  1.0000
  Hf  Hf52      1.0  0.16160  0.89554  0.82406  1.0000
  Hf  Hf53      1.0  0.40954  0.39480  0.32251  1.0000
  Hf  Hf54      1.0  0.40693  0.37808  0.83207  1.0000
  Hf  Hf55      1.0  0.41162  0.88079  0.32902  1.0000
  Hf  Hf56      1.0  0.40955  0.88716  0.82774  1.0000
  Hf  Hf57      1.0  0.65820  0.39471  0.33539  1.0000
  Hf  Hf58      1.0  0.66059  0.38839  0.83360  1.0000
  Hf  Hf59      1.0  0.66364  0.89031  0.32731  1.0000
  Hf  Hf60      1.0  0.65668  0.88528  0.83552  1.0000
  Hf  Hf61      1.0  0.91232  0.39247  0.33160  1.0000
  Hf  Hf62      1.0  0.90930  0.39257  0.83213  1.0000
  Hf  Hf63      1.0  0.90881  0.89424  0.33020  1.0000
  Hf  Hf64      1.0  0.90958  0.88448  0.83838  1.0000
  Hf  Hf65      1.0  0.19423  0.32218  0.08199  1.0000
  Hf  Hf66      1.0  0.19293  0.32227  0.57960  1.0000
  Hf  Hf67      1.0  0.19586  0.82299  0.07769  1.0000
  Hf  Hf68      1.0  0.19466  0.82642  0.58291  1.0000
  Hf  Hf69      1.0  0.44380  0.31015  0.08343  1.0000
  Hf  Hf70      1.0  0.44363  0.31725  0.57750  1.0000
  Hf  Hf71      1.0  0.44329  0.81659  0.08373  1.0000
  Hf  Hf72      1.0  0.44622  0.80742  0.58210  1.0000
  Hf  Hf73      1.0  0.69095  0.32104  0.08420  1.0000
  Hf  Hf74      1.0  0.69792  0.32637  0.57250  1.0000
  Hf  Hf75      1.0  0.69245  0.82216  0.08297  1.0000
  Hf  Hf76      1.0  0.69186  0.81086  0.59445  1.0000
  Hf  Hf77      1.0  0.94021  0.32071  0.08348  1.0000
  Hf  Hf78      1.0  0.94551  0.31514  0.58733  1.0000
  Hf  Hf79      1.0  0.94807  0.81760  0.08071  1.0000
  Hf  Hf80      1.0  0.94185  0.81741  0.58677  1.0000
  Hf  Hf81      1.0  0.08718  0.11137  0.16926  1.0000
  Hf  Hf82      1.0  0.08940  0.11466  0.66486  1.0000
  Hf  Hf83      1.0  0.09282  0.61162  0.17056  1.0000
  Hf  Hf84      1.0  0.09168  0.61988  0.66544  1.0000
  Hf  Hf85      1.0  0.33815  0.11351  0.17007  1.0000
  Hf  Hf86      1.0  0.34299  0.12158  0.65409  1.0000
  Hf  Hf87      1.0  0.33826  0.61267  0.16863  1.0000
  Hf  Hf88      1.0  0.33798  0.62085  0.66856  1.0000
  Hf  Hf89      1.0  0.59251  0.10812  0.16448  1.0000
  Hf  Hf90      1.0  0.59194  0.11276  0.67182  1.0000
  Hf  Hf91      1.0  0.59160  0.61374  0.16449  1.0000
  Hf  Hf92      1.0  0.58858  0.61079  0.66817  1.0000
  Hf  Hf93      1.0  0.83997  0.11124  0.17011  1.0000
  Hf  Hf94      1.0  0.84443  0.11072  0.66760  1.0000
  Hf  Hf95      1.0  0.84467  0.60758  0.16423  1.0000
  Hf  Hf96      1.0  0.83989  0.61060  0.66939  1.0000
  F   F1        1.0  0.07692  0.13504  0.30384  1.0000
  F   F2        1.0  0.07995  0.14431  0.79484  1.0000
  F   F3        1.0  0.07863  0.63237  0.30288  1.0000
  F   F4        1.0  0.08034  0.62194  0.81546  1.0000
  F   F5        1.0  0.32853  0.13198  0.30587  1.0000
  F   F6        1.0  0.33326  0.12802  0.79265  1.0000
  F   F7        1.0  0.32108  0.60949  0.32197  1.0000
  F   F8        1.0  0.32851  0.62336  0.81131  1.0000
  F   F9        1.0  0.58584  0.14773  0.29276  1.0000
  F   F10       1.0  0.58324  0.13381  0.79790  1.0000
  F   F11       1.0  0.58908  0.62310  0.30758  1.0000
  F   F12       1.0  0.58018  0.61730  0.81234  1.0000
  F   F13       1.0  0.82584  0.14355  0.29782  1.0000
  F   F14       1.0  0.83321  0.12356  0.79981  1.0000
  F   F15       1.0  0.83517  0.63027  0.30433  1.0000
  F   F16       1.0  0.82531  0.62626  0.81212  1.0000
  F   F17       1.0  0.18339  0.34304  0.44545  1.0000
  F   F18       1.0  0.18344  0.34548  0.95308  1.0000
  F   F19       1.0  0.17914  0.84344  0.45569  1.0000
  F   F20       1.0  0.19777  0.84377  0.93528  1.0000
  F   F21       1.0  0.42550  0.33940  0.44500  1.0000
  F   F22       1.0  0.41911  0.31849  0.96618  1.0000
  F   F23       1.0  0.43765  0.81638  0.45126  1.0000
  F   F24       1.0  0.43624  0.82547  0.95374  1.0000
  F   F25       1.0  0.69004  0.35166  0.43151  1.0000
  F   F26       1.0  0.68489  0.32677  0.94747  1.0000
  F   F27       1.0  0.68741  0.84486  0.45338  1.0000
  F   F28       1.0  0.68062  0.83033  0.95198  1.0000
  F   F29       1.0  0.94056  0.33444  0.45309  1.0000
  F   F30       1.0  0.93543  0.33102  0.94887  1.0000
  F   F31       1.0  0.93216  0.86035  0.44652  1.0000
  F   F32       1.0  0.95020  0.85036  0.93698  1.0000
  F   F33       1.0  0.16294  0.37750  0.18991  1.0000
  F   F34       1.0  0.17585  0.37062  0.69749  1.0000
  F   F35       1.0  0.16441  0.87081  0.19588  1.0000
  F   F36       1.0  0.17075  0.89181  0.68478  1.0000
  F   F37       1.0  0.42408  0.36962  0.18447  1.0000
  F   F38       1.0  0.41644  0.35675  0.70153  1.0000
  F   F39       1.0  0.43295  0.87969  0.18350  1.0000
  F   F40       1.0  0.42198  0.85912  0.69485  1.0000
  F   F41       1.0  0.66160  0.36895  0.19220  1.0000
  F   F42       1.0  0.68221  0.37478  0.68728  1.0000
  F   F43       1.0  0.67422  0.88103  0.19341  1.0000
  F   F44       1.0  0.67370  0.87355  0.69497  1.0000
  F   F45       1.0  0.91979  0.38081  0.19057  1.0000
  F   F46       1.0  0.91796  0.35314  0.71266  1.0000
  F   F47       1.0  0.92508  0.86095  0.20259  1.0000
  F   F48       1.0  0.91473  0.85837  0.70675  1.0000
  F   F49       1.0  0.05989  0.15566  0.05373  1.0000
  F   F50       1.0  0.06939  0.15788  0.54812  1.0000
  F   F51       1.0  0.08046  0.66920  0.03776  1.0000
  F   F52       1.0  0.05483  0.65890  0.56723  1.0000
  F   F53       1.0  0.31215  0.15892  0.05322  1.0000
  F   F54       1.0  0.31980  0.17610  0.53704  1.0000
  F   F55       1.0  0.31571  0.67199  0.05323  1.0000
  F   F56       1.0  0.32278  0.68388  0.53671  1.0000
  F   F57       1.0  0.56802  0.15938  0.04480  1.0000
  F   F58       1.0  0.55878  0.16356  0.55675  1.0000
  F   F59       1.0  0.56777  0.64313  0.05070  1.0000
  F   F60       1.0  0.56618  0.66387  0.55061  1.0000
  F   F61       1.0  0.80312  0.13727  0.07599  1.0000
  F   F62       1.0  0.82466  0.16676  0.55039  1.0000
  F   F63       1.0  0.80762  0.65234  0.06245  1.0000
  F   F64       1.0  0.80968  0.66789  0.55946  1.0000
  F   F65       1.0  0.20671  0.20755  0.21777  1.0000
  F   F66       1.0  0.20675  0.20327  0.70479  1.0000
  F   F67       1.0  0.20060  0.70213  0.20446  1.0000
  F   F68       1.0  0.20012  0.70881  0.71838  1.0000
  F   F69       1.0  0.45634  0.18605  0.21560  1.0000
  F   F70       1.0  0.45181  0.19489  0.70397  1.0000
  F   F71       1.0  0.45173  0.69884  0.19989  1.0000
  F   F72       1.0  0.45792  0.68414  0.70600  1.0000
  F   F73       1.0  0.69787  0.21372  0.21604  1.0000
  F   F74       1.0  0.70637  0.21177  0.69512  1.0000
  F   F75       1.0  0.70724  0.70204  0.21824  1.0000
  F   F76       1.0  0.70537  0.69994  0.70838  1.0000
  F   F77       1.0  0.95404  0.21436  0.21671  1.0000
  F   F78       1.0  0.95096  0.19931  0.70632  1.0000
  F   F79       1.0  0.95302  0.70011  0.21722  1.0000
  F   F80       1.0  0.96443  0.70795  0.71626  1.0000
  F   F81       1.0  0.14725  0.11408  0.04140  1.0000
  F   F82       1.0  0.14693  0.07060  0.52935  1.0000
  F   F83       1.0  0.15638  0.58163  0.04768  1.0000
  F   F84       1.0  0.14238  0.60052  0.53410  1.0000
  F   F85       1.0  0.40330  0.10589  0.02909  1.0000
  F   F86       1.0  0.40293  0.10793  0.53251  1.0000
  F   F87       1.0  0.39767  0.58216  0.04515  1.0000
  F   F88       1.0  0.40403  0.60362  0.51824  1.0000
  F   F89       1.0  0.64927  0.07292  0.04506  1.0000
  F   F90       1.0  0.64969  0.09043  0.54621  1.0000
  F   F91       1.0  0.64856  0.58515  0.03732  1.0000
  F   F92       1.0  0.64981  0.60398  0.55058  1.0000
  F   F93       1.0  0.89643  0.10215  0.03469  1.0000
  F   F94       1.0  0.90592  0.09897  0.52855  1.0000
  F   F95       1.0  0.89029  0.56629  0.04686  1.0000
  F   F96       1.0  0.89745  0.61695  0.53950  1.0000
  F   F97       1.0  0.14843  0.20439  0.13936  1.0000
  F   F98       1.0  0.14933  0.20108  0.61492  1.0000
  F   F99       1.0  0.15302  0.70072  0.11627  1.0000
  F   F100      1.0  0.15112  0.69207  0.63135  1.0000
  F   F101      1.0  0.39743  0.19419  0.13903  1.0000
  F   F102      1.0  0.40135  0.20697  0.61585  1.0000
  F   F103      1.0  0.38929  0.69920  0.13985  1.0000
  F   F104      1.0  0.39764  0.69866  0.63305  1.0000
  F   F105      1.0  0.64714  0.19528  0.11812  1.0000
  F   F106      1.0  0.64967  0.19873  0.62113  1.0000
  F   F107      1.0  0.64757  0.70331  0.12991  1.0000
  F   F108      1.0  0.64916  0.70270  0.63633  1.0000
  F   F109      1.0  0.90292  0.19465  0.13797  1.0000
  F   F110      1.0  0.90108  0.19535  0.62591  1.0000
  F   F111      1.0  0.90839  0.68007  0.10322  1.0000
  F   F112      1.0  0.90742  0.68822  0.64687  1.0000
  F   F113      1.0  0.09509  0.30691  0.37889  1.0000
  F   F114      1.0  0.10340  0.31255  0.86034  1.0000
  F   F115      1.0  0.09923  0.79849  0.39475  1.0000
  F   F116      1.0  0.09695  0.79756  0.85714  1.0000
  F   F117      1.0  0.35456  0.30908  0.35859  1.0000
  F   F118      1.0  0.34686  0.29442  0.88561  1.0000
  F   F119      1.0  0.34974  0.80818  0.36299  1.0000
  F   F120      1.0  0.35366  0.80010  0.88300  1.0000
  F   F121      1.0  0.59652  0.29553  0.37725  1.0000
  F   F122      1.0  0.60468  0.28834  0.85446  1.0000
  F   F123      1.0  0.60627  0.79167  0.37530  1.0000
  F   F124      1.0  0.59825  0.79660  0.87841  1.0000
  F   F125      1.0  0.84702  0.30382  0.36625  1.0000
  F   F126      1.0  0.85386  0.28983  0.91617  1.0000
  F   F127      1.0  0.84864  0.79312  0.37688  1.0000
  F   F128      1.0  0.84477  0.80709  0.87613  1.0000
  F   F129      1.0  0.06746  0.25013  0.13687  1.0000
  F   F130      1.0  0.05486  0.25196  0.65403  1.0000
  F   F131      1.0  0.06349  0.74589  0.16169  1.0000
  F   F132      1.0  0.06736  0.75274  0.63987  1.0000
  F   F133      1.0  0.30888  0.23791  0.16756  1.0000
  F   F134      1.0  0.30989  0.25649  0.65487  1.0000
  F   F135      1.0  0.30359  0.74225  0.17474  1.0000
  F   F136      1.0  0.30567  0.75048  0.66675  1.0000
  F   F137      1.0  0.56090  0.24284  0.14471  1.0000
  F   F138      1.0  0.56222  0.25532  0.64638  1.0000
  F   F139      1.0  0.56316  0.74971  0.14443  1.0000
  F   F140      1.0  0.56996  0.75218  0.64745  1.0000
  F   F141      1.0  0.82563  0.25371  0.13047  1.0000
  F   F142      1.0  0.81034  0.24967  0.65978  1.0000
  F   F143      1.0  0.81785  0.74281  0.12783  1.0000
  F   F144      1.0  0.82073  0.76037  0.63187  1.0000
  F   F145      1.0  0.12439  0.39881  0.08954  1.0000
  F   F146      1.0  0.12160  0.34582  0.63321  1.0000
  F   F147      1.0  0.12568  0.87087  0.09699  1.0000
  F   F148      1.0  0.11625  0.85957  0.63391  1.0000
  F   F149      1.0  0.36932  0.37485  0.11074  1.0000
  F   F150      1.0  0.37789  0.37751  0.59101  1.0000
  F   F151      1.0  0.37804  0.87392  0.11062  1.0000
  F   F152      1.0  0.37303  0.87536  0.60018  1.0000
  F   F153      1.0  0.61966  0.37012  0.09181  1.0000
  F   F154      1.0  0.62940  0.36043  0.62190  1.0000
  F   F155      1.0  0.62167  0.87065  0.11662  1.0000
  F   F156      1.0  0.61983  0.86445  0.63186  1.0000
  F   F157      1.0  0.87350  0.37068  0.10423  1.0000
  F   F158      1.0  0.87613  0.36676  0.61496  1.0000
  F   F159      1.0  0.87961  0.83091  0.12766  1.0000
  F   F160      1.0  0.87653  0.87664  0.60622  1.0000
  F   F161      1.0  0.18321  0.25008  0.35717  1.0000
  F   F162      1.0  0.18393  0.25107  0.86285  1.0000
  F   F163      1.0  0.18681  0.75192  0.35125  1.0000
  F   F164      1.0  0.18145  0.74885  0.86402  1.0000
  F   F165      1.0  0.43597  0.25328  0.34464  1.0000
  F   F166      1.0  0.44424  0.24567  0.84136  1.0000
  F   F167      1.0  0.44153  0.75288  0.33426  1.0000
  F   F168      1.0  0.44178  0.74565  0.84030  1.0000
  F   F169      1.0  0.67868  0.24625  0.37126  1.0000
  F   F170      1.0  0.69149  0.23759  0.85642  1.0000
  F   F171      1.0  0.69124  0.74978  0.35123  1.0000
  F   F172      1.0  0.68169  0.74976  0.85114  1.0000
  F   F173      1.0  0.93577  0.25633  0.34602  1.0000
  F   F174      1.0  0.93967  0.24457  0.85382  1.0000
  F   F175      1.0  0.93416  0.76091  0.36147  1.0000
  F   F176      1.0  0.92848  0.75023  0.87057  1.0000
  F   F177      1.0  0.12985  0.14065  0.37140  1.0000
  F   F178      1.0  0.12663  0.13359  0.88696  1.0000
  F   F179      1.0  0.12477  0.64881  0.37718  1.0000
  F   F180      1.0  0.12042  0.61765  0.90431  1.0000
  F   F181      1.0  0.37831  0.11799  0.40270  1.0000
  F   F182      1.0  0.37628  0.11435  0.89980  1.0000
  F   F183      1.0  0.37288  0.62034  0.39341  1.0000
  F   F184      1.0  0.37689  0.62794  0.89876  1.0000
  F   F185      1.0  0.62749  0.10579  0.40474  1.0000
  F   F186      1.0  0.62648  0.11851  0.89131  1.0000
  F   F187      1.0  0.62487  0.62426  0.40883  1.0000
  F   F188      1.0  0.62780  0.61476  0.89457  1.0000
  F   F189      1.0  0.87289  0.11471  0.41186  1.0000
  F   F190      1.0  0.87290  0.12833  0.89539  1.0000
  F   F191      1.0  0.87364  0.61102  0.40712  1.0000
  F   F192      1.0  0.87614  0.63672  0.88478  1.0000
  F   F193      1.0  0.00520  0.35938  0.08975  1.0000
  F   F194      1.0  0.00496  0.36724  0.56856  1.0000
  F   F195      1.0  0.00669  0.86679  0.07040  1.0000
  F   F196      1.0  0.01170  0.86290  0.57470  1.0000
  F   F197      1.0  0.25778  0.34770  0.07430  1.0000
  F   F198      1.0  0.25671  0.38092  0.55382  1.0000
  F   F199      1.0  0.25708  0.86284  0.07372  1.0000
  F   F200      1.0  0.26299  0.87662  0.55799  1.0000
  F   F201      1.0  0.50810  0.35727  0.07611  1.0000
  F   F202      1.0  0.50839  0.35262  0.57096  1.0000
  F   F203      1.0  0.51379  0.86006  0.06840  1.0000
  F   F204      1.0  0.50688  0.86103  0.58175  1.0000
  F   F205      1.0  0.75590  0.35056  0.08249  1.0000
  F   F206      1.0  0.75922  0.37646  0.55421  1.0000
  F   F207      1.0  0.76127  0.86493  0.07062  1.0000
  F   F208      1.0  0.75681  0.85917  0.58388  1.0000
  F   F209      1.0  0.07159  0.49643  0.17053  1.0000
  F   F210      1.0  0.07575  0.48304  0.66132  1.0000
  F   F211      1.0  0.06918  0.98015  0.18372  1.0000
  F   F212      1.0  0.06447  0.98115  0.69241  1.0000
  F   F213      1.0  0.31778  0.49164  0.17801  1.0000
  F   F214      1.0  0.31945  0.48960  0.66125  1.0000
  F   F215      1.0  0.31734  0.97505  0.17456  1.0000
  F   F216      1.0  0.32680  0.00074  0.64833  1.0000
  F   F217      1.0  0.56479  0.47926  0.19594  1.0000
  F   F218      1.0  0.57026  0.47638  0.67433  1.0000
  F   F219      1.0  0.56872  0.98129  0.17536  1.0000
  F   F220      1.0  0.56415  0.99271  0.67976  1.0000
  F   F221      1.0  0.81055  0.48152  0.19952  1.0000
  F   F222      1.0  0.82378  0.49245  0.66993  1.0000
  F   F223      1.0  0.81969  0.96127  0.19622  1.0000
  F   F224      1.0  0.82266  0.98050  0.67428  1.0000
  F   F225      1.0  0.23993  0.14403  0.41753  1.0000
  F   F226      1.0  0.24531  0.13488  0.90830  1.0000
  F   F227      1.0  0.23099  0.63055  0.45151  1.0000
  F   F228      1.0  0.24147  0.65026  0.90786  1.0000
  F   F229      1.0  0.49890  0.13376  0.41171  1.0000
  F   F230      1.0  0.49701  0.14046  0.91462  1.0000
  F   F231      1.0  0.49962  0.63123  0.41957  1.0000
  F   F232      1.0  0.49071  0.62604  0.92938  1.0000
  F   F233      1.0  0.74172  0.13438  0.42746  1.0000
  F   F234      1.0  0.74458  0.11444  0.93135  1.0000
  F   F235      1.0  0.74310  0.63627  0.42915  1.0000
  F   F236      1.0  0.73807  0.63012  0.93807  1.0000
  F   F237      1.0  0.99358  0.15644  0.41911  1.0000
  F   F238      1.0  0.99252  0.13228  0.93104  1.0000
  F   F239      1.0  0.99002  0.64062  0.43150  1.0000
  F   F240      1.0  0.99303  0.63252  0.92452  1.0000
  F   F241      1.0  0.18139  0.01287  0.32045  1.0000
  F   F242      1.0  0.18523  0.01567  0.82103  1.0000
  F   F243      1.0  0.17870  0.51220  0.32352  1.0000
  F   F244      1.0  0.17997  0.50742  0.83225  1.0000
  F   F245      1.0  0.42879  0.00384  0.32347  1.0000
  F   F246      1.0  0.43698  0.99748  0.83253  1.0000
  F   F247      1.0  0.43378  0.51764  0.31975  1.0000
  F   F248      1.0  0.42777  0.50265  0.83182  1.0000
  F   F249      1.0  0.68098  0.01035  0.32622  1.0000
  F   F250      1.0  0.68358  0.00996  0.81975  1.0000
  F   F251      1.0  0.68403  0.52498  0.31374  1.0000
  F   F252      1.0  0.68637  0.51517  0.81531  1.0000
  F   F253      1.0  0.93374  0.02128  0.30721  1.0000
  F   F254      1.0  0.93244  0.01421  0.82738  1.0000
  F   F255      1.0  0.92883  0.50852  0.33786  1.0000
  F   F256      1.0  0.93047  0.51151  0.82091  1.0000
  F   F257      1.0  0.00050  0.26484  0.99651  1.0000
  F   F258      1.0  0.99987  0.23612  0.51860  1.0000
  F   F259      1.0  0.99653  0.72338  0.02966  1.0000
  F   F260      1.0  0.99918  0.75357  0.49776  1.0000
  F   F261      1.0  0.24584  0.23611  0.01231  1.0000
  F   F262      1.0  0.24467  0.23612  0.51025  1.0000
  F   F263      1.0  0.24878  0.73863  0.00301  1.0000
  F   F264      1.0  0.24653  0.75074  0.51840  1.0000
  F   F265      1.0  0.49997  0.27249  0.97602  1.0000
  F   F266      1.0  0.49629  0.25119  0.48792  1.0000
  F   F267      1.0  0.50278  0.73454  0.00885  1.0000
  F   F268      1.0  0.50675  0.75706  0.50129  1.0000
  F   F269      1.0  0.74879  0.25168  0.00473  1.0000
  F   F270      1.0  0.75576  0.24671  0.50379  1.0000
  F   F271      1.0  0.74689  0.75553  0.00388  1.0000
  F   F272      1.0  0.75039  0.75192  0.49738  1.0000
  F   F273      1.0  0.11985  0.99688  0.26312  1.0000
  F   F274      1.0  0.12451  0.01763  0.76253  1.0000
  F   F275      1.0  0.12142  0.48837  0.25905  1.0000
  F   F276      1.0  0.12519  0.49965  0.74758  1.0000
  F   F277      1.0  0.36603  0.99605  0.24462  1.0000
  F   F278      1.0  0.37805  0.99958  0.74504  1.0000
  F   F279      1.0  0.37389  0.50641  0.24693  1.0000
  F   F280      1.0  0.37524  0.49864  0.74843  1.0000
  F   F281      1.0  0.62465  0.99439  0.25666  1.0000
  F   F282      1.0  0.61743  0.99898  0.76868  1.0000
  F   F283      1.0  0.63410  0.50658  0.23008  1.0000
  F   F284      1.0  0.62528  0.49022  0.74548  1.0000
  F   F285      1.0  0.87563  0.99899  0.24614  1.0000
  F   F286      1.0  0.87409  0.98928  0.76274  1.0000
  F   F287      1.0  0.87259  0.49218  0.25976  1.0000
  F   F288      1.0  0.86737  0.48312  0.75875  1.0000
  F   F289      1.0  0.05069  0.02462  0.02174  1.0000
  F   F290      1.0  0.03993  0.02865  0.53353  1.0000
  F   F291      1.0  0.03406  0.53242  0.03967  1.0000
  F   F292      1.0  0.03876  0.53685  0.51694  1.0000
  F   F293      1.0  0.29452  0.03092  0.01799  1.0000
  F   F294      1.0  0.28671  0.04863  0.52681  1.0000
  F   F295      1.0  0.28849  0.53437  0.03432  1.0000
  F   F296      1.0  0.28526  0.53626  0.52672  1.0000
  F   F297      1.0  0.53142  0.02805  0.02980  1.0000
  F   F298      1.0  0.53777  0.02764  0.52351  1.0000
  F   F299      1.0  0.53736  0.52880  0.03485  1.0000
  F   F300      1.0  0.54615  0.53426  0.52544  1.0000
  F   F301      1.0  0.79922  0.01981  0.02714  1.0000
  F   F302      1.0  0.79013  0.03559  0.53323  1.0000
  F   F303      1.0  0.79300  0.52984  0.02288  1.0000
  F   F304      1.0  0.79476  0.52855  0.52713  1.0000
  F   F305      1.0  0.23076  0.42228  0.21510  1.0000
  F   F306      1.0  0.23447  0.40547  0.73959  1.0000
  F   F307      1.0  0.23410  0.90596  0.23169  1.0000
  F   F308      1.0  0.23833  0.91021  0.72760  1.0000
  F   F309      1.0  0.48174  0.42064  0.21928  1.0000
  F   F310      1.0  0.48022  0.41922  0.71829  1.0000
  F   F311      1.0  0.49167  0.92125  0.21754  1.0000
  F   F312      1.0  0.48180  0.91191  0.73584  1.0000
  F   F313      1.0  0.72783  0.40676  0.22529  1.0000
  F   F314      1.0  0.74230  0.40075  0.73738  1.0000
  F   F315      1.0  0.73571  0.91138  0.23565  1.0000
  F   F316      1.0  0.72826  0.90936  0.73483  1.0000
  F   F317      1.0  0.98848  0.41024  0.23059  1.0000
  F   F318      1.0  0.98861  0.41766  0.72115  1.0000
  F   F319      1.0  0.98722  0.91586  0.23199  1.0000
  F   F320      1.0  0.98040  0.92205  0.72052  1.0000
  F   F321      1.0  0.18762  0.47397  0.49151  1.0000
  F   F322      1.0  0.21213  0.47035  0.98035  1.0000
  F   F323      1.0  0.21284  0.96325  0.47054  1.0000
  F   F324      1.0  0.20014  0.97730  0.98960  1.0000
  F   F325      1.0  0.46354  0.46131  0.47135  1.0000
  F   F326      1.0  0.46368  0.44246  0.96859  1.0000
  F   F327      1.0  0.45589  0.95998  0.48360  1.0000
  F   F328      1.0  0.45318  0.96977  0.98255  1.0000
  F   F329      1.0  0.71001  0.47698  0.47473  1.0000
  F   F330      1.0  0.71583  0.45792  0.96268  1.0000
  F   F331      1.0  0.70489  0.97189  0.48522  1.0000
  F   F332      1.0  0.70856  0.95958  0.97066  1.0000
  F   F333      1.0  0.95753  0.47989  0.47707  1.0000
  F   F334      1.0  0.95963  0.46314  0.97646  1.0000
  F   F335      1.0  0.95977  0.97628  0.46731  1.0000
  F   F336      1.0  0.94548  0.97499  0.99097  1.0000
  F   F337      1.0  0.01564  0.07915  0.27781  1.0000
  F   F338      1.0  0.01339  0.08090  0.78281  1.0000
  F   F339      1.0  0.01652  0.59113  0.27619  1.0000
  F   F340      1.0  0.01736  0.57450  0.78438  1.0000
  F   F341      1.0  0.26298  0.07252  0.27414  1.0000
  F   F342      1.0  0.26592  0.08522  0.76594  1.0000
  F   F343      1.0  0.25662  0.58619  0.28050  1.0000
  F   F344      1.0  0.26469  0.57138  0.77585  1.0000
  F   F345      1.0  0.51918  0.07264  0.27937  1.0000
  F   F346      1.0  0.51453  0.08882  0.77885  1.0000
  F   F347      1.0  0.51559  0.59045  0.27609  1.0000
  F   F348      1.0  0.51572  0.57509  0.77451  1.0000
  F   F349      1.0  0.76667  0.07052  0.28780  1.0000
  F   F350      1.0  0.76530  0.08198  0.77553  1.0000
  F   F351      1.0  0.76705  0.58637  0.28215  1.0000
  F   F352      1.0  0.76542  0.58903  0.77551  1.0000
  F   F353      1.0  0.09894  0.41171  0.47506  1.0000
  F   F354      1.0  0.09475  0.40366  0.96837  1.0000
  F   F355      1.0  0.10058  0.90629  0.47096  1.0000
  F   F356      1.0  0.10872  0.89781  0.95650  1.0000
  F   F357      1.0  0.34855  0.41824  0.45300  1.0000
  F   F358      1.0  0.34486  0.41131  0.96051  1.0000
  F   F359      1.0  0.35569  0.91055  0.45984  1.0000
  F   F360      1.0  0.35248  0.90061  0.96588  1.0000
  F   F361      1.0  0.60104  0.41367  0.46317  1.0000
  F   F362      1.0  0.60190  0.39934  0.94903  1.0000
  F   F363      1.0  0.59997  0.89035  0.47340  1.0000
  F   F364      1.0  0.60286  0.91879  0.95705  1.0000
  F   F365      1.0  0.85410  0.39338  0.46562  1.0000
  F   F366      1.0  0.85077  0.41101  0.96943  1.0000
  F   F367      1.0  0.84701  0.91431  0.44829  1.0000
  F   F368      1.0  0.85799  0.89677  0.97298  1.0000
  F   F369      1.0  0.05250  0.30886  0.28064  1.0000
  F   F370      1.0  0.04866  0.31136  0.78223  1.0000
  F   F371      1.0  0.04602  0.80341  0.29374  1.0000
  F   F372      1.0  0.03218  0.79281  0.79890  1.0000
  F   F373      1.0  0.29155  0.31665  0.28920  1.0000
  F   F374      1.0  0.29964  0.30325  0.78591  1.0000
  F   F375      1.0  0.29934  0.79285  0.29302  1.0000
  F   F376      1.0  0.29747  0.80671  0.80084  1.0000
  F   F377      1.0  0.54787  0.30806  0.27495  1.0000
  F   F378      1.0  0.54435  0.30494  0.78455  1.0000
  F   F379      1.0  0.54403  0.79682  0.29966  1.0000
  F   F380      1.0  0.53871  0.79600  0.79321  1.0000
  F   F381      1.0  0.78396  0.29238  0.29932  1.0000
  F   F382      1.0  0.79937  0.29548  0.79790  1.0000
  F   F383      1.0  0.79673  0.78524  0.28791  1.0000
  F   F384      1.0  0.79342  0.79498  0.78481  1.0000
