data_image0
_chemical_formula_structural       Hf96F384
_chemical_formula_sum              "Hf96 F384"
_cell_length_a       31.0617
_cell_length_b       15.526
_cell_length_c       15.5202
_cell_angle_alpha    63.342
_cell_angle_beta     63.342
_cell_angle_gamma    80.1625

_space_group_name_H-M_alt    "P 1"
_space_group_IT_number       1

loop_
  _space_group_symop_operation_xyz
  'x, y, z'

loop_
  _atom_site_type_symbol
  _atom_site_label
  _atom_site_symmetry_multiplicity
  _atom_site_fract_x
  _atom_site_fract_y
  _atom_site_fract_z
  _atom_site_occupancy
  Hf  Hf1       1.0  0.19682  0.10744  0.37739  1.0000
  Hf  Hf2       1.0  0.19806  0.10596  0.87331  1.0000
  Hf  Hf3       1.0  0.19622  0.60836  0.37321  1.0000
  Hf  Hf4       1.0  0.19769  0.61418  0.87783  1.0000
  Hf  Hf5       1.0  0.45263  0.10260  0.36649  1.0000
  Hf  Hf6       1.0  0.44325  0.10867  0.87338  1.0000
  Hf  Hf7       1.0  0.44418  0.61198  0.36964  1.0000
  Hf  Hf8       1.0  0.44812  0.61325  0.86803  1.0000
  Hf  Hf9       1.0  0.69752  0.10792  0.37930  1.0000
  Hf  Hf10      1.0  0.69460  0.10476  0.87532  1.0000
  Hf  Hf11      1.0  0.69597  0.60163  0.37676  1.0000
  Hf  Hf12      1.0  0.69842  0.60868  0.86814  1.0000
  Hf  Hf13      1.0  0.94836  0.11250  0.36725  1.0000
  Hf  Hf14      1.0  0.94548  0.10482  0.87150  1.0000
  Hf  Hf15      1.0  0.94286  0.60369  0.38087  1.0000
  Hf  Hf16      1.0  0.94697  0.60341  0.88072  1.0000
  Hf  Hf17      1.0  0.05460  0.39079  0.12485  1.0000
  Hf  Hf18      1.0  0.05259  0.39612  0.62393  1.0000
  Hf  Hf19      1.0  0.05263  0.89237  0.13046  1.0000
  Hf  Hf20      1.0  0.05702  0.89020  0.62282  1.0000
  Hf  Hf21      1.0  0.30290  0.39198  0.13413  1.0000
  Hf  Hf22      1.0  0.30553  0.40274  0.61839  1.0000
  Hf  Hf23      1.0  0.30199  0.89175  0.11934  1.0000
  Hf  Hf24      1.0  0.30606  0.88896  0.62466  1.0000
  Hf  Hf25      1.0  0.55011  0.39527  0.12704  1.0000
  Hf  Hf26      1.0  0.55556  0.39215  0.62015  1.0000
  Hf  Hf27      1.0  0.55452  0.90035  0.12681  1.0000
  Hf  Hf28      1.0  0.55794  0.89287  0.62292  1.0000
  Hf  Hf29      1.0  0.80522  0.39204  0.13055  1.0000
  Hf  Hf30      1.0  0.80211  0.38880  0.62821  1.0000
  Hf  Hf31      1.0  0.79989  0.88735  0.13510  1.0000
  Hf  Hf32      1.0  0.80103  0.89657  0.62020  1.0000
  Hf  Hf33      1.0  0.05662  0.17331  0.41461  1.0000
  Hf  Hf34      1.0  0.05440  0.18390  0.91863  1.0000
  Hf  Hf35      1.0  0.05680  0.68757  0.41498  1.0000
  Hf  Hf36      1.0  0.05840  0.67368  0.91709  1.0000
  Hf  Hf37      1.0  0.30630  0.18347  0.42110  1.0000
  Hf  Hf38      1.0  0.30712  0.18393  0.92142  1.0000
  Hf  Hf39      1.0  0.30664  0.68583  0.40801  1.0000
  Hf  Hf40      1.0  0.30845  0.68027  0.91673  1.0000
  Hf  Hf41      1.0  0.55528  0.19004  0.41777  1.0000
  Hf  Hf42      1.0  0.55416  0.18371  0.91674  1.0000
  Hf  Hf43      1.0  0.55547  0.67989  0.41724  1.0000
  Hf  Hf44      1.0  0.55754  0.67884  0.91663  1.0000
  Hf  Hf45      1.0  0.80865  0.18281  0.40948  1.0000
  Hf  Hf46      1.0  0.80164  0.17611  0.91683  1.0000
  Hf  Hf47      1.0  0.80668  0.67676  0.41832  1.0000
  Hf  Hf48      1.0  0.80496  0.67965  0.91590  1.0000
  Hf  Hf49      1.0  0.15707  0.39051  0.33525  1.0000
  Hf  Hf50      1.0  0.16196  0.38470  0.83550  1.0000
  Hf  Hf51      1.0  0.15969  0.89255  0.33203  1.0000
  Hf  Hf52      1.0  0.16347  0.89589  0.81866  1.0000
  Hf  Hf53      1.0  0.40882  0.37862  0.34216  1.0000
  Hf  Hf54      1.0  0.41093  0.38660  0.84290  1.0000
  Hf  Hf55      1.0  0.40952  0.89110  0.33367  1.0000
  Hf  Hf56      1.0  0.40832  0.89545  0.83147  1.0000
  Hf  Hf57      1.0  0.66119  0.38778  0.33207  1.0000
  Hf  Hf58      1.0  0.65087  0.38492  0.84190  1.0000
  Hf  Hf59      1.0  0.65769  0.88180  0.33381  1.0000
  Hf  Hf60      1.0  0.66086  0.88501  0.82830  1.0000
  Hf  Hf61      1.0  0.90980  0.38870  0.32779  1.0000
  Hf  Hf62      1.0  0.90489  0.38636  0.83499  1.0000
  Hf  Hf63      1.0  0.90752  0.88816  0.33201  1.0000
  Hf  Hf64      1.0  0.90520  0.87992  0.84007  1.0000
  Hf  Hf65      1.0  0.19826  0.32424  0.07468  1.0000
  Hf  Hf66      1.0  0.19246  0.32256  0.58538  1.0000
  Hf  Hf67      1.0  0.19422  0.81569  0.07724  1.0000
  Hf  Hf68      1.0  0.19625  0.82166  0.57802  1.0000
  Hf  Hf69      1.0  0.44193  0.32548  0.08485  1.0000
  Hf  Hf70      1.0  0.44205  0.32302  0.58622  1.0000
  Hf  Hf71      1.0  0.44285  0.82830  0.08422  1.0000
  Hf  Hf72      1.0  0.44743  0.83111  0.57915  1.0000
  Hf  Hf73      1.0  0.69294  0.31595  0.08552  1.0000
  Hf  Hf74      1.0  0.69262  0.31075  0.59016  1.0000
  Hf  Hf75      1.0  0.69342  0.81456  0.08392  1.0000
  Hf  Hf76      1.0  0.69734  0.81459  0.57848  1.0000
  Hf  Hf77      1.0  0.94311  0.31106  0.08257  1.0000
  Hf  Hf78      1.0  0.94126  0.30466  0.58063  1.0000
  Hf  Hf79      1.0  0.94426  0.81908  0.08067  1.0000
  Hf  Hf80      1.0  0.94509  0.82489  0.58401  1.0000
  Hf  Hf81      1.0  0.09109  0.11255  0.16066  1.0000
  Hf  Hf82      1.0  0.08950  0.11082  0.67128  1.0000
  Hf  Hf83      1.0  0.09135  0.61718  0.16329  1.0000
  Hf  Hf84      1.0  0.09521  0.61346  0.66052  1.0000
  Hf  Hf85      1.0  0.33975  0.11062  0.17219  1.0000
  Hf  Hf86      1.0  0.34234  0.10976  0.66505  1.0000
  Hf  Hf87      1.0  0.34362  0.61290  0.16266  1.0000
  Hf  Hf88      1.0  0.34774  0.62107  0.66472  1.0000
  Hf  Hf89      1.0  0.59265  0.10843  0.17189  1.0000
  Hf  Hf90      1.0  0.59009  0.11189  0.67052  1.0000
  Hf  Hf91      1.0  0.58984  0.61541  0.16734  1.0000
  Hf  Hf92      1.0  0.59050  0.60722  0.67018  1.0000
  Hf  Hf93      1.0  0.83970  0.11790  0.15930  1.0000
  Hf  Hf94      1.0  0.83626  0.10260  0.67536  1.0000
  Hf  Hf95      1.0  0.84101  0.60758  0.17462  1.0000
  Hf  Hf96      1.0  0.84361  0.60965  0.66137  1.0000
  F   F1        1.0  0.07988  0.13881  0.29728  1.0000
  F   F2        1.0  0.07442  0.11468  0.81098  1.0000
  F   F3        1.0  0.08348  0.64494  0.29071  1.0000
  F   F4        1.0  0.08513  0.63423  0.78990  1.0000
  F   F5        1.0  0.32854  0.13923  0.30191  1.0000
  F   F6        1.0  0.32395  0.12063  0.82032  1.0000
  F   F7        1.0  0.32232  0.62852  0.30516  1.0000
  F   F8        1.0  0.33211  0.61969  0.80824  1.0000
  F   F9        1.0  0.58146  0.12602  0.31584  1.0000
  F   F10       1.0  0.57124  0.12023  0.81444  1.0000
  F   F11       1.0  0.58993  0.63943  0.29217  1.0000
  F   F12       1.0  0.58279  0.62533  0.80637  1.0000
  F   F13       1.0  0.83651  0.13651  0.29310  1.0000
  F   F14       1.0  0.82432  0.11294  0.80826  1.0000
  F   F15       1.0  0.82947  0.62453  0.31257  1.0000
  F   F16       1.0  0.83093  0.62839  0.80472  1.0000
  F   F17       1.0  0.18744  0.35511  0.43772  1.0000
  F   F18       1.0  0.19499  0.35026  0.94110  1.0000
  F   F19       1.0  0.18386  0.84892  0.44184  1.0000
  F   F20       1.0  0.18758  0.85542  0.93028  1.0000
  F   F21       1.0  0.43849  0.33107  0.44972  1.0000
  F   F22       1.0  0.44120  0.34575  0.94547  1.0000
  F   F23       1.0  0.44402  0.85331  0.44023  1.0000
  F   F24       1.0  0.43247  0.85077  0.94899  1.0000
  F   F25       1.0  0.68782  0.34165  0.44174  1.0000
  F   F26       1.0  0.67849  0.35067  0.95001  1.0000
  F   F27       1.0  0.68842  0.85391  0.43680  1.0000
  F   F28       1.0  0.68556  0.84788  0.94860  1.0000
  F   F29       1.0  0.92960  0.32650  0.44810  1.0000
  F   F30       1.0  0.94022  0.34583  0.93504  1.0000
  F   F31       1.0  0.94217  0.83777  0.43169  1.0000
  F   F32       1.0  0.94125  0.84403  0.93948  1.0000
  F   F33       1.0  0.17197  0.38622  0.18920  1.0000
  F   F34       1.0  0.17137  0.36614  0.69834  1.0000
  F   F35       1.0  0.17013  0.86930  0.19979  1.0000
  F   F36       1.0  0.18119  0.89362  0.67395  1.0000
  F   F37       1.0  0.41465  0.34579  0.21691  1.0000
  F   F38       1.0  0.41738  0.36026  0.70414  1.0000
  F   F39       1.0  0.41232  0.88074  0.19921  1.0000
  F   F40       1.0  0.42302  0.88056  0.69402  1.0000
  F   F41       1.0  0.66805  0.38803  0.19003  1.0000
  F   F42       1.0  0.65906  0.35629  0.70669  1.0000
  F   F43       1.0  0.67016  0.87276  0.19788  1.0000
  F   F44       1.0  0.67163  0.86407  0.69290  1.0000
  F   F45       1.0  0.92245  0.36613  0.19039  1.0000
  F   F46       1.0  0.91471  0.38090  0.70303  1.0000
  F   F47       1.0  0.92270  0.86717  0.20273  1.0000
  F   F48       1.0  0.90706  0.85714  0.70686  1.0000
  F   F49       1.0  0.06428  0.16227  0.05024  1.0000
  F   F50       1.0  0.05851  0.15376  0.57004  1.0000
  F   F51       1.0  0.06779  0.66777  0.04412  1.0000
  F   F52       1.0  0.06461  0.65004  0.55414  1.0000
  F   F53       1.0  0.31997  0.16309  0.05162  1.0000
  F   F54       1.0  0.30148  0.15700  0.56738  1.0000
  F   F55       1.0  0.30991  0.64958  0.06008  1.0000
  F   F56       1.0  0.32085  0.65630  0.55366  1.0000
  F   F57       1.0  0.56790  0.15224  0.06568  1.0000
  F   F58       1.0  0.56700  0.15811  0.55585  1.0000
  F   F59       1.0  0.56221  0.65237  0.05783  1.0000
  F   F60       1.0  0.55461  0.66177  0.57685  1.0000
  F   F61       1.0  0.80663  0.16362  0.05230  1.0000
  F   F62       1.0  0.81652  0.14796  0.55501  1.0000
  F   F63       1.0  0.82082  0.66034  0.05772  1.0000
  F   F64       1.0  0.82243  0.66553  0.53806  1.0000
  F   F65       1.0  0.20473  0.20861  0.20765  1.0000
  F   F66       1.0  0.20901  0.19799  0.72202  1.0000
  F   F67       1.0  0.19637  0.70001  0.21221  1.0000
  F   F68       1.0  0.19364  0.70790  0.71703  1.0000
  F   F69       1.0  0.46293  0.19988  0.21635  1.0000
  F   F70       1.0  0.44984  0.19832  0.72457  1.0000
  F   F71       1.0  0.44574  0.70289  0.21737  1.0000
  F   F72       1.0  0.44790  0.71069  0.71398  1.0000
  F   F73       1.0  0.69725  0.21010  0.21566  1.0000
  F   F74       1.0  0.70872  0.20857  0.70423  1.0000
  F   F75       1.0  0.70659  0.68671  0.22063  1.0000
  F   F76       1.0  0.69973  0.69259  0.70695  1.0000
  F   F77       1.0  0.95786  0.19487  0.20062  1.0000
  F   F78       1.0  0.95003  0.18979  0.71698  1.0000
  F   F79       1.0  0.94932  0.69946  0.22200  1.0000
  F   F80       1.0  0.95882  0.70472  0.70616  1.0000
  F   F81       1.0  0.14779  0.07980  0.03445  1.0000
  F   F82       1.0  0.14874  0.08774  0.53477  1.0000
  F   F83       1.0  0.14860  0.58927  0.04041  1.0000
  F   F84       1.0  0.15011  0.59169  0.54580  1.0000
  F   F85       1.0  0.39824  0.09062  0.03451  1.0000
  F   F86       1.0  0.39953  0.09430  0.53032  1.0000
  F   F87       1.0  0.40162  0.59194  0.04014  1.0000
  F   F88       1.0  0.40491  0.60279  0.51567  1.0000
  F   F89       1.0  0.64851  0.07500  0.03413  1.0000
  F   F90       1.0  0.65144  0.10270  0.54633  1.0000
  F   F91       1.0  0.64993  0.59757  0.02664  1.0000
  F   F92       1.0  0.64961  0.60118  0.53973  1.0000
  F   F93       1.0  0.88920  0.10152  0.03774  1.0000
  F   F94       1.0  0.89344  0.08623  0.54970  1.0000
  F   F95       1.0  0.90414  0.58605  0.04698  1.0000
  F   F96       1.0  0.90818  0.59004  0.54802  1.0000
  F   F97       1.0  0.15610  0.19393  0.10279  1.0000
  F   F98       1.0  0.15327  0.20456  0.61599  1.0000
  F   F99       1.0  0.15278  0.70859  0.09647  1.0000
  F   F100      1.0  0.15914  0.69320  0.62084  1.0000
  F   F101      1.0  0.40255  0.20387  0.11016  1.0000
  F   F102      1.0  0.39693  0.20130  0.63043  1.0000
  F   F103      1.0  0.39732  0.68969  0.13888  1.0000
  F   F104      1.0  0.40449  0.69909  0.61741  1.0000
  F   F105      1.0  0.65622  0.18296  0.12430  1.0000
  F   F106      1.0  0.64909  0.19337  0.63385  1.0000
  F   F107      1.0  0.65630  0.69537  0.11571  1.0000
  F   F108      1.0  0.65134  0.70506  0.62634  1.0000
  F   F109      1.0  0.90558  0.19246  0.12369  1.0000
  F   F110      1.0  0.89743  0.18648  0.62877  1.0000
  F   F111      1.0  0.89631  0.70283  0.13235  1.0000
  F   F112      1.0  0.89904  0.71499  0.62339  1.0000
  F   F113      1.0  0.09614  0.30026  0.38149  1.0000
  F   F114      1.0  0.09259  0.30161  0.88584  1.0000
  F   F115      1.0  0.09803  0.79818  0.37825  1.0000
  F   F116      1.0  0.10167  0.78857  0.85279  1.0000
  F   F117      1.0  0.34457  0.30318  0.38943  1.0000
  F   F118      1.0  0.34709  0.29360  0.88578  1.0000
  F   F119      1.0  0.34566  0.80035  0.38415  1.0000
  F   F120      1.0  0.35223  0.79488  0.89487  1.0000
  F   F121      1.0  0.59524  0.30389  0.38612  1.0000
  F   F122      1.0  0.59169  0.30740  0.89827  1.0000
  F   F123      1.0  0.59831  0.79973  0.36625  1.0000
  F   F124      1.0  0.59993  0.81197  0.90064  1.0000
  F   F125      1.0  0.85197  0.30366  0.37233  1.0000
  F   F126      1.0  0.84249  0.30174  0.86938  1.0000
  F   F127      1.0  0.84494  0.79504  0.36784  1.0000
  F   F128      1.0  0.84835  0.79485  0.87970  1.0000
  F   F129      1.0  0.06002  0.23928  0.14734  1.0000
  F   F130      1.0  0.06381  0.24527  0.65354  1.0000
  F   F131      1.0  0.05615  0.74758  0.15419  1.0000
  F   F132      1.0  0.07919  0.76014  0.60197  1.0000
  F   F133      1.0  0.31505  0.25372  0.15664  1.0000
  F   F134      1.0  0.31438  0.25101  0.64260  1.0000
  F   F135      1.0  0.31423  0.75124  0.14510  1.0000
  F   F136      1.0  0.31714  0.74534  0.65679  1.0000
  F   F137      1.0  0.56395  0.24854  0.14702  1.0000
  F   F138      1.0  0.56362  0.24387  0.64894  1.0000
  F   F139      1.0  0.56775  0.76097  0.14152  1.0000
  F   F140      1.0  0.56004  0.74402  0.66018  1.0000
  F   F141      1.0  0.81794  0.25335  0.13766  1.0000
  F   F142      1.0  0.81245  0.25545  0.62414  1.0000
  F   F143      1.0  0.80759  0.73894  0.16958  1.0000
  F   F144      1.0  0.81532  0.74869  0.64406  1.0000
  F   F145      1.0  0.12484  0.34724  0.11873  1.0000
  F   F146      1.0  0.12602  0.37933  0.59922  1.0000
  F   F147      1.0  0.12849  0.87810  0.09965  1.0000
  F   F148      1.0  0.12465  0.86635  0.62723  1.0000
  F   F149      1.0  0.37679  0.37899  0.10075  1.0000
  F   F150      1.0  0.37515  0.37369  0.60374  1.0000
  F   F151      1.0  0.36711  0.85413  0.12446  1.0000
  F   F152      1.0  0.37843  0.87470  0.60746  1.0000
  F   F153      1.0  0.62205  0.35079  0.12688  1.0000
  F   F154      1.0  0.62550  0.37357  0.59341  1.0000
  F   F155      1.0  0.62435  0.86365  0.10999  1.0000
  F   F156      1.0  0.62640  0.87519  0.60568  1.0000
  F   F157      1.0  0.87411  0.37061  0.09891  1.0000
  F   F158      1.0  0.87135  0.36504  0.61431  1.0000
  F   F159      1.0  0.87505  0.86480  0.10945  1.0000
  F   F160      1.0  0.87301  0.90141  0.57380  1.0000
  F   F161      1.0  0.18912  0.25369  0.35512  1.0000
  F   F162      1.0  0.17951  0.24772  0.87863  1.0000
  F   F163      1.0  0.18574  0.74529  0.36264  1.0000
  F   F164      1.0  0.18883  0.75153  0.86761  1.0000
  F   F165      1.0  0.42675  0.23304  0.37337  1.0000
  F   F166      1.0  0.43791  0.25462  0.85950  1.0000
  F   F167      1.0  0.43019  0.75754  0.36536  1.0000
  F   F168      1.0  0.43057  0.75391  0.86177  1.0000
  F   F169      1.0  0.68364  0.25005  0.36324  1.0000
  F   F170      1.0  0.67651  0.24176  0.86735  1.0000
  F   F171      1.0  0.69126  0.74087  0.35272  1.0000
  F   F172      1.0  0.69938  0.75404  0.84728  1.0000
  F   F173      1.0  0.93898  0.25171  0.34036  1.0000
  F   F174      1.0  0.92882  0.24607  0.86552  1.0000
  F   F175      1.0  0.91726  0.74600  0.37496  1.0000
  F   F176      1.0  0.92820  0.74459  0.87399  1.0000
  F   F177      1.0  0.12616  0.12731  0.39172  1.0000
  F   F178      1.0  0.12685  0.12423  0.89769  1.0000
  F   F179      1.0  0.12124  0.63671  0.40608  1.0000
  F   F180      1.0  0.12159  0.61237  0.90407  1.0000
  F   F181      1.0  0.37713  0.13591  0.38290  1.0000
  F   F182      1.0  0.37449  0.12096  0.90014  1.0000
  F   F183      1.0  0.37471  0.63372  0.39184  1.0000
  F   F184      1.0  0.37450  0.60274  0.91222  1.0000
  F   F185      1.0  0.62904  0.12734  0.40405  1.0000
  F   F186      1.0  0.62395  0.15041  0.87068  1.0000
  F   F187      1.0  0.61928  0.61749  0.41946  1.0000
  F   F188      1.0  0.62646  0.65954  0.88066  1.0000
  F   F189      1.0  0.87544  0.13353  0.38614  1.0000
  F   F190      1.0  0.87310  0.13834  0.87948  1.0000
  F   F191      1.0  0.87194  0.59644  0.42397  1.0000
  F   F192      1.0  0.87347  0.61756  0.91381  1.0000
  F   F193      1.0  0.00975  0.36537  0.06609  1.0000
  F   F194      1.0  0.00181  0.35161  0.58326  1.0000
  F   F195      1.0  0.01111  0.85965  0.07220  1.0000
  F   F196      1.0  0.00644  0.85661  0.58287  1.0000
  F   F197      1.0  0.25265  0.35849  0.09237  1.0000
  F   F198      1.0  0.25659  0.37191  0.56825  1.0000
  F   F199      1.0  0.25576  0.84688  0.07385  1.0000
  F   F200      1.0  0.26527  0.85804  0.56320  1.0000
  F   F201      1.0  0.50642  0.35405  0.08102  1.0000
  F   F202      1.0  0.51004  0.36598  0.57018  1.0000
  F   F203      1.0  0.50028  0.85955  0.09362  1.0000
  F   F204      1.0  0.50874  0.87232  0.56688  1.0000
  F   F205      1.0  0.75784  0.35659  0.07602  1.0000
  F   F206      1.0  0.75290  0.37318  0.56320  1.0000
  F   F207      1.0  0.75460  0.87134  0.08147  1.0000
  F   F208      1.0  0.75658  0.85131  0.57517  1.0000
  F   F209      1.0  0.06777  0.48684  0.16591  1.0000
  F   F210      1.0  0.07329  0.48862  0.66256  1.0000
  F   F211      1.0  0.06744  0.98986  0.17823  1.0000
  F   F212      1.0  0.06624  0.97966  0.67535  1.0000
  F   F213      1.0  0.31923  0.48248  0.18012  1.0000
  F   F214      1.0  0.31641  0.48524  0.69150  1.0000
  F   F215      1.0  0.31627  0.98593  0.17197  1.0000
  F   F216      1.0  0.32098  0.99029  0.67094  1.0000
  F   F217      1.0  0.57087  0.48514  0.16082  1.0000
  F   F218      1.0  0.57044  0.48789  0.67821  1.0000
  F   F219      1.0  0.56934  0.98054  0.17643  1.0000
  F   F220      1.0  0.56564  0.98771  0.66431  1.0000
  F   F221      1.0  0.82499  0.47609  0.18447  1.0000
  F   F222      1.0  0.82643  0.48425  0.66986  1.0000
  F   F223      1.0  0.80770  0.99511  0.17281  1.0000
  F   F224      1.0  0.81079  0.98603  0.68062  1.0000
  F   F225      1.0  0.24374  0.12890  0.43207  1.0000
  F   F226      1.0  0.23847  0.14441  0.92464  1.0000
  F   F227      1.0  0.24150  0.64307  0.42562  1.0000
  F   F228      1.0  0.24600  0.64234  0.92218  1.0000
  F   F229      1.0  0.50036  0.14861  0.40684  1.0000
  F   F230      1.0  0.48970  0.14815  0.92033  1.0000
  F   F231      1.0  0.49617  0.64071  0.42041  1.0000
  F   F232      1.0  0.49678  0.64801  0.91287  1.0000
  F   F233      1.0  0.74622  0.13625  0.42241  1.0000
  F   F234      1.0  0.74130  0.14396  0.91650  1.0000
  F   F235      1.0  0.74347  0.62439  0.43461  1.0000
  F   F236      1.0  0.74206  0.63238  0.93589  1.0000
  F   F237      1.0  0.99628  0.13818  0.41494  1.0000
  F   F238      1.0  0.99334  0.13348  0.92243  1.0000
  F   F239      1.0  0.99480  0.65075  0.40545  1.0000
  F   F240      1.0  0.99562  0.62751  0.92016  1.0000
  F   F241      1.0  0.18183  0.02228  0.31852  1.0000
  F   F242      1.0  0.17918  0.02703  0.80300  1.0000
  F   F243      1.0  0.17274  0.52116  0.32169  1.0000
  F   F244      1.0  0.18679  0.51082  0.82327  1.0000
  F   F245      1.0  0.43560  0.02302  0.32078  1.0000
  F   F246      1.0  0.43292  0.02157  0.81217  1.0000
  F   F247      1.0  0.42753  0.50771  0.33485  1.0000
  F   F248      1.0  0.43797  0.51111  0.81785  1.0000
  F   F249      1.0  0.68377  0.02244  0.31913  1.0000
  F   F250      1.0  0.68396  0.01645  0.81988  1.0000
  F   F251      1.0  0.68085  0.51216  0.32194  1.0000
  F   F252      1.0  0.67891  0.51698  0.82709  1.0000
  F   F253      1.0  0.92784  0.01188  0.34340  1.0000
  F   F254      1.0  0.92967  0.00449  0.83766  1.0000
  F   F255      1.0  0.93446  0.51550  0.31931  1.0000
  F   F256      1.0  0.93046  0.52721  0.81329  1.0000
  F   F257      1.0  0.99998  0.24729  0.99440  1.0000
  F   F258      1.0  0.00248  0.25333  0.48294  1.0000
  F   F259      1.0  0.99641  0.74437  0.01409  1.0000
  F   F260      1.0  0.00339  0.75736  0.48681  1.0000
  F   F261      1.0  0.24919  0.23754  0.01083  1.0000
  F   F262      1.0  0.24654  0.25900  0.50191  1.0000
  F   F263      1.0  0.24907  0.74077  0.99601  1.0000
  F   F264      1.0  0.24924  0.75801  0.49341  1.0000
  F   F265      1.0  0.50249  0.24504  0.00924  1.0000
  F   F266      1.0  0.49833  0.24657  0.51165  1.0000
  F   F267      1.0  0.50039  0.76033  0.00674  1.0000
  F   F268      1.0  0.49710  0.73839  0.51180  1.0000
  F   F269      1.0  0.74626  0.25569  0.98421  1.0000
  F   F270      1.0  0.74855  0.24356  0.50582  1.0000
  F   F271      1.0  0.74972  0.75164  0.00256  1.0000
  F   F272      1.0  0.74748  0.74501  0.48943  1.0000
  F   F273      1.0  0.11287  0.99091  0.27703  1.0000
  F   F274      1.0  0.12938  0.99913  0.73217  1.0000
  F   F275      1.0  0.11654  0.49335  0.25471  1.0000
  F   F276      1.0  0.13119  0.50446  0.74528  1.0000
  F   F277      1.0  0.38043  0.00953  0.25215  1.0000
  F   F278      1.0  0.37212  0.00390  0.75107  1.0000
  F   F279      1.0  0.38253  0.49271  0.24311  1.0000
  F   F280      1.0  0.39144  0.50798  0.73154  1.0000
  F   F281      1.0  0.62258  0.99660  0.25761  1.0000
  F   F282      1.0  0.62356  0.99705  0.75195  1.0000
  F   F283      1.0  0.61635  0.49862  0.24967  1.0000
  F   F284      1.0  0.62968  0.49980  0.73017  1.0000
  F   F285      1.0  0.87496  0.00490  0.23413  1.0000
  F   F286      1.0  0.87282  0.99141  0.76050  1.0000
  F   F287      1.0  0.87864  0.49734  0.25202  1.0000
  F   F288      1.0  0.87189  0.50006  0.75259  1.0000
  F   F289      1.0  0.03515  0.03582  0.03294  1.0000
  F   F290      1.0  0.04201  0.02666  0.52716  1.0000
  F   F291      1.0  0.04607  0.52955  0.01591  1.0000
  F   F292      1.0  0.03807  0.53064  0.52158  1.0000
  F   F293      1.0  0.29078  0.02775  0.02686  1.0000
  F   F294      1.0  0.29978  0.01791  0.51195  1.0000
  F   F295      1.0  0.29904  0.51664  0.01805  1.0000
  F   F296      1.0  0.28831  0.54435  0.52343  1.0000
  F   F297      1.0  0.53714  0.03532  0.02801  1.0000
  F   F298      1.0  0.54315  0.02582  0.51846  1.0000
  F   F299      1.0  0.53473  0.52652  0.02358  1.0000
  F   F300      1.0  0.53914  0.52755  0.52458  1.0000
  F   F301      1.0  0.78742  0.03239  0.02374  1.0000
  F   F302      1.0  0.79218  0.02805  0.51270  1.0000
  F   F303      1.0  0.78830  0.52695  0.04820  1.0000
  F   F304      1.0  0.79286  0.52929  0.54387  1.0000
  F   F305      1.0  0.23867  0.43303  0.22518  1.0000
  F   F306      1.0  0.23737  0.40037  0.72300  1.0000
  F   F307      1.0  0.23403  0.91691  0.22265  1.0000
  F   F308      1.0  0.23979  0.91097  0.72768  1.0000
  F   F309      1.0  0.48235  0.40497  0.23211  1.0000
  F   F310      1.0  0.48474  0.41855  0.72497  1.0000
  F   F311      1.0  0.48086  0.92369  0.22361  1.0000
  F   F312      1.0  0.48752  0.90217  0.73125  1.0000
  F   F313      1.0  0.73491  0.40405  0.23000  1.0000
  F   F314      1.0  0.72848  0.41349  0.72934  1.0000
  F   F315      1.0  0.72723  0.91702  0.22030  1.0000
  F   F316      1.0  0.73133  0.92283  0.71587  1.0000
  F   F317      1.0  0.98623  0.41633  0.21797  1.0000
  F   F318      1.0  0.98606  0.39782  0.73568  1.0000
  F   F319      1.0  0.98506  0.92303  0.21609  1.0000
  F   F320      1.0  0.97652  0.92283  0.72821  1.0000
  F   F321      1.0  0.20852  0.47797  0.47536  1.0000
  F   F322      1.0  0.20131  0.47767  0.98398  1.0000
  F   F323      1.0  0.21084  0.97064  0.47599  1.0000
  F   F324      1.0  0.20942  0.96429  0.97555  1.0000
  F   F325      1.0  0.46016  0.46544  0.48401  1.0000
  F   F326      1.0  0.45713  0.48128  0.97148  1.0000
  F   F327      1.0  0.46788  0.97324  0.47147  1.0000
  F   F328      1.0  0.45047  0.97046  0.98240  1.0000
  F   F329      1.0  0.69742  0.46199  0.48919  1.0000
  F   F330      1.0  0.71059  0.47783  0.96924  1.0000
  F   F331      1.0  0.71046  0.97064  0.47365  1.0000
  F   F332      1.0  0.70885  0.97499  0.96603  1.0000
  F   F333      1.0  0.94478  0.45667  0.47690  1.0000
  F   F334      1.0  0.95564  0.46399  0.97820  1.0000
  F   F335      1.0  0.96482  0.96538  0.46838  1.0000
  F   F336      1.0  0.95556  0.97397  0.99249  1.0000
  F   F337      1.0  0.01790  0.08730  0.26581  1.0000
  F   F338      1.0  0.01287  0.07001  0.77632  1.0000
  F   F339      1.0  0.01826  0.58808  0.27276  1.0000
  F   F340      1.0  0.01739  0.58646  0.76740  1.0000
  F   F341      1.0  0.26455  0.09398  0.26622  1.0000
  F   F342      1.0  0.26932  0.06970  0.77630  1.0000
  F   F343      1.0  0.26120  0.58459  0.28069  1.0000
  F   F344      1.0  0.25931  0.61347  0.76130  1.0000
  F   F345      1.0  0.52369  0.07394  0.28387  1.0000
  F   F346      1.0  0.51608  0.07382  0.78344  1.0000
  F   F347      1.0  0.51803  0.59669  0.26264  1.0000
  F   F348      1.0  0.51658  0.58317  0.77834  1.0000
  F   F349      1.0  0.76558  0.10598  0.27104  1.0000
  F   F350      1.0  0.75994  0.09105  0.76451  1.0000
  F   F351      1.0  0.76871  0.57323  0.28128  1.0000
  F   F352      1.0  0.77071  0.58277  0.77518  1.0000
  F   F353      1.0  0.09532  0.39505  0.47213  1.0000
  F   F354      1.0  0.10250  0.40386  0.96247  1.0000
  F   F355      1.0  0.10457  0.91641  0.45793  1.0000
  F   F356      1.0  0.10558  0.90134  0.96213  1.0000
  F   F357      1.0  0.34531  0.40604  0.47380  1.0000
  F   F358      1.0  0.35220  0.40531  0.96138  1.0000
  F   F359      1.0  0.35776  0.88986  0.46689  1.0000
  F   F360      1.0  0.34758  0.91722  0.95834  1.0000
  F   F361      1.0  0.60570  0.41018  0.45841  1.0000
  F   F362      1.0  0.59497  0.42773  0.96797  1.0000
  F   F363      1.0  0.60475  0.89223  0.46319  1.0000
  F   F364      1.0  0.59464  0.92737  0.97109  1.0000
  F   F365      1.0  0.84866  0.41522  0.45931  1.0000
  F   F366      1.0  0.84708  0.41410  0.95687  1.0000
  F   F367      1.0  0.84314  0.91046  0.44485  1.0000
  F   F368      1.0  0.84874  0.89980  0.98094  1.0000
  F   F369      1.0  0.04799  0.29842  0.27120  1.0000
  F   F370      1.0  0.04829  0.30374  0.78026  1.0000
  F   F371      1.0  0.04458  0.80409  0.28718  1.0000
  F   F372      1.0  0.04067  0.78891  0.78341  1.0000
  F   F373      1.0  0.30072  0.30484  0.29504  1.0000
  F   F374      1.0  0.30029  0.29286  0.78949  1.0000
  F   F375      1.0  0.29161  0.79995  0.28394  1.0000
  F   F376      1.0  0.29838  0.79829  0.79788  1.0000
  F   F377      1.0  0.54197  0.30307  0.29505  1.0000
  F   F378      1.0  0.55504  0.29841  0.77728  1.0000
  F   F379      1.0  0.54565  0.80695  0.29368  1.0000
  F   F380      1.0  0.55228  0.80569  0.78820  1.0000
  F   F381      1.0  0.79675  0.30528  0.29151  1.0000
  F   F382      1.0  0.79314  0.29278  0.78481  1.0000
  F   F383      1.0  0.78788  0.80455  0.29614  1.0000
  F   F384      1.0  0.79099  0.79690  0.79291  1.0000
