data_image0
_chemical_formula_structural       Hf96F384
_chemical_formula_sum              "Hf96 F384"
_cell_length_a       31.0491
_cell_length_b       15.5239
_cell_length_c       15.5142
_cell_angle_alpha    63.342
_cell_angle_beta     63.342
_cell_angle_gamma    80.1625

_space_group_name_H-M_alt    "P 1"
_space_group_IT_number       1

loop_
  _space_group_symop_operation_xyz
  'x, y, z'

loop_
  _atom_site_type_symbol
  _atom_site_label
  _atom_site_symmetry_multiplicity
  _atom_site_fract_x
  _atom_site_fract_y
  _atom_site_fract_z
  _atom_site_occupancy
  Hf  Hf1       1.0  0.19938  0.10183  0.37568  1.0000
  Hf  Hf2       1.0  0.19507  0.10062  0.88152  1.0000
  Hf  Hf3       1.0  0.19529  0.60286  0.37889  1.0000
  Hf  Hf4       1.0  0.19547  0.60304  0.87108  1.0000
  Hf  Hf5       1.0  0.44566  0.10399  0.38324  1.0000
  Hf  Hf6       1.0  0.44376  0.10642  0.87196  1.0000
  Hf  Hf7       1.0  0.44583  0.61155  0.37456  1.0000
  Hf  Hf8       1.0  0.44961  0.60615  0.86873  1.0000
  Hf  Hf9       1.0  0.69575  0.11584  0.37055  1.0000
  Hf  Hf10      1.0  0.69601  0.10571  0.86957  1.0000
  Hf  Hf11      1.0  0.70007  0.61728  0.37161  1.0000
  Hf  Hf12      1.0  0.69775  0.60549  0.87074  1.0000
  Hf  Hf13      1.0  0.94943  0.11543  0.35976  1.0000
  Hf  Hf14      1.0  0.94716  0.10747  0.87194  1.0000
  Hf  Hf15      1.0  0.94754  0.60538  0.37071  1.0000
  Hf  Hf16      1.0  0.94661  0.60725  0.87572  1.0000
  Hf  Hf17      1.0  0.05468  0.38877  0.12936  1.0000
  Hf  Hf18      1.0  0.05329  0.39914  0.62455  1.0000
  Hf  Hf19      1.0  0.05688  0.88606  0.12157  1.0000
  Hf  Hf20      1.0  0.05481  0.90117  0.61326  1.0000
  Hf  Hf21      1.0  0.30376  0.39363  0.13128  1.0000
  Hf  Hf22      1.0  0.29897  0.38649  0.63315  1.0000
  Hf  Hf23      1.0  0.30169  0.89096  0.13393  1.0000
  Hf  Hf24      1.0  0.30295  0.88512  0.62536  1.0000
  Hf  Hf25      1.0  0.55761  0.39612  0.10905  1.0000
  Hf  Hf26      1.0  0.54941  0.38387  0.63145  1.0000
  Hf  Hf27      1.0  0.55050  0.89869  0.12805  1.0000
  Hf  Hf28      1.0  0.55681  0.89646  0.62283  1.0000
  Hf  Hf29      1.0  0.80362  0.39619  0.11911  1.0000
  Hf  Hf30      1.0  0.80215  0.38862  0.62642  1.0000
  Hf  Hf31      1.0  0.80561  0.89498  0.12291  1.0000
  Hf  Hf32      1.0  0.80378  0.88878  0.62754  1.0000
  Hf  Hf33      1.0  0.05622  0.18803  0.41162  1.0000
  Hf  Hf34      1.0  0.05167  0.18531  0.91909  1.0000
  Hf  Hf35      1.0  0.05712  0.68536  0.41675  1.0000
  Hf  Hf36      1.0  0.05536  0.68207  0.92379  1.0000
  Hf  Hf37      1.0  0.30870  0.17939  0.41661  1.0000
  Hf  Hf38      1.0  0.30031  0.17786  0.92663  1.0000
  Hf  Hf39      1.0  0.30561  0.67858  0.41491  1.0000
  Hf  Hf40      1.0  0.30501  0.67545  0.92386  1.0000
  Hf  Hf41      1.0  0.55903  0.18823  0.40547  1.0000
  Hf  Hf42      1.0  0.55447  0.17618  0.91780  1.0000
  Hf  Hf43      1.0  0.55382  0.68068  0.41181  1.0000
  Hf  Hf44      1.0  0.55462  0.68615  0.90889  1.0000
  Hf  Hf45      1.0  0.80503  0.17409  0.42744  1.0000
  Hf  Hf46      1.0  0.80551  0.17552  0.92264  1.0000
  Hf  Hf47      1.0  0.80611  0.69199  0.41500  1.0000
  Hf  Hf48      1.0  0.80444  0.68784  0.91765  1.0000
  Hf  Hf49      1.0  0.15748  0.38057  0.34000  1.0000
  Hf  Hf50      1.0  0.15572  0.38431  0.83758  1.0000
  Hf  Hf51      1.0  0.15775  0.87969  0.34092  1.0000
  Hf  Hf52      1.0  0.16188  0.88415  0.83329  1.0000
  Hf  Hf53      1.0  0.41162  0.39120  0.32881  1.0000
  Hf  Hf54      1.0  0.40957  0.38441  0.84153  1.0000
  Hf  Hf55      1.0  0.41322  0.89007  0.33171  1.0000
  Hf  Hf56      1.0  0.40479  0.88037  0.83732  1.0000
  Hf  Hf57      1.0  0.66004  0.39694  0.32795  1.0000
  Hf  Hf58      1.0  0.66011  0.38880  0.82407  1.0000
  Hf  Hf59      1.0  0.65857  0.89864  0.32990  1.0000
  Hf  Hf60      1.0  0.65731  0.89246  0.82994  1.0000
  Hf  Hf61      1.0  0.91037  0.38752  0.33545  1.0000
  Hf  Hf62      1.0  0.91079  0.38742  0.83157  1.0000
  Hf  Hf63      1.0  0.91598  0.89863  0.32105  1.0000
  Hf  Hf64      1.0  0.90929  0.88719  0.83260  1.0000
  Hf  Hf65      1.0  0.19403  0.31689  0.08515  1.0000
  Hf  Hf66      1.0  0.19164  0.30979  0.58787  1.0000
  Hf  Hf67      1.0  0.19679  0.81145  0.08353  1.0000
  Hf  Hf68      1.0  0.19293  0.81634  0.58605  1.0000
  Hf  Hf69      1.0  0.44591  0.31299  0.08320  1.0000
  Hf  Hf70      1.0  0.44189  0.32409  0.57882  1.0000
  Hf  Hf71      1.0  0.44469  0.81895  0.08540  1.0000
  Hf  Hf72      1.0  0.44314  0.81454  0.58670  1.0000
  Hf  Hf73      1.0  0.69246  0.32241  0.07973  1.0000
  Hf  Hf74      1.0  0.69011  0.32005  0.58143  1.0000
  Hf  Hf75      1.0  0.69036  0.81719  0.08973  1.0000
  Hf  Hf76      1.0  0.69266  0.82508  0.57775  1.0000
  Hf  Hf77      1.0  0.94570  0.32100  0.08376  1.0000
  Hf  Hf78      1.0  0.94237  0.31408  0.59060  1.0000
  Hf  Hf79      1.0  0.94907  0.81347  0.08061  1.0000
  Hf  Hf80      1.0  0.94834  0.82540  0.57410  1.0000
  Hf  Hf81      1.0  0.09264  0.10917  0.17080  1.0000
  Hf  Hf82      1.0  0.09129  0.11489  0.66759  1.0000
  Hf  Hf83      1.0  0.09532  0.60934  0.16566  1.0000
  Hf  Hf84      1.0  0.09013  0.61137  0.67219  1.0000
  Hf  Hf85      1.0  0.34139  0.10778  0.17602  1.0000
  Hf  Hf86      1.0  0.33929  0.10748  0.66842  1.0000
  Hf  Hf87      1.0  0.34424  0.62003  0.15770  1.0000
  Hf  Hf88      1.0  0.34228  0.60039  0.67217  1.0000
  Hf  Hf89      1.0  0.59120  0.12277  0.15768  1.0000
  Hf  Hf90      1.0  0.58517  0.11369  0.67055  1.0000
  Hf  Hf91      1.0  0.59084  0.61696  0.15786  1.0000
  Hf  Hf92      1.0  0.59146  0.61932  0.65777  1.0000
  Hf  Hf93      1.0  0.84127  0.11006  0.17148  1.0000
  Hf  Hf94      1.0  0.84428  0.10717  0.67171  1.0000
  Hf  Hf95      1.0  0.83939  0.61752  0.17254  1.0000
  Hf  Hf96      1.0  0.84191  0.60813  0.66408  1.0000
  F   F1        1.0  0.07703  0.13331  0.30109  1.0000
  F   F2        1.0  0.07931  0.12567  0.80931  1.0000
  F   F3        1.0  0.08228  0.63878  0.30102  1.0000
  F   F4        1.0  0.08813  0.63468  0.79156  1.0000
  F   F5        1.0  0.33673  0.11729  0.31064  1.0000
  F   F6        1.0  0.32105  0.11340  0.82505  1.0000
  F   F7        1.0  0.33808  0.65046  0.28753  1.0000
  F   F8        1.0  0.32096  0.60176  0.81998  1.0000
  F   F9        1.0  0.57764  0.12093  0.30847  1.0000
  F   F10       1.0  0.57937  0.13512  0.80186  1.0000
  F   F11       1.0  0.57515  0.62381  0.30684  1.0000
  F   F12       1.0  0.57727  0.62302  0.80798  1.0000
  F   F13       1.0  0.83136  0.14728  0.29630  1.0000
  F   F14       1.0  0.83404  0.13248  0.80139  1.0000
  F   F15       1.0  0.81586  0.62096  0.32390  1.0000
  F   F16       1.0  0.83222  0.62691  0.79605  1.0000
  F   F17       1.0  0.19044  0.33806  0.43877  1.0000
  F   F18       1.0  0.18461  0.32934  0.94930  1.0000
  F   F19       1.0  0.18866  0.84704  0.44319  1.0000
  F   F20       1.0  0.18769  0.84256  0.94272  1.0000
  F   F21       1.0  0.44405  0.35052  0.42900  1.0000
  F   F22       1.0  0.44608  0.34363  0.93197  1.0000
  F   F23       1.0  0.43037  0.83424  0.45489  1.0000
  F   F24       1.0  0.43139  0.83287  0.94979  1.0000
  F   F25       1.0  0.68609  0.35367  0.44143  1.0000
  F   F26       1.0  0.68388  0.34555  0.93983  1.0000
  F   F27       1.0  0.69026  0.84994  0.43715  1.0000
  F   F28       1.0  0.68214  0.83924  0.94147  1.0000
  F   F29       1.0  0.93890  0.33716  0.44063  1.0000
  F   F30       1.0  0.92379  0.33292  0.96539  1.0000
  F   F31       1.0  0.94746  0.86199  0.42336  1.0000
  F   F32       1.0  0.94061  0.83412  0.94779  1.0000
  F   F33       1.0  0.16676  0.36392  0.20142  1.0000
  F   F34       1.0  0.17612  0.37146  0.68923  1.0000
  F   F35       1.0  0.16928  0.86067  0.20498  1.0000
  F   F36       1.0  0.16797  0.86789  0.69865  1.0000
  F   F37       1.0  0.42868  0.39578  0.18316  1.0000
  F   F38       1.0  0.42399  0.37043  0.69840  1.0000
  F   F39       1.0  0.42430  0.86484  0.20145  1.0000
  F   F40       1.0  0.41638  0.86314  0.70089  1.0000
  F   F41       1.0  0.66685  0.37670  0.19341  1.0000
  F   F42       1.0  0.67478  0.37657  0.69198  1.0000
  F   F43       1.0  0.66561  0.86851  0.20433  1.0000
  F   F44       1.0  0.67760  0.88196  0.68331  1.0000
  F   F45       1.0  0.92364  0.37290  0.19856  1.0000
  F   F46       1.0  0.91677  0.35700  0.71067  1.0000
  F   F47       1.0  0.92658  0.87124  0.18882  1.0000
  F   F48       1.0  0.92579  0.86081  0.70238  1.0000
  F   F49       1.0  0.06658  0.15823  0.05910  1.0000
  F   F50       1.0  0.06632  0.14655  0.56470  1.0000
  F   F51       1.0  0.06135  0.66060  0.06084  1.0000
  F   F52       1.0  0.06118  0.66487  0.56666  1.0000
  F   F53       1.0  0.31100  0.15311  0.06874  1.0000
  F   F54       1.0  0.30923  0.15011  0.56936  1.0000
  F   F55       1.0  0.30415  0.65981  0.06829  1.0000
  F   F56       1.0  0.31949  0.66031  0.54380  1.0000
  F   F57       1.0  0.56987  0.16577  0.04692  1.0000
  F   F58       1.0  0.55707  0.14889  0.55832  1.0000
  F   F59       1.0  0.56436  0.65865  0.04534  1.0000
  F   F60       1.0  0.56284  0.66193  0.55858  1.0000
  F   F61       1.0  0.80763  0.15799  0.05563  1.0000
  F   F62       1.0  0.80844  0.15148  0.56223  1.0000
  F   F63       1.0  0.81454  0.67855  0.03876  1.0000
  F   F64       1.0  0.81372  0.67742  0.55100  1.0000
  F   F65       1.0  0.20819  0.18817  0.21846  1.0000
  F   F66       1.0  0.20163  0.19347  0.71529  1.0000
  F   F67       1.0  0.20217  0.69519  0.22168  1.0000
  F   F68       1.0  0.19133  0.68499  0.71907  1.0000
  F   F69       1.0  0.43443  0.20834  0.22865  1.0000
  F   F70       1.0  0.45922  0.22159  0.71055  1.0000
  F   F71       1.0  0.44624  0.70498  0.21437  1.0000
  F   F72       1.0  0.46288  0.69955  0.69475  1.0000
  F   F73       1.0  0.71429  0.21474  0.19186  1.0000
  F   F74       1.0  0.70281  0.20999  0.70975  1.0000
  F   F75       1.0  0.70873  0.70661  0.20650  1.0000
  F   F76       1.0  0.70464  0.70221  0.70361  1.0000
  F   F77       1.0  0.96355  0.21401  0.20588  1.0000
  F   F78       1.0  0.95232  0.19845  0.71080  1.0000
  F   F79       1.0  0.96130  0.69871  0.20443  1.0000
  F   F80       1.0  0.95473  0.70741  0.70192  1.0000
  F   F81       1.0  0.14690  0.08624  0.04500  1.0000
  F   F82       1.0  0.15016  0.09485  0.53342  1.0000
  F   F83       1.0  0.14946  0.59347  0.03603  1.0000
  F   F84       1.0  0.14328  0.57433  0.55331  1.0000
  F   F85       1.0  0.40135  0.08519  0.03213  1.0000
  F   F86       1.0  0.39788  0.10349  0.54190  1.0000
  F   F87       1.0  0.39254  0.59530  0.02495  1.0000
  F   F88       1.0  0.39697  0.57348  0.54572  1.0000
  F   F89       1.0  0.64941  0.09859  0.04270  1.0000
  F   F90       1.0  0.64355  0.09991  0.52706  1.0000
  F   F91       1.0  0.64893  0.60108  0.03238  1.0000
  F   F92       1.0  0.64868  0.59059  0.54681  1.0000
  F   F93       1.0  0.90083  0.11213  0.04702  1.0000
  F   F94       1.0  0.89546  0.10356  0.53604  1.0000
  F   F95       1.0  0.90141  0.59264  0.03560  1.0000
  F   F96       1.0  0.89746  0.57836  0.53984  1.0000
  F   F97       1.0  0.15504  0.19259  0.12780  1.0000
  F   F98       1.0  0.15033  0.20539  0.61003  1.0000
  F   F99       1.0  0.15683  0.69341  0.12563  1.0000
  F   F100      1.0  0.15264  0.69971  0.60119  1.0000
  F   F101      1.0  0.40073  0.20056  0.10498  1.0000
  F   F102      1.0  0.40451  0.18630  0.63803  1.0000
  F   F103      1.0  0.40731  0.68883  0.11956  1.0000
  F   F104      1.0  0.40412  0.69661  0.62495  1.0000
  F   F105      1.0  0.64148  0.22258  0.14527  1.0000
  F   F106      1.0  0.64633  0.20036  0.61556  1.0000
  F   F107      1.0  0.64835  0.69394  0.13081  1.0000
  F   F108      1.0  0.65073  0.69319  0.62857  1.0000
  F   F109      1.0  0.90520  0.19670  0.14317  1.0000
  F   F110      1.0  0.90296  0.20154  0.62352  1.0000
  F   F111      1.0  0.89237  0.69809  0.14306  1.0000
  F   F112      1.0  0.90388  0.70862  0.59950  1.0000
  F   F113      1.0  0.09098  0.30940  0.39005  1.0000
  F   F114      1.0  0.09246  0.32527  0.85983  1.0000
  F   F115      1.0  0.09447  0.81173  0.37993  1.0000
  F   F116      1.0  0.10448  0.80629  0.89317  1.0000
  F   F117      1.0  0.35055  0.28908  0.37276  1.0000
  F   F118      1.0  0.34886  0.29600  0.89286  1.0000
  F   F119      1.0  0.34562  0.79809  0.35643  1.0000
  F   F120      1.0  0.34632  0.78735  0.91977  1.0000
  F   F121      1.0  0.60080  0.29944  0.38549  1.0000
  F   F122      1.0  0.59669  0.29331  0.86505  1.0000
  F   F123      1.0  0.59581  0.79991  0.38014  1.0000
  F   F124      1.0  0.60127  0.80247  0.87028  1.0000
  F   F125      1.0  0.85377  0.28968  0.35604  1.0000
  F   F126      1.0  0.83997  0.29773  0.88712  1.0000
  F   F127      1.0  0.85362  0.80176  0.38487  1.0000
  F   F128      1.0  0.84969  0.81467  0.86921  1.0000
  F   F129      1.0  0.06470  0.24685  0.14769  1.0000
  F   F130      1.0  0.06668  0.25348  0.64300  1.0000
  F   F131      1.0  0.06307  0.74463  0.14487  1.0000
  F   F132      1.0  0.06323  0.76563  0.65630  1.0000
  F   F133      1.0  0.31657  0.25019  0.14931  1.0000
  F   F134      1.0  0.30966  0.25429  0.64872  1.0000
  F   F135      1.0  0.32523  0.75689  0.13109  1.0000
  F   F136      1.0  0.31320  0.73726  0.65642  1.0000
  F   F137      1.0  0.55332  0.25178  0.17047  1.0000
  F   F138      1.0  0.55501  0.24051  0.65215  1.0000
  F   F139      1.0  0.56384  0.75585  0.13417  1.0000
  F   F140      1.0  0.56208  0.75620  0.65809  1.0000
  F   F141      1.0  0.82839  0.25921  0.11224  1.0000
  F   F142      1.0  0.81711  0.24398  0.64618  1.0000
  F   F143      1.0  0.80994  0.75212  0.15452  1.0000
  F   F144      1.0  0.80932  0.74645  0.66250  1.0000
  F   F145      1.0  0.12440  0.36619  0.10635  1.0000
  F   F146      1.0  0.12868  0.38804  0.59476  1.0000
  F   F147      1.0  0.12826  0.86607  0.10517  1.0000
  F   F148      1.0  0.12695  0.87494  0.60658  1.0000
  F   F149      1.0  0.37791  0.36276  0.11597  1.0000
  F   F150      1.0  0.37475  0.37357  0.60158  1.0000
  F   F151      1.0  0.37477  0.87863  0.11258  1.0000
  F   F152      1.0  0.37258  0.88193  0.60403  1.0000
  F   F153      1.0  0.62172  0.39344  0.09480  1.0000
  F   F154      1.0  0.62019  0.35342  0.63211  1.0000
  F   F155      1.0  0.62546  0.86530  0.10076  1.0000
  F   F156      1.0  0.62477  0.86871  0.61191  1.0000
  F   F157      1.0  0.87789  0.38913  0.09165  1.0000
  F   F158      1.0  0.87453  0.37538  0.59816  1.0000
  F   F159      1.0  0.87508  0.85869  0.12058  1.0000
  F   F160      1.0  0.87729  0.85373  0.62235  1.0000
  F   F161      1.0  0.18688  0.25187  0.35279  1.0000
  F   F162      1.0  0.17897  0.24707  0.85899  1.0000
  F   F163      1.0  0.18900  0.74734  0.35988  1.0000
  F   F164      1.0  0.19125  0.74402  0.84633  1.0000
  F   F165      1.0  0.43462  0.24846  0.35853  1.0000
  F   F166      1.0  0.43148  0.24446  0.87484  1.0000
  F   F167      1.0  0.43089  0.74978  0.36703  1.0000
  F   F168      1.0  0.43189  0.75202  0.84834  1.0000
  F   F169      1.0  0.68673  0.25749  0.35748  1.0000
  F   F170      1.0  0.68325  0.25238  0.84810  1.0000
  F   F171      1.0  0.68142  0.74939  0.36108  1.0000
  F   F172      1.0  0.68739  0.74488  0.85733  1.0000
  F   F173      1.0  0.93086  0.25097  0.36066  1.0000
  F   F174      1.0  0.93901  0.25250  0.85083  1.0000
  F   F175      1.0  0.94576  0.75994  0.33711  1.0000
  F   F176      1.0  0.93473  0.75091  0.86076  1.0000
  F   F177      1.0  0.12516  0.14083  0.38470  1.0000
  F   F178      1.0  0.12410  0.13777  0.88573  1.0000
  F   F179      1.0  0.12651  0.64038  0.39487  1.0000
  F   F180      1.0  0.12467  0.63001  0.90136  1.0000
  F   F181      1.0  0.37728  0.10243  0.41803  1.0000
  F   F182      1.0  0.37303  0.14769  0.86857  1.0000
  F   F183      1.0  0.37670  0.62316  0.39654  1.0000
  F   F184      1.0  0.37293  0.64562  0.87894  1.0000
  F   F185      1.0  0.63007  0.14689  0.36021  1.0000
  F   F186      1.0  0.62210  0.10698  0.90440  1.0000
  F   F187      1.0  0.62550  0.63092  0.38560  1.0000
  F   F188      1.0  0.62633  0.63558  0.88605  1.0000
  F   F189      1.0  0.87601  0.10634  0.40357  1.0000
  F   F190      1.0  0.87530  0.12962  0.90614  1.0000
  F   F191      1.0  0.87562  0.62942  0.38749  1.0000
  F   F192      1.0  0.87295  0.63666  0.89242  1.0000
  F   F193      1.0  0.01225  0.35570  0.07755  1.0000
  F   F194      1.0  0.00597  0.36698  0.58643  1.0000
  F   F195      1.0  0.01063  0.85677  0.05507  1.0000
  F   F196      1.0  0.01333  0.88492  0.55037  1.0000
  F   F197      1.0  0.25315  0.36553  0.08445  1.0000
  F   F198      1.0  0.25578  0.35479  0.56875  1.0000
  F   F199      1.0  0.25830  0.84833  0.09534  1.0000
  F   F200      1.0  0.25852  0.85100  0.57889  1.0000
  F   F201      1.0  0.50778  0.34937  0.07057  1.0000
  F   F202      1.0  0.51302  0.37644  0.54633  1.0000
  F   F203      1.0  0.50640  0.85794  0.08007  1.0000
  F   F204      1.0  0.50834  0.87486  0.57374  1.0000
  F   F205      1.0  0.75615  0.36508  0.07399  1.0000
  F   F206      1.0  0.75858  0.36596  0.56055  1.0000
  F   F207      1.0  0.75329  0.86465  0.07995  1.0000
  F   F208      1.0  0.75724  0.87460  0.56762  1.0000
  F   F209      1.0  0.06839  0.48416  0.19554  1.0000
  F   F210      1.0  0.06353  0.48473  0.68880  1.0000
  F   F211      1.0  0.07373  0.97840  0.17888  1.0000
  F   F212      1.0  0.06125  0.97950  0.68268  1.0000
  F   F213      1.0  0.32066  0.48174  0.18197  1.0000
  F   F214      1.0  0.31784  0.48253  0.67560  1.0000
  F   F215      1.0  0.31654  0.98639  0.17869  1.0000
  F   F216      1.0  0.31016  0.97941  0.68565  1.0000
  F   F217      1.0  0.57145  0.49799  0.16428  1.0000
  F   F218      1.0  0.57100  0.48225  0.66342  1.0000
  F   F219      1.0  0.56565  0.99418  0.17102  1.0000
  F   F220      1.0  0.56858  0.98380  0.67668  1.0000
  F   F221      1.0  0.81744  0.49936  0.16256  1.0000
  F   F222      1.0  0.81795  0.48102  0.68255  1.0000
  F   F223      1.0  0.82204  0.99644  0.16060  1.0000
  F   F224      1.0  0.82085  0.98995  0.66822  1.0000
  F   F225      1.0  0.24429  0.13777  0.43741  1.0000
  F   F226      1.0  0.23624  0.14534  0.92563  1.0000
  F   F227      1.0  0.23996  0.62753  0.43766  1.0000
  F   F228      1.0  0.24042  0.63378  0.93623  1.0000
  F   F229      1.0  0.49627  0.14157  0.41563  1.0000
  F   F230      1.0  0.49208  0.12732  0.91448  1.0000
  F   F231      1.0  0.48721  0.64225  0.43047  1.0000
  F   F232      1.0  0.48536  0.64606  0.92880  1.0000
  F   F233      1.0  0.74112  0.13097  0.43122  1.0000
  F   F234      1.0  0.74209  0.14236  0.92454  1.0000
  F   F235      1.0  0.73881  0.64831  0.44402  1.0000
  F   F236      1.0  0.74239  0.64003  0.93199  1.0000
  F   F237      1.0  0.99296  0.13769  0.42857  1.0000
  F   F238      1.0  0.98887  0.13005  0.93443  1.0000
  F   F239      1.0  0.98847  0.63566  0.42569  1.0000
  F   F240      1.0  0.99325  0.62685  0.92731  1.0000
  F   F241      1.0  0.17931  0.01949  0.33365  1.0000
  F   F242      1.0  0.18016  0.01415  0.82896  1.0000
  F   F243      1.0  0.18440  0.50336  0.33816  1.0000
  F   F244      1.0  0.18107  0.49988  0.83417  1.0000
  F   F245      1.0  0.43138  0.01875  0.32070  1.0000
  F   F246      1.0  0.42845  0.01955  0.81137  1.0000
  F   F247      1.0  0.43089  0.51836  0.31598  1.0000
  F   F248      1.0  0.42925  0.51390  0.83663  1.0000
  F   F249      1.0  0.68318  0.02307  0.31084  1.0000
  F   F250      1.0  0.68683  0.01891  0.79796  1.0000
  F   F251      1.0  0.67646  0.51698  0.32676  1.0000
  F   F252      1.0  0.68150  0.51589  0.81733  1.0000
  F   F253      1.0  0.93979  0.03109  0.28883  1.0000
  F   F254      1.0  0.92233  0.02599  0.82587  1.0000
  F   F255      1.0  0.93609  0.51566  0.32258  1.0000
  F   F256      1.0  0.93010  0.51914  0.82105  1.0000
  F   F257      1.0  0.99960  0.26066  0.98738  1.0000
  F   F258      1.0  0.00125  0.24673  0.50698  1.0000
  F   F259      1.0  0.99445  0.72272  0.01328  1.0000
  F   F260      1.0  0.00547  0.76433  0.48661  1.0000
  F   F261      1.0  0.25045  0.24022  0.01498  1.0000
  F   F262      1.0  0.25722  0.25740  0.49036  1.0000
  F   F263      1.0  0.25097  0.76442  0.98981  1.0000
  F   F264      1.0  0.25190  0.74217  0.50968  1.0000
  F   F265      1.0  0.49183  0.21197  0.03687  1.0000
  F   F266      1.0  0.50489  0.26291  0.49327  1.0000
  F   F267      1.0  0.50130  0.74452  0.00860  1.0000
  F   F268      1.0  0.50133  0.77033  0.48300  1.0000
  F   F269      1.0  0.74373  0.25186  0.99926  1.0000
  F   F270      1.0  0.74455  0.24280  0.50168  1.0000
  F   F271      1.0  0.74762  0.74805  0.00747  1.0000
  F   F272      1.0  0.75207  0.76071  0.49971  1.0000
  F   F273      1.0  0.11926  0.00266  0.27004  1.0000
  F   F274      1.0  0.12669  0.00318  0.74495  1.0000
  F   F275      1.0  0.13100  0.50271  0.24944  1.0000
  F   F276      1.0  0.13291  0.50452  0.74727  1.0000
  F   F277      1.0  0.37817  0.00065  0.24401  1.0000
  F   F278      1.0  0.37116  0.98633  0.74331  1.0000
  F   F279      1.0  0.36786  0.49214  0.25374  1.0000
  F   F280      1.0  0.37245  0.48428  0.77241  1.0000
  F   F281      1.0  0.62256  0.00580  0.24247  1.0000
  F   F282      1.0  0.62535  0.00705  0.73579  1.0000
  F   F283      1.0  0.62069  0.49554  0.24779  1.0000
  F   F284      1.0  0.61732  0.48454  0.75646  1.0000
  F   F285      1.0  0.87000  0.98903  0.26325  1.0000
  F   F286      1.0  0.86917  0.99492  0.76009  1.0000
  F   F287      1.0  0.87287  0.49942  0.25589  1.0000
  F   F288      1.0  0.87451  0.49027  0.75714  1.0000
  F   F289      1.0  0.03856  0.03846  0.02978  1.0000
  F   F290      1.0  0.04453  0.03625  0.51249  1.0000
  F   F291      1.0  0.04517  0.53342  0.03507  1.0000
  F   F292      1.0  0.04786  0.53486  0.51941  1.0000
  F   F293      1.0  0.29283  0.02912  0.03148  1.0000
  F   F294      1.0  0.28847  0.02881  0.52006  1.0000
  F   F295      1.0  0.29805  0.52716  0.02109  1.0000
  F   F296      1.0  0.28474  0.53400  0.52887  1.0000
  F   F297      1.0  0.53390  0.03195  0.02574  1.0000
  F   F298      1.0  0.55395  0.02638  0.50988  1.0000
  F   F299      1.0  0.54379  0.52471  0.01288  1.0000
  F   F300      1.0  0.53981  0.54446  0.51542  1.0000
  F   F301      1.0  0.79419  0.02506  0.01645  1.0000
  F   F302      1.0  0.79563  0.03166  0.50713  1.0000
  F   F303      1.0  0.79568  0.53193  0.02559  1.0000
  F   F304      1.0  0.79391  0.53318  0.53117  1.0000
  F   F305      1.0  0.22890  0.41883  0.22574  1.0000
  F   F306      1.0  0.23529  0.40985  0.73357  1.0000
  F   F307      1.0  0.22928  0.92787  0.22165  1.0000
  F   F308      1.0  0.23356  0.90093  0.73213  1.0000
  F   F309      1.0  0.49045  0.40163  0.22372  1.0000
  F   F310      1.0  0.48492  0.41933  0.72096  1.0000
  F   F311      1.0  0.48792  0.91694  0.23243  1.0000
  F   F312      1.0  0.48468  0.89814  0.73901  1.0000
  F   F313      1.0  0.73038  0.42557  0.22702  1.0000
  F   F314      1.0  0.73415  0.40758  0.72600  1.0000
  F   F315      1.0  0.73719  0.91398  0.22751  1.0000
  F   F316      1.0  0.73549  0.91359  0.72178  1.0000
  F   F317      1.0  0.98776  0.40128  0.23628  1.0000
  F   F318      1.0  0.98196  0.43489  0.71657  1.0000
  F   F319      1.0  0.99143  0.91616  0.20227  1.0000
  F   F320      1.0  0.98918  0.90264  0.73020  1.0000
  F   F321      1.0  0.21185  0.46452  0.47690  1.0000
  F   F322      1.0  0.20565  0.46505  0.97360  1.0000
  F   F323      1.0  0.21070  0.96709  0.48393  1.0000
  F   F324      1.0  0.21773  0.96193  0.97266  1.0000
  F   F325      1.0  0.45322  0.47697  0.48231  1.0000
  F   F326      1.0  0.45871  0.47067  0.97269  1.0000
  F   F327      1.0  0.45301  0.96589  0.48127  1.0000
  F   F328      1.0  0.45506  0.96133  0.97326  1.0000
  F   F329      1.0  0.70966  0.48029  0.46420  1.0000
  F   F330      1.0  0.70599  0.47368  0.97709  1.0000
  F   F331      1.0  0.69806  0.97871  0.48411  1.0000
  F   F332      1.0  0.70174  0.96867  0.98191  1.0000
  F   F333      1.0  0.95782  0.46129  0.47438  1.0000
  F   F334      1.0  0.96520  0.46623  0.97134  1.0000
  F   F335      1.0  0.94758  0.97136  0.49162  1.0000
  F   F336      1.0  0.95348  0.96414  0.97787  1.0000
  F   F337      1.0  0.01630  0.06869  0.28792  1.0000
  F   F338      1.0  0.01482  0.08619  0.77537  1.0000
  F   F339      1.0  0.01779  0.58402  0.27213  1.0000
  F   F340      1.0  0.01559  0.58688  0.77853  1.0000
  F   F341      1.0  0.27011  0.07451  0.29396  1.0000
  F   F342      1.0  0.26364  0.09561  0.77236  1.0000
  F   F343      1.0  0.26756  0.59130  0.27889  1.0000
  F   F344      1.0  0.26084  0.59747  0.75851  1.0000
  F   F345      1.0  0.51394  0.08477  0.27724  1.0000
  F   F346      1.0  0.51028  0.07309  0.77329  1.0000
  F   F347      1.0  0.51359  0.59102  0.27021  1.0000
  F   F348      1.0  0.51321  0.58596  0.77037  1.0000
  F   F349      1.0  0.77063  0.07873  0.28395  1.0000
  F   F350      1.0  0.76204  0.06984  0.78791  1.0000
  F   F351      1.0  0.76632  0.59821  0.25830  1.0000
  F   F352      1.0  0.76459  0.58570  0.76780  1.0000
  F   F353      1.0  0.10419  0.40645  0.46456  1.0000
  F   F354      1.0  0.09878  0.40494  0.96363  1.0000
  F   F355      1.0  0.10318  0.90819  0.47077  1.0000
  F   F356      1.0  0.10477  0.92232  0.95188  1.0000
  F   F357      1.0  0.35037  0.40099  0.46075  1.0000
  F   F358      1.0  0.35071  0.39909  0.97585  1.0000
  F   F359      1.0  0.35220  0.88986  0.46213  1.0000
  F   F360      1.0  0.34894  0.91642  0.96217  1.0000
  F   F361      1.0  0.59887  0.41560  0.47275  1.0000
  F   F362      1.0  0.59911  0.39435  0.95525  1.0000
  F   F363      1.0  0.60383  0.89341  0.46353  1.0000
  F   F364      1.0  0.59545  0.91488  0.96294  1.0000
  F   F365      1.0  0.84585  0.39825  0.46058  1.0000
  F   F366      1.0  0.84939  0.41014  0.95932  1.0000
  F   F367      1.0  0.85610  0.91526  0.46128  1.0000
  F   F368      1.0  0.85973  0.89418  0.96766  1.0000
  F   F369      1.0  0.04896  0.30124  0.28731  1.0000
  F   F370      1.0  0.04094  0.30342  0.78352  1.0000
  F   F371      1.0  0.04598  0.79268  0.28530  1.0000
  F   F372      1.0  0.05306  0.79923  0.80918  1.0000
  F   F373      1.0  0.29241  0.29585  0.29367  1.0000
  F   F374      1.0  0.30643  0.29888  0.78999  1.0000
  F   F375      1.0  0.28243  0.79996  0.29297  1.0000
  F   F376      1.0  0.29926  0.79817  0.79188  1.0000
  F   F377      1.0  0.55535  0.31153  0.28580  1.0000
  F   F378      1.0  0.53990  0.29428  0.79850  1.0000
  F   F379      1.0  0.54392  0.79974  0.27902  1.0000
  F   F380      1.0  0.54660  0.79729  0.79348  1.0000
  F   F381      1.0  0.79512  0.29907  0.26920  1.0000
  F   F382      1.0  0.79324  0.29171  0.78802  1.0000
  F   F383      1.0  0.79548  0.81212  0.29313  1.0000
  F   F384      1.0  0.79293  0.80005  0.79797  1.0000
