data_image0
_chemical_formula_structural       Hf96F384
_chemical_formula_sum              "Hf96 F384"
_cell_length_a       31.0299
_cell_length_b       15.5164
_cell_length_c       15.509
_cell_angle_alpha    63.342
_cell_angle_beta     63.342
_cell_angle_gamma    80.1625

_space_group_name_H-M_alt    "P 1"
_space_group_IT_number       1

loop_
  _space_group_symop_operation_xyz
  'x, y, z'

loop_
  _atom_site_type_symbol
  _atom_site_label
  _atom_site_symmetry_multiplicity
  _atom_site_fract_x
  _atom_site_fract_y
  _atom_site_fract_z
  _atom_site_occupancy
  Hf  Hf1       1.0  0.19751  0.10534  0.37891  1.0000
  Hf  Hf2       1.0  0.20238  0.10712  0.86506  1.0000
  Hf  Hf3       1.0  0.19482  0.60714  0.38340  1.0000
  Hf  Hf4       1.0  0.19859  0.60251  0.87593  1.0000
  Hf  Hf5       1.0  0.44629  0.11225  0.37147  1.0000
  Hf  Hf6       1.0  0.44679  0.11197  0.86870  1.0000
  Hf  Hf7       1.0  0.44723  0.60753  0.37053  1.0000
  Hf  Hf8       1.0  0.44591  0.60769  0.87740  1.0000
  Hf  Hf9       1.0  0.69475  0.11236  0.37134  1.0000
  Hf  Hf10      1.0  0.69362  0.11387  0.87745  1.0000
  Hf  Hf11      1.0  0.69661  0.61278  0.36974  1.0000
  Hf  Hf12      1.0  0.69534  0.61738  0.88081  1.0000
  Hf  Hf13      1.0  0.94773  0.10642  0.36797  1.0000
  Hf  Hf14      1.0  0.94417  0.10492  0.88001  1.0000
  Hf  Hf15      1.0  0.94470  0.60234  0.37934  1.0000
  Hf  Hf16      1.0  0.94586  0.60546  0.88282  1.0000
  Hf  Hf17      1.0  0.05329  0.38991  0.12939  1.0000
  Hf  Hf18      1.0  0.05465  0.38823  0.62966  1.0000
  Hf  Hf19      1.0  0.05452  0.88538  0.12858  1.0000
  Hf  Hf20      1.0  0.05182  0.89159  0.63830  1.0000
  Hf  Hf21      1.0  0.30178  0.39379  0.12830  1.0000
  Hf  Hf22      1.0  0.30294  0.39176  0.62826  1.0000
  Hf  Hf23      1.0  0.30237  0.88785  0.13405  1.0000
  Hf  Hf24      1.0  0.30504  0.89099  0.61859  1.0000
  Hf  Hf25      1.0  0.55238  0.39790  0.11167  1.0000
  Hf  Hf26      1.0  0.55578  0.40216  0.61780  1.0000
  Hf  Hf27      1.0  0.55411  0.89888  0.11835  1.0000
  Hf  Hf28      1.0  0.55406  0.89638  0.61909  1.0000
  Hf  Hf29      1.0  0.80197  0.39432  0.12999  1.0000
  Hf  Hf30      1.0  0.80393  0.39253  0.62690  1.0000
  Hf  Hf31      1.0  0.80642  0.88864  0.12797  1.0000
  Hf  Hf32      1.0  0.80366  0.89194  0.62712  1.0000
  Hf  Hf33      1.0  0.05613  0.17819  0.42324  1.0000
  Hf  Hf34      1.0  0.05475  0.16759  0.92527  1.0000
  Hf  Hf35      1.0  0.05078  0.68071  0.42557  1.0000
  Hf  Hf36      1.0  0.05840  0.67836  0.92332  1.0000
  Hf  Hf37      1.0  0.30768  0.17973  0.41321  1.0000
  Hf  Hf38      1.0  0.30567  0.18001  0.91890  1.0000
  Hf  Hf39      1.0  0.30773  0.67706  0.41772  1.0000
  Hf  Hf40      1.0  0.30755  0.68156  0.91124  1.0000
  Hf  Hf41      1.0  0.56001  0.19297  0.39780  1.0000
  Hf  Hf42      1.0  0.55483  0.18905  0.91030  1.0000
  Hf  Hf43      1.0  0.55710  0.69043  0.41566  1.0000
  Hf  Hf44      1.0  0.55524  0.68977  0.91653  1.0000
  Hf  Hf45      1.0  0.80466  0.18675  0.41943  1.0000
  Hf  Hf46      1.0  0.80581  0.17674  0.91922  1.0000
  Hf  Hf47      1.0  0.80541  0.67474  0.42368  1.0000
  Hf  Hf48      1.0  0.80500  0.67862  0.92029  1.0000
  Hf  Hf49      1.0  0.15609  0.38361  0.33815  1.0000
  Hf  Hf50      1.0  0.15280  0.37463  0.85062  1.0000
  Hf  Hf51      1.0  0.15207  0.88201  0.34405  1.0000
  Hf  Hf52      1.0  0.16104  0.88216  0.83554  1.0000
  Hf  Hf53      1.0  0.40873  0.38553  0.32610  1.0000
  Hf  Hf54      1.0  0.40916  0.38860  0.82980  1.0000
  Hf  Hf55      1.0  0.40879  0.88515  0.33033  1.0000
  Hf  Hf56      1.0  0.40796  0.89147  0.82778  1.0000
  Hf  Hf57      1.0  0.65749  0.40347  0.32364  1.0000
  Hf  Hf58      1.0  0.65642  0.39445  0.82403  1.0000
  Hf  Hf59      1.0  0.66131  0.89683  0.32242  1.0000
  Hf  Hf60      1.0  0.65892  0.89844  0.82554  1.0000
  Hf  Hf61      1.0  0.90876  0.38457  0.33451  1.0000
  Hf  Hf62      1.0  0.90958  0.39162  0.83113  1.0000
  Hf  Hf63      1.0  0.90672  0.88176  0.33081  1.0000
  Hf  Hf64      1.0  0.90800  0.89876  0.82743  1.0000
  Hf  Hf65      1.0  0.19234  0.31261  0.09070  1.0000
  Hf  Hf66      1.0  0.19098  0.31538  0.58942  1.0000
  Hf  Hf67      1.0  0.19871  0.81653  0.08513  1.0000
  Hf  Hf68      1.0  0.19261  0.81320  0.58581  1.0000
  Hf  Hf69      1.0  0.44341  0.32438  0.07597  1.0000
  Hf  Hf70      1.0  0.45128  0.32485  0.56504  1.0000
  Hf  Hf71      1.0  0.44459  0.80805  0.08066  1.0000
  Hf  Hf72      1.0  0.44483  0.82343  0.57995  1.0000
  Hf  Hf73      1.0  0.69566  0.32742  0.07032  1.0000
  Hf  Hf74      1.0  0.69757  0.32120  0.57900  1.0000
  Hf  Hf75      1.0  0.69530  0.82115  0.07867  1.0000
  Hf  Hf76      1.0  0.69427  0.82060  0.58239  1.0000
  Hf  Hf77      1.0  0.94333  0.31210  0.08184  1.0000
  Hf  Hf78      1.0  0.94285  0.31689  0.58422  1.0000
  Hf  Hf79      1.0  0.94531  0.81010  0.08152  1.0000
  Hf  Hf80      1.0  0.93828  0.81237  0.59288  1.0000
  Hf  Hf81      1.0  0.09050  0.10394  0.17329  1.0000
  Hf  Hf82      1.0  0.09064  0.11178  0.67127  1.0000
  Hf  Hf83      1.0  0.09483  0.61033  0.16709  1.0000
  Hf  Hf84      1.0  0.08990  0.60940  0.67653  1.0000
  Hf  Hf85      1.0  0.34002  0.11112  0.16937  1.0000
  Hf  Hf86      1.0  0.34371  0.11358  0.66304  1.0000
  Hf  Hf87      1.0  0.33974  0.60786  0.17337  1.0000
  Hf  Hf88      1.0  0.34375  0.60991  0.67011  1.0000
  Hf  Hf89      1.0  0.59255  0.11472  0.16231  1.0000
  Hf  Hf90      1.0  0.59080  0.11355  0.65634  1.0000
  Hf  Hf91      1.0  0.59157  0.61695  0.16829  1.0000
  Hf  Hf92      1.0  0.58947  0.62576  0.65995  1.0000
  Hf  Hf93      1.0  0.83933  0.10860  0.17733  1.0000
  Hf  Hf94      1.0  0.84183  0.11126  0.66045  1.0000
  Hf  Hf95      1.0  0.84355  0.61012  0.17036  1.0000
  Hf  Hf96      1.0  0.83800  0.60770  0.67256  1.0000
  F   F1        1.0  0.07297  0.11811  0.31800  1.0000
  F   F2        1.0  0.08068  0.11499  0.81160  1.0000
  F   F3        1.0  0.07718  0.62500  0.31365  1.0000
  F   F4        1.0  0.07682  0.62132  0.81664  1.0000
  F   F5        1.0  0.33005  0.12713  0.30209  1.0000
  F   F6        1.0  0.32864  0.11897  0.82026  1.0000
  F   F7        1.0  0.32625  0.59447  0.31847  1.0000
  F   F8        1.0  0.33735  0.62648  0.80418  1.0000
  F   F9        1.0  0.58344  0.14165  0.28576  1.0000
  F   F10       1.0  0.58498  0.14750  0.79503  1.0000
  F   F11       1.0  0.58598  0.64959  0.29193  1.0000
  F   F12       1.0  0.57987  0.63519  0.80081  1.0000
  F   F13       1.0  0.82517  0.12149  0.31823  1.0000
  F   F14       1.0  0.83544  0.13725  0.79591  1.0000
  F   F15       1.0  0.83091  0.62997  0.30739  1.0000
  F   F16       1.0  0.81896  0.61453  0.82008  1.0000
  F   F17       1.0  0.17813  0.33827  0.44834  1.0000
  F   F18       1.0  0.17483  0.32478  0.96296  1.0000
  F   F19       1.0  0.18356  0.83494  0.45351  1.0000
  F   F20       1.0  0.19028  0.84467  0.94602  1.0000
  F   F21       1.0  0.44210  0.34698  0.43295  1.0000
  F   F22       1.0  0.43186  0.35529  0.94650  1.0000
  F   F23       1.0  0.43941  0.83731  0.44097  1.0000
  F   F24       1.0  0.44548  0.85525  0.92994  1.0000
  F   F25       1.0  0.68688  0.36020  0.43325  1.0000
  F   F26       1.0  0.68554  0.36335  0.92777  1.0000
  F   F27       1.0  0.69035  0.84261  0.43665  1.0000
  F   F28       1.0  0.68641  0.85842  0.93912  1.0000
  F   F29       1.0  0.94053  0.34515  0.43645  1.0000
  F   F30       1.0  0.93385  0.33508  0.95242  1.0000
  F   F31       1.0  0.93021  0.83937  0.45403  1.0000
  F   F32       1.0  0.93486  0.84636  0.93991  1.0000
  F   F33       1.0  0.16903  0.34736  0.21318  1.0000
  F   F34       1.0  0.16761  0.35472  0.71158  1.0000
  F   F35       1.0  0.17596  0.88419  0.19868  1.0000
  F   F36       1.0  0.16637  0.84544  0.71272  1.0000
  F   F37       1.0  0.41839  0.36519  0.19190  1.0000
  F   F38       1.0  0.42073  0.36048  0.69552  1.0000
  F   F39       1.0  0.41777  0.86439  0.19294  1.0000
  F   F40       1.0  0.41557  0.88136  0.69694  1.0000
  F   F41       1.0  0.67365  0.39298  0.18829  1.0000
  F   F42       1.0  0.67357  0.39503  0.67551  1.0000
  F   F43       1.0  0.67273  0.88115  0.18195  1.0000
  F   F44       1.0  0.67111  0.86866  0.69187  1.0000
  F   F45       1.0  0.92393  0.36171  0.20436  1.0000
  F   F46       1.0  0.92688  0.37262  0.69589  1.0000
  F   F47       1.0  0.91750  0.85046  0.20789  1.0000
  F   F48       1.0  0.91113  0.85402  0.71062  1.0000
  F   F49       1.0  0.06618  0.16967  0.04264  1.0000
  F   F50       1.0  0.05822  0.14404  0.56542  1.0000
  F   F51       1.0  0.07108  0.66181  0.04809  1.0000
  F   F52       1.0  0.05692  0.65307  0.56668  1.0000
  F   F53       1.0  0.30900  0.14791  0.06197  1.0000
  F   F54       1.0  0.31705  0.16474  0.54348  1.0000
  F   F55       1.0  0.31845  0.66212  0.05640  1.0000
  F   F56       1.0  0.32011  0.66104  0.54753  1.0000
  F   F57       1.0  0.56463  0.16987  0.04585  1.0000
  F   F58       1.0  0.56727  0.16159  0.53920  1.0000
  F   F59       1.0  0.56628  0.66068  0.04903  1.0000
  F   F60       1.0  0.56806  0.67857  0.54428  1.0000
  F   F61       1.0  0.81515  0.15355  0.05218  1.0000
  F   F62       1.0  0.81710  0.15577  0.54939  1.0000
  F   F63       1.0  0.81577  0.65150  0.06361  1.0000
  F   F64       1.0  0.81458  0.65531  0.55744  1.0000
  F   F65       1.0  0.20972  0.19738  0.20898  1.0000
  F   F66       1.0  0.21347  0.19812  0.70514  1.0000
  F   F67       1.0  0.20787  0.70440  0.21155  1.0000
  F   F68       1.0  0.21138  0.69496  0.71625  1.0000
  F   F69       1.0  0.45485  0.19917  0.21294  1.0000
  F   F70       1.0  0.45853  0.19568  0.69068  1.0000
  F   F71       1.0  0.45896  0.69476  0.20371  1.0000
  F   F72       1.0  0.44634  0.70477  0.70842  1.0000
  F   F73       1.0  0.70223  0.21153  0.19933  1.0000
  F   F74       1.0  0.69184  0.21785  0.72222  1.0000
  F   F75       1.0  0.69997  0.70773  0.20407  1.0000
  F   F76       1.0  0.70554  0.70865  0.71352  1.0000
  F   F77       1.0  0.96127  0.19701  0.21466  1.0000
  F   F78       1.0  0.94353  0.20035  0.71635  1.0000
  F   F79       1.0  0.95290  0.69498  0.20404  1.0000
  F   F80       1.0  0.94483  0.70186  0.71623  1.0000
  F   F81       1.0  0.15255  0.09607  0.04703  1.0000
  F   F82       1.0  0.14546  0.09366  0.53372  1.0000
  F   F83       1.0  0.15244  0.58972  0.02806  1.0000
  F   F84       1.0  0.14761  0.60148  0.54199  1.0000
  F   F85       1.0  0.39741  0.09866  0.03941  1.0000
  F   F86       1.0  0.40267  0.10043  0.53827  1.0000
  F   F87       1.0  0.40489  0.58280  0.04235  1.0000
  F   F88       1.0  0.39815  0.57332  0.53395  1.0000
  F   F89       1.0  0.65148  0.09337  0.05054  1.0000
  F   F90       1.0  0.64954  0.07848  0.53422  1.0000
  F   F91       1.0  0.64939  0.60028  0.03196  1.0000
  F   F92       1.0  0.64865  0.60777  0.53786  1.0000
  F   F93       1.0  0.89668  0.09145  0.05150  1.0000
  F   F94       1.0  0.89831  0.08999  0.53662  1.0000
  F   F95       1.0  0.90114  0.58274  0.03814  1.0000
  F   F96       1.0  0.89661  0.60223  0.53955  1.0000
  F   F97       1.0  0.14578  0.19411  0.14849  1.0000
  F   F98       1.0  0.15211  0.19392  0.63757  1.0000
  F   F99       1.0  0.15374  0.69238  0.11216  1.0000
  F   F100      1.0  0.15042  0.69317  0.63765  1.0000
  F   F101      1.0  0.40300  0.20240  0.13317  1.0000
  F   F102      1.0  0.40441  0.20094  0.62197  1.0000
  F   F103      1.0  0.39899  0.69087  0.13162  1.0000
  F   F104      1.0  0.40506  0.69402  0.60539  1.0000
  F   F105      1.0  0.65324  0.21907  0.09773  1.0000
  F   F106      1.0  0.65464  0.18704  0.61559  1.0000
  F   F107      1.0  0.65050  0.70339  0.11137  1.0000
  F   F108      1.0  0.65002  0.70417  0.62219  1.0000
  F   F109      1.0  0.90383  0.19239  0.14264  1.0000
  F   F110      1.0  0.90098  0.20644  0.60522  1.0000
  F   F111      1.0  0.90685  0.69177  0.11328  1.0000
  F   F112      1.0  0.89204  0.69540  0.64563  1.0000
  F   F113      1.0  0.10123  0.28627  0.39494  1.0000
  F   F114      1.0  0.09716  0.29919  0.87320  1.0000
  F   F115      1.0  0.09073  0.81750  0.37122  1.0000
  F   F116      1.0  0.10029  0.80437  0.87978  1.0000
  F   F117      1.0  0.35363  0.29704  0.36139  1.0000
  F   F118      1.0  0.34619  0.30623  0.88451  1.0000
  F   F119      1.0  0.35152  0.80241  0.38312  1.0000
  F   F120      1.0  0.33896  0.80805  0.86554  1.0000
  F   F121      1.0  0.59636  0.30285  0.37663  1.0000
  F   F122      1.0  0.59384  0.30818  0.86090  1.0000
  F   F123      1.0  0.59940  0.81035  0.35613  1.0000
  F   F124      1.0  0.59810  0.81338  0.88569  1.0000
  F   F125      1.0  0.84930  0.30457  0.37532  1.0000
  F   F126      1.0  0.85115  0.29676  0.87569  1.0000
  F   F127      1.0  0.84577  0.78811  0.38579  1.0000
  F   F128      1.0  0.85424  0.79047  0.89771  1.0000
  F   F129      1.0  0.06049  0.25728  0.14593  1.0000
  F   F130      1.0  0.07549  0.24777  0.62669  1.0000
  F   F131      1.0  0.07052  0.75323  0.14298  1.0000
  F   F132      1.0  0.06484  0.74542  0.65914  1.0000
  F   F133      1.0  0.31708  0.25209  0.13085  1.0000
  F   F134      1.0  0.31578  0.25199  0.63778  1.0000
  F   F135      1.0  0.31507  0.73650  0.16577  1.0000
  F   F136      1.0  0.31538  0.73856  0.65321  1.0000
  F   F137      1.0  0.55791  0.24632  0.15228  1.0000
  F   F138      1.0  0.57275  0.25952  0.62576  1.0000
  F   F139      1.0  0.55659  0.74336  0.16291  1.0000
  F   F140      1.0  0.56464  0.76333  0.63959  1.0000
  F   F141      1.0  0.81750  0.24386  0.14232  1.0000
  F   F142      1.0  0.81671  0.24931  0.64631  1.0000
  F   F143      1.0  0.82434  0.75912  0.11916  1.0000
  F   F144      1.0  0.80976  0.74599  0.65505  1.0000
  F   F145      1.0  0.12165  0.38078  0.11966  1.0000
  F   F146      1.0  0.12096  0.37291  0.62402  1.0000
  F   F147      1.0  0.12926  0.84595  0.13786  1.0000
  F   F148      1.0  0.12186  0.87425  0.61188  1.0000
  F   F149      1.0  0.37066  0.38014  0.09801  1.0000
  F   F150      1.0  0.37720  0.37869  0.58308  1.0000
  F   F151      1.0  0.37363  0.88761  0.09042  1.0000
  F   F152      1.0  0.37501  0.85465  0.61054  1.0000
  F   F153      1.0  0.61859  0.36504  0.11418  1.0000
  F   F154      1.0  0.62577  0.36278  0.61707  1.0000
  F   F155      1.0  0.62092  0.86054  0.11962  1.0000
  F   F156      1.0  0.62142  0.88209  0.60907  1.0000
  F   F157      1.0  0.87170  0.36634  0.12336  1.0000
  F   F158      1.0  0.87281  0.36760  0.62373  1.0000
  F   F159      1.0  0.87813  0.87330  0.08361  1.0000
  F   F160      1.0  0.87536  0.88214  0.59373  1.0000
  F   F161      1.0  0.18730  0.24012  0.36321  1.0000
  F   F162      1.0  0.18648  0.24028  0.86845  1.0000
  F   F163      1.0  0.19605  0.75652  0.34417  1.0000
  F   F164      1.0  0.18676  0.74441  0.86681  1.0000
  F   F165      1.0  0.44329  0.26171  0.33794  1.0000
  F   F166      1.0  0.44207  0.25651  0.83886  1.0000
  F   F167      1.0  0.43420  0.74514  0.35366  1.0000
  F   F168      1.0  0.42897  0.74874  0.87419  1.0000
  F   F169      1.0  0.67955  0.25457  0.36241  1.0000
  F   F170      1.0  0.67706  0.24625  0.87380  1.0000
  F   F171      1.0  0.68647  0.76061  0.33655  1.0000
  F   F172      1.0  0.69471  0.76336  0.85110  1.0000
  F   F173      1.0  0.92743  0.23873  0.37413  1.0000
  F   F174      1.0  0.94221  0.24563  0.84898  1.0000
  F   F175      1.0  0.93170  0.73844  0.37077  1.0000
  F   F176      1.0  0.94117  0.74776  0.85902  1.0000
  F   F177      1.0  0.12637  0.13293  0.38943  1.0000
  F   F178      1.0  0.12519  0.11723  0.90020  1.0000
  F   F179      1.0  0.12207  0.64351  0.39409  1.0000
  F   F180      1.0  0.12796  0.63202  0.88990  1.0000
  F   F181      1.0  0.37920  0.13463  0.38344  1.0000
  F   F182      1.0  0.37676  0.13832  0.89109  1.0000
  F   F183      1.0  0.37586  0.64362  0.37797  1.0000
  F   F184      1.0  0.37662  0.64238  0.89042  1.0000
  F   F185      1.0  0.62773  0.13897  0.38745  1.0000
  F   F186      1.0  0.62163  0.12155  0.91783  1.0000
  F   F187      1.0  0.62813  0.63354  0.38743  1.0000
  F   F188      1.0  0.62839  0.64750  0.87968  1.0000
  F   F189      1.0  0.87693  0.14122  0.37715  1.0000
  F   F190      1.0  0.87358  0.11719  0.90575  1.0000
  F   F191      1.0  0.87235  0.61321  0.40577  1.0000
  F   F192      1.0  0.87407  0.61362  0.90250  1.0000
  F   F193      1.0  0.00561  0.36876  0.06414  1.0000
  F   F194      1.0  0.01056  0.35490  0.57946  1.0000
  F   F195      1.0  0.00667  0.84948  0.08064  1.0000
  F   F196      1.0  0.00570  0.85292  0.59265  1.0000
  F   F197      1.0  0.25490  0.36822  0.08683  1.0000
  F   F198      1.0  0.25666  0.36861  0.57484  1.0000
  F   F199      1.0  0.26541  0.86154  0.06676  1.0000
  F   F200      1.0  0.26109  0.85623  0.56533  1.0000
  F   F201      1.0  0.50483  0.36153  0.07022  1.0000
  F   F202      1.0  0.51341  0.36051  0.57156  1.0000
  F   F203      1.0  0.50341  0.84600  0.08062  1.0000
  F   F204      1.0  0.50369  0.86066  0.58135  1.0000
  F   F205      1.0  0.75836  0.35646  0.07837  1.0000
  F   F206      1.0  0.75772  0.35370  0.57478  1.0000
  F   F207      1.0  0.75919  0.84707  0.09716  1.0000
  F   F208      1.0  0.75731  0.86377  0.57350  1.0000
  F   F209      1.0  0.07152  0.49313  0.17516  1.0000
  F   F210      1.0  0.07003  0.48447  0.68675  1.0000
  F   F211      1.0  0.06592  0.98133  0.17236  1.0000
  F   F212      1.0  0.06354  0.98496  0.69344  1.0000
  F   F213      1.0  0.31293  0.48575  0.18946  1.0000
  F   F214      1.0  0.32193  0.48000  0.67845  1.0000
  F   F215      1.0  0.32297  0.97601  0.19571  1.0000
  F   F216      1.0  0.31975  0.97717  0.67596  1.0000
  F   F217      1.0  0.56880  0.49048  0.15571  1.0000
  F   F218      1.0  0.56493  0.49291  0.67210  1.0000
  F   F219      1.0  0.56779  0.99320  0.17286  1.0000
  F   F220      1.0  0.56909  0.98904  0.68448  1.0000
  F   F221      1.0  0.81741  0.48353  0.18401  1.0000
  F   F222      1.0  0.81512  0.48676  0.67294  1.0000
  F   F223      1.0  0.82441  0.98477  0.16605  1.0000
  F   F224      1.0  0.81201  0.98427  0.68548  1.0000
  F   F225      1.0  0.24315  0.12310  0.43180  1.0000
  F   F226      1.0  0.24253  0.13608  0.93047  1.0000
  F   F227      1.0  0.24453  0.63032  0.42173  1.0000
  F   F228      1.0  0.24247  0.62394  0.93353  1.0000
  F   F229      1.0  0.49506  0.13805  0.41566  1.0000
  F   F230      1.0  0.49334  0.14683  0.92237  1.0000
  F   F231      1.0  0.49914  0.63892  0.40902  1.0000
  F   F232      1.0  0.49461  0.64677  0.91341  1.0000
  F   F233      1.0  0.73958  0.14281  0.42295  1.0000
  F   F234      1.0  0.74501  0.14401  0.91297  1.0000
  F   F235      1.0  0.74170  0.64630  0.42392  1.0000
  F   F236      1.0  0.74359  0.64005  0.93392  1.0000
  F   F237      1.0  0.99069  0.14556  0.40975  1.0000
  F   F238      1.0  0.99287  0.12314  0.93756  1.0000
  F   F239      1.0  0.99172  0.61471  0.44378  1.0000
  F   F240      1.0  0.99517  0.62113  0.94256  1.0000
  F   F241      1.0  0.18552  0.01357  0.31524  1.0000
  F   F242      1.0  0.18651  0.01503  0.81874  1.0000
  F   F243      1.0  0.17634  0.52382  0.32686  1.0000
  F   F244      1.0  0.18154  0.49980  0.83446  1.0000
  F   F245      1.0  0.43366  0.00737  0.33906  1.0000
  F   F246      1.0  0.43033  0.00932  0.83856  1.0000
  F   F247      1.0  0.42553  0.51646  0.32586  1.0000
  F   F248      1.0  0.43664  0.51759  0.82282  1.0000
  F   F249      1.0  0.68503  0.02618  0.30762  1.0000
  F   F250      1.0  0.68664  0.02911  0.80903  1.0000
  F   F251      1.0  0.68346  0.52301  0.31249  1.0000
  F   F252      1.0  0.67729  0.52256  0.82239  1.0000
  F   F253      1.0  0.92938  0.00904  0.32724  1.0000
  F   F254      1.0  0.93559  0.02480  0.80160  1.0000
  F   F255      1.0  0.92889  0.52181  0.32680  1.0000
  F   F256      1.0  0.93001  0.51536  0.83184  1.0000
  F   F257      1.0  0.99810  0.24387  0.00950  1.0000
  F   F258      1.0  0.00142  0.24965  0.50030  1.0000
  F   F259      1.0  0.99861  0.74528  0.99871  1.0000
  F   F260      1.0  0.99800  0.74634  0.50921  1.0000
  F   F261      1.0  0.24558  0.25949  0.98610  1.0000
  F   F262      1.0  0.24293  0.24108  0.50133  1.0000
  F   F263      1.0  0.24648  0.72907  0.02054  1.0000
  F   F264      1.0  0.24377  0.72648  0.52396  1.0000
  F   F265      1.0  0.49430  0.25878  0.99213  1.0000
  F   F266      1.0  0.50239  0.25300  0.48963  1.0000
  F   F267      1.0  0.49983  0.75217  0.99528  1.0000
  F   F268      1.0  0.50130  0.75163  0.50284  1.0000
  F   F269      1.0  0.74839  0.25850  0.99193  1.0000
  F   F270      1.0  0.74673  0.22735  0.52705  1.0000
  F   F271      1.0  0.74682  0.74893  0.00539  1.0000
  F   F272      1.0  0.75002  0.73810  0.51025  1.0000
  F   F273      1.0  0.11861  0.99975  0.26500  1.0000
  F   F274      1.0  0.13537  0.99741  0.74134  1.0000
  F   F275      1.0  0.12272  0.49406  0.25259  1.0000
  F   F276      1.0  0.12908  0.48753  0.75038  1.0000
  F   F277      1.0  0.38499  0.00951  0.24540  1.0000
  F   F278      1.0  0.37768  0.00837  0.74017  1.0000
  F   F279      1.0  0.38126  0.48987  0.23188  1.0000
  F   F280      1.0  0.38668  0.49774  0.73055  1.0000
  F   F281      1.0  0.62790  0.00489  0.24613  1.0000
  F   F282      1.0  0.62378  0.01338  0.74562  1.0000
  F   F283      1.0  0.61223  0.49606  0.26340  1.0000
  F   F284      1.0  0.62157  0.51008  0.73849  1.0000
  F   F285      1.0  0.86942  0.99566  0.26544  1.0000
  F   F286      1.0  0.87611  0.99838  0.72669  1.0000
  F   F287      1.0  0.88316  0.50724  0.23570  1.0000
  F   F288      1.0  0.87394  0.49552  0.73936  1.0000
  F   F289      1.0  0.04453  0.01771  0.01922  1.0000
  F   F290      1.0  0.04256  0.02649  0.52601  1.0000
  F   F291      1.0  0.04851  0.53309  0.03090  1.0000
  F   F292      1.0  0.04074  0.51963  0.54559  1.0000
  F   F293      1.0  0.29589  0.02147  0.02808  1.0000
  F   F294      1.0  0.30242  0.02965  0.52281  1.0000
  F   F295      1.0  0.30136  0.53259  0.02969  1.0000
  F   F296      1.0  0.29396  0.53374  0.52686  1.0000
  F   F297      1.0  0.53333  0.03497  0.02800  1.0000
  F   F298      1.0  0.54472  0.03892  0.51582  1.0000
  F   F299      1.0  0.55423  0.53855  0.99901  1.0000
  F   F300      1.0  0.53979  0.54871  0.52691  1.0000
  F   F301      1.0  0.78825  0.03193  0.02281  1.0000
  F   F302      1.0  0.79626  0.03081  0.51403  1.0000
  F   F303      1.0  0.79338  0.52834  0.02328  1.0000
  F   F304      1.0  0.79005  0.53121  0.52460  1.0000
  F   F305      1.0  0.22871  0.42240  0.23144  1.0000
  F   F306      1.0  0.23874  0.39835  0.72970  1.0000
  F   F307      1.0  0.23514  0.92301  0.22732  1.0000
  F   F308      1.0  0.23246  0.91925  0.70870  1.0000
  F   F309      1.0  0.48136  0.43252  0.20211  1.0000
  F   F310      1.0  0.48103  0.42485  0.71291  1.0000
  F   F311      1.0  0.47966  0.91939  0.22067  1.0000
  F   F312      1.0  0.48910  0.92559  0.71686  1.0000
  F   F313      1.0  0.73590  0.41263  0.22440  1.0000
  F   F314      1.0  0.73310  0.39606  0.73218  1.0000
  F   F315      1.0  0.73391  0.91755  0.22608  1.0000
  F   F316      1.0  0.72942  0.91348  0.72637  1.0000
  F   F317      1.0  0.98545  0.41597  0.22938  1.0000
  F   F318      1.0  0.98897  0.39822  0.73506  1.0000
  F   F319      1.0  0.98198  0.92187  0.22013  1.0000
  F   F320      1.0  0.98559  0.91746  0.72171  1.0000
  F   F321      1.0  0.20036  0.45203  0.48375  1.0000
  F   F322      1.0  0.20572  0.45977  0.97781  1.0000
  F   F323      1.0  0.20132  0.96814  0.48880  1.0000
  F   F324      1.0  0.20583  0.97251  0.98418  1.0000
  F   F325      1.0  0.46096  0.46828  0.46723  1.0000
  F   F326      1.0  0.46072  0.47388  0.96861  1.0000
  F   F327      1.0  0.45317  0.97995  0.49039  1.0000
  F   F328      1.0  0.45801  0.98147  0.97786  1.0000
  F   F329      1.0  0.70931  0.47926  0.46656  1.0000
  F   F330      1.0  0.70357  0.47321  0.98851  1.0000
  F   F331      1.0  0.70897  0.96947  0.46901  1.0000
  F   F332      1.0  0.71121  0.98455  0.96464  1.0000
  F   F333      1.0  0.94972  0.46149  0.48918  1.0000
  F   F334      1.0  0.95026  0.46232  0.98003  1.0000
  F   F335      1.0  0.96137  0.96816  0.48167  1.0000
  F   F336      1.0  0.96695  0.96872  0.96570  1.0000
  F   F337      1.0  0.01763  0.08002  0.27060  1.0000
  F   F338      1.0  0.01468  0.10790  0.76596  1.0000
  F   F339      1.0  0.01451  0.58089  0.27233  1.0000
  F   F340      1.0  0.01281  0.59032  0.78763  1.0000
  F   F341      1.0  0.26715  0.08488  0.28038  1.0000
  F   F342      1.0  0.26919  0.06883  0.78212  1.0000
  F   F343      1.0  0.25868  0.59347  0.27228  1.0000
  F   F344      1.0  0.27156  0.57225  0.78696  1.0000
  F   F345      1.0  0.51828  0.07716  0.28544  1.0000
  F   F346      1.0  0.51842  0.09615  0.77028  1.0000
  F   F347      1.0  0.51699  0.57671  0.26611  1.0000
  F   F348      1.0  0.51427  0.61368  0.75307  1.0000
  F   F349      1.0  0.76582  0.08757  0.27396  1.0000
  F   F350      1.0  0.76745  0.09895  0.75800  1.0000
  F   F351      1.0  0.76463  0.58423  0.27738  1.0000
  F   F352      1.0  0.76316  0.57395  0.78222  1.0000
  F   F353      1.0  0.10117  0.41174  0.46277  1.0000
  F   F354      1.0  0.09685  0.40582  0.97159  1.0000
  F   F355      1.0  0.09751  0.88857  0.47140  1.0000
  F   F356      1.0  0.10907  0.89736  0.97444  1.0000
  F   F357      1.0  0.35008  0.40177  0.44204  1.0000
  F   F358      1.0  0.35165  0.41495  0.95640  1.0000
  F   F359      1.0  0.34644  0.89893  0.46852  1.0000
  F   F360      1.0  0.35343  0.89420  0.95017  1.0000
  F   F361      1.0  0.60167  0.43222  0.45930  1.0000
  F   F362      1.0  0.59606  0.40029  0.95331  1.0000
  F   F363      1.0  0.60730  0.90848  0.45591  1.0000
  F   F364      1.0  0.60187  0.92306  0.96060  1.0000
  F   F365      1.0  0.85532  0.40475  0.46340  1.0000
  F   F366      1.0  0.85376  0.39780  0.96432  1.0000
  F   F367      1.0  0.84670  0.89296  0.46575  1.0000
  F   F368      1.0  0.84861  0.92377  0.93348  1.0000
  F   F369      1.0  0.04984  0.29456  0.29318  1.0000
  F   F370      1.0  0.04776  0.28719  0.79860  1.0000
  F   F371      1.0  0.03787  0.79082  0.29496  1.0000
  F   F372      1.0  0.04915  0.79482  0.79082  1.0000
  F   F373      1.0  0.29460  0.28712  0.28771  1.0000
  F   F374      1.0  0.30153  0.29118  0.78387  1.0000
  F   F375      1.0  0.29706  0.78147  0.29380  1.0000
  F   F376      1.0  0.28283  0.78399  0.79968  1.0000
  F   F377      1.0  0.54658  0.31168  0.28322  1.0000
  F   F378      1.0  0.54070  0.31075  0.78212  1.0000
  F   F379      1.0  0.53823  0.81024  0.28916  1.0000
  F   F380      1.0  0.53896  0.80537  0.79905  1.0000
  F   F381      1.0  0.79092  0.29550  0.29050  1.0000
  F   F382      1.0  0.80355  0.30400  0.78761  1.0000
  F   F383      1.0  0.80184  0.79830  0.27582  1.0000
  F   F384      1.0  0.80847  0.79115  0.77846  1.0000
