data_image0
_chemical_formula_structural       Hf96F384
_chemical_formula_sum              "Hf96 F384"
_cell_length_a       31.0237
_cell_length_b       15.5097
_cell_length_c       15.5025
_cell_angle_alpha    63.342
_cell_angle_beta     63.342
_cell_angle_gamma    80.1625

_space_group_name_H-M_alt    "P 1"
_space_group_IT_number       1

loop_
  _space_group_symop_operation_xyz
  'x, y, z'

loop_
  _atom_site_type_symbol
  _atom_site_label
  _atom_site_symmetry_multiplicity
  _atom_site_fract_x
  _atom_site_fract_y
  _atom_site_fract_z
  _atom_site_occupancy
  Hf  Hf1       1.0  0.19639  0.10587  0.36880  1.0000
  Hf  Hf2       1.0  0.19997  0.11151  0.87488  1.0000
  Hf  Hf3       1.0  0.19217  0.60798  0.37388  1.0000
  Hf  Hf4       1.0  0.19431  0.60345  0.88099  1.0000
  Hf  Hf5       1.0  0.44518  0.10265  0.37497  1.0000
  Hf  Hf6       1.0  0.44649  0.10357  0.87641  1.0000
  Hf  Hf7       1.0  0.44687  0.61141  0.36709  1.0000
  Hf  Hf8       1.0  0.44682  0.61017  0.87534  1.0000
  Hf  Hf9       1.0  0.69277  0.10696  0.38357  1.0000
  Hf  Hf10      1.0  0.69634  0.10276  0.87786  1.0000
  Hf  Hf11      1.0  0.69808  0.60703  0.38401  1.0000
  Hf  Hf12      1.0  0.69693  0.60303  0.87360  1.0000
  Hf  Hf13      1.0  0.94643  0.11025  0.37418  1.0000
  Hf  Hf14      1.0  0.94859  0.10931  0.87214  1.0000
  Hf  Hf15      1.0  0.94092  0.60422  0.37976  1.0000
  Hf  Hf16      1.0  0.94951  0.60462  0.87448  1.0000
  Hf  Hf17      1.0  0.05227  0.38499  0.12958  1.0000
  Hf  Hf18      1.0  0.05096  0.38998  0.63129  1.0000
  Hf  Hf19      1.0  0.05123  0.88785  0.13246  1.0000
  Hf  Hf20      1.0  0.05148  0.89682  0.63213  1.0000
  Hf  Hf21      1.0  0.30834  0.39036  0.12425  1.0000
  Hf  Hf22      1.0  0.30207  0.39379  0.62073  1.0000
  Hf  Hf23      1.0  0.29852  0.89258  0.13303  1.0000
  Hf  Hf24      1.0  0.30585  0.89198  0.62535  1.0000
  Hf  Hf25      1.0  0.55716  0.39786  0.11604  1.0000
  Hf  Hf26      1.0  0.55740  0.39545  0.61466  1.0000
  Hf  Hf27      1.0  0.55593  0.89718  0.11989  1.0000
  Hf  Hf28      1.0  0.55285  0.89799  0.62327  1.0000
  Hf  Hf29      1.0  0.80355  0.40124  0.11739  1.0000
  Hf  Hf30      1.0  0.80318  0.39462  0.62623  1.0000
  Hf  Hf31      1.0  0.80278  0.89937  0.12409  1.0000
  Hf  Hf32      1.0  0.80115  0.88903  0.63399  1.0000
  Hf  Hf33      1.0  0.05508  0.18273  0.42440  1.0000
  Hf  Hf34      1.0  0.05777  0.17050  0.92525  1.0000
  Hf  Hf35      1.0  0.05349  0.67777  0.42172  1.0000
  Hf  Hf36      1.0  0.05491  0.68944  0.91735  1.0000
  Hf  Hf37      1.0  0.30628  0.17587  0.41908  1.0000
  Hf  Hf38      1.0  0.30981  0.17981  0.91094  1.0000
  Hf  Hf39      1.0  0.30076  0.67551  0.42841  1.0000
  Hf  Hf40      1.0  0.30656  0.68355  0.92195  1.0000
  Hf  Hf41      1.0  0.56110  0.18979  0.40671  1.0000
  Hf  Hf42      1.0  0.55872  0.18516  0.90854  1.0000
  Hf  Hf43      1.0  0.55961  0.69082  0.40499  1.0000
  Hf  Hf44      1.0  0.55548  0.68566  0.91580  1.0000
  Hf  Hf45      1.0  0.80418  0.18278  0.41195  1.0000
  Hf  Hf46      1.0  0.80643  0.18695  0.91909  1.0000
  Hf  Hf47      1.0  0.80556  0.68089  0.41825  1.0000
  Hf  Hf48      1.0  0.80866  0.68662  0.91147  1.0000
  Hf  Hf49      1.0  0.15911  0.38414  0.33466  1.0000
  Hf  Hf50      1.0  0.15743  0.38671  0.83465  1.0000
  Hf  Hf51      1.0  0.15460  0.88016  0.34379  1.0000
  Hf  Hf52      1.0  0.15740  0.88498  0.83427  1.0000
  Hf  Hf53      1.0  0.41075  0.38999  0.32703  1.0000
  Hf  Hf54      1.0  0.41016  0.38957  0.82696  1.0000
  Hf  Hf55      1.0  0.40715  0.87923  0.34227  1.0000
  Hf  Hf56      1.0  0.40471  0.88623  0.83581  1.0000
  Hf  Hf57      1.0  0.66313  0.39423  0.32138  1.0000
  Hf  Hf58      1.0  0.65912  0.38816  0.83096  1.0000
  Hf  Hf59      1.0  0.65974  0.89354  0.33102  1.0000
  Hf  Hf60      1.0  0.65715  0.88345  0.83646  1.0000
  Hf  Hf61      1.0  0.90762  0.38887  0.33295  1.0000
  Hf  Hf62      1.0  0.90727  0.38944  0.83411  1.0000
  Hf  Hf63      1.0  0.90913  0.89468  0.33353  1.0000
  Hf  Hf64      1.0  0.90918  0.89354  0.83188  1.0000
  Hf  Hf65      1.0  0.19693  0.31750  0.07708  1.0000
  Hf  Hf66      1.0  0.19875  0.32385  0.56953  1.0000
  Hf  Hf67      1.0  0.19174  0.81728  0.08306  1.0000
  Hf  Hf68      1.0  0.19444  0.81493  0.58373  1.0000
  Hf  Hf69      1.0  0.44628  0.32172  0.07541  1.0000
  Hf  Hf70      1.0  0.44546  0.31987  0.58073  1.0000
  Hf  Hf71      1.0  0.43825  0.81606  0.08700  1.0000
  Hf  Hf72      1.0  0.44609  0.81190  0.58141  1.0000
  Hf  Hf73      1.0  0.69220  0.31368  0.08464  1.0000
  Hf  Hf74      1.0  0.69673  0.31368  0.58357  1.0000
  Hf  Hf75      1.0  0.69829  0.81929  0.07664  1.0000
  Hf  Hf76      1.0  0.69113  0.81042  0.58480  1.0000
  Hf  Hf77      1.0  0.94391  0.31042  0.08134  1.0000
  Hf  Hf78      1.0  0.94297  0.31741  0.58142  1.0000
  Hf  Hf79      1.0  0.94142  0.82093  0.08886  1.0000
  Hf  Hf80      1.0  0.94394  0.81750  0.58115  1.0000
  Hf  Hf81      1.0  0.09077  0.11130  0.17229  1.0000
  Hf  Hf82      1.0  0.09435  0.11581  0.66666  1.0000
  Hf  Hf83      1.0  0.08850  0.60313  0.17234  1.0000
  Hf  Hf84      1.0  0.08651  0.61676  0.66786  1.0000
  Hf  Hf85      1.0  0.34335  0.11320  0.16380  1.0000
  Hf  Hf86      1.0  0.34380  0.12130  0.65692  1.0000
  Hf  Hf87      1.0  0.33645  0.61139  0.17145  1.0000
  Hf  Hf88      1.0  0.34195  0.61104  0.66248  1.0000
  Hf  Hf89      1.0  0.59254  0.11507  0.16267  1.0000
  Hf  Hf90      1.0  0.59521  0.11688  0.66450  1.0000
  Hf  Hf91      1.0  0.59358  0.61910  0.15793  1.0000
  Hf  Hf92      1.0  0.59127  0.61005  0.67048  1.0000
  Hf  Hf93      1.0  0.83875  0.10691  0.16803  1.0000
  Hf  Hf94      1.0  0.83913  0.10888  0.67093  1.0000
  Hf  Hf95      1.0  0.84074  0.60882  0.16865  1.0000
  Hf  Hf96      1.0  0.84021  0.60473  0.67534  1.0000
  F   F1        1.0  0.08669  0.13925  0.29925  1.0000
  F   F2        1.0  0.08406  0.13828  0.79673  1.0000
  F   F3        1.0  0.07254  0.61630  0.31954  1.0000
  F   F4        1.0  0.08002  0.63767  0.80423  1.0000
  F   F5        1.0  0.32342  0.11364  0.31345  1.0000
  F   F6        1.0  0.33595  0.15134  0.78373  1.0000
  F   F7        1.0  0.31664  0.61939  0.31948  1.0000
  F   F8        1.0  0.33268  0.63662  0.80725  1.0000
  F   F9        1.0  0.58193  0.14809  0.28135  1.0000
  F   F10       1.0  0.58063  0.11887  0.80362  1.0000
  F   F11       1.0  0.58375  0.63509  0.29191  1.0000
  F   F12       1.0  0.57798  0.62686  0.80748  1.0000
  F   F13       1.0  0.82441  0.11054  0.31168  1.0000
  F   F14       1.0  0.82834  0.14355  0.80264  1.0000
  F   F15       1.0  0.82930  0.62569  0.31041  1.0000
  F   F16       1.0  0.82837  0.62079  0.80865  1.0000
  F   F17       1.0  0.19529  0.34974  0.42677  1.0000
  F   F18       1.0  0.19326  0.35248  0.92966  1.0000
  F   F19       1.0  0.17632  0.82187  0.46511  1.0000
  F   F20       1.0  0.18598  0.84090  0.94254  1.0000
  F   F21       1.0  0.43924  0.35231  0.44370  1.0000
  F   F22       1.0  0.43703  0.33755  0.94414  1.0000
  F   F23       1.0  0.43565  0.83409  0.45144  1.0000
  F   F24       1.0  0.42822  0.83039  0.95244  1.0000
  F   F25       1.0  0.68356  0.35099  0.43904  1.0000
  F   F26       1.0  0.68370  0.35162  0.95042  1.0000
  F   F27       1.0  0.68278  0.84331  0.45067  1.0000
  F   F28       1.0  0.69467  0.85316  0.92873  1.0000
  F   F29       1.0  0.94099  0.35041  0.43918  1.0000
  F   F30       1.0  0.93093  0.33211  0.95416  1.0000
  F   F31       1.0  0.94175  0.84798  0.44090  1.0000
  F   F32       1.0  0.92670  0.84558  0.95924  1.0000
  F   F33       1.0  0.16951  0.35306  0.20760  1.0000
  F   F34       1.0  0.17140  0.36741  0.69686  1.0000
  F   F35       1.0  0.16451  0.86155  0.21279  1.0000
  F   F36       1.0  0.17709  0.88061  0.69147  1.0000
  F   F37       1.0  0.42663  0.37913  0.17973  1.0000
  F   F38       1.0  0.42617  0.38424  0.68796  1.0000
  F   F39       1.0  0.41269  0.85935  0.20869  1.0000
  F   F40       1.0  0.42091  0.86482  0.69586  1.0000
  F   F41       1.0  0.67571  0.38027  0.18162  1.0000
  F   F42       1.0  0.66838  0.36603  0.69943  1.0000
  F   F43       1.0  0.66882  0.87303  0.20304  1.0000
  F   F44       1.0  0.66989  0.86104  0.69974  1.0000
  F   F45       1.0  0.91523  0.36886  0.19876  1.0000
  F   F46       1.0  0.91615  0.36818  0.69881  1.0000
  F   F47       1.0  0.91766  0.87168  0.20616  1.0000
  F   F48       1.0  0.92489  0.87704  0.68543  1.0000
  F   F49       1.0  0.06002  0.14077  0.07310  1.0000
  F   F50       1.0  0.06580  0.17596  0.55131  1.0000
  F   F51       1.0  0.06582  0.66371  0.04849  1.0000
  F   F52       1.0  0.06324  0.66562  0.55250  1.0000
  F   F53       1.0  0.32755  0.17163  0.03586  1.0000
  F   F54       1.0  0.31912  0.15752  0.54197  1.0000
  F   F55       1.0  0.30886  0.65104  0.06200  1.0000
  F   F56       1.0  0.30630  0.64928  0.56093  1.0000
  F   F57       1.0  0.57107  0.16295  0.03592  1.0000
  F   F58       1.0  0.56566  0.16550  0.54967  1.0000
  F   F59       1.0  0.56099  0.64972  0.05914  1.0000
  F   F60       1.0  0.57030  0.66511  0.54821  1.0000
  F   F61       1.0  0.81058  0.15795  0.05781  1.0000
  F   F62       1.0  0.81650  0.17170  0.54992  1.0000
  F   F63       1.0  0.81705  0.66717  0.05414  1.0000
  F   F64       1.0  0.81006  0.64297  0.56841  1.0000
  F   F65       1.0  0.20144  0.18953  0.22473  1.0000
  F   F66       1.0  0.20607  0.19776  0.70892  1.0000
  F   F67       1.0  0.20858  0.70417  0.20053  1.0000
  F   F68       1.0  0.20398  0.70261  0.72390  1.0000
  F   F69       1.0  0.45792  0.21232  0.20783  1.0000
  F   F70       1.0  0.45694  0.19989  0.70631  1.0000
  F   F71       1.0  0.46103  0.70510  0.19452  1.0000
  F   F72       1.0  0.45294  0.70214  0.71421  1.0000
  F   F73       1.0  0.69231  0.20408  0.21072  1.0000
  F   F74       1.0  0.70571  0.18709  0.71024  1.0000
  F   F75       1.0  0.70055  0.71200  0.20436  1.0000
  F   F76       1.0  0.70893  0.69577  0.71330  1.0000
  F   F77       1.0  0.95726  0.20287  0.21823  1.0000
  F   F78       1.0  0.95523  0.19681  0.72285  1.0000
  F   F79       1.0  0.95190  0.70495  0.22791  1.0000
  F   F80       1.0  0.95989  0.70650  0.70226  1.0000
  F   F81       1.0  0.14776  0.10239  0.05197  1.0000
  F   F82       1.0  0.14874  0.07707  0.55798  1.0000
  F   F83       1.0  0.14936  0.59059  0.04626  1.0000
  F   F84       1.0  0.14829  0.59607  0.54244  1.0000
  F   F85       1.0  0.40267  0.07360  0.04696  1.0000
  F   F86       1.0  0.39772  0.09235  0.53450  1.0000
  F   F87       1.0  0.39368  0.59052  0.05393  1.0000
  F   F88       1.0  0.40023  0.60668  0.52175  1.0000
  F   F89       1.0  0.64809  0.08506  0.02789  1.0000
  F   F90       1.0  0.64746  0.09733  0.53394  1.0000
  F   F91       1.0  0.64761  0.58762  0.03213  1.0000
  F   F92       1.0  0.64914  0.58100  0.53689  1.0000
  F   F93       1.0  0.89511  0.08961  0.05779  1.0000
  F   F94       1.0  0.89772  0.08635  0.53956  1.0000
  F   F95       1.0  0.90322  0.59935  0.03689  1.0000
  F   F96       1.0  0.89471  0.59019  0.54659  1.0000
  F   F97       1.0  0.15676  0.20560  0.11829  1.0000
  F   F98       1.0  0.15271  0.20610  0.61453  1.0000
  F   F99       1.0  0.14643  0.69367  0.14091  1.0000
  F   F100      1.0  0.14751  0.68332  0.64416  1.0000
  F   F101      1.0  0.40152  0.20057  0.12677  1.0000
  F   F102      1.0  0.40249  0.20147  0.61498  1.0000
  F   F103      1.0  0.39300  0.69386  0.14543  1.0000
  F   F104      1.0  0.40425  0.68203  0.63622  1.0000
  F   F105      1.0  0.65600  0.20177  0.09429  1.0000
  F   F106      1.0  0.65619  0.19562  0.62577  1.0000
  F   F107      1.0  0.65730  0.69807  0.09776  1.0000
  F   F108      1.0  0.65075  0.69233  0.62984  1.0000
  F   F109      1.0  0.90285  0.19135  0.14519  1.0000
  F   F110      1.0  0.90296  0.20022  0.61437  1.0000
  F   F111      1.0  0.90578  0.70218  0.13632  1.0000
  F   F112      1.0  0.89900  0.70176  0.63234  1.0000
  F   F113      1.0  0.09014  0.31039  0.35653  1.0000
  F   F114      1.0  0.10324  0.28847  0.88422  1.0000
  F   F115      1.0  0.09647  0.79867  0.38669  1.0000
  F   F116      1.0  0.09553  0.80989  0.86078  1.0000
  F   F117      1.0  0.35486  0.30827  0.35952  1.0000
  F   F118      1.0  0.35083  0.30584  0.86196  1.0000
  F   F119      1.0  0.34870  0.80007  0.39275  1.0000
  F   F120      1.0  0.34959  0.79439  0.88155  1.0000
  F   F121      1.0  0.60506  0.30577  0.36640  1.0000
  F   F122      1.0  0.59901  0.30652  0.86505  1.0000
  F   F123      1.0  0.59466  0.81674  0.37358  1.0000
  F   F124      1.0  0.59335  0.80046  0.89100  1.0000
  F   F125      1.0  0.83826  0.30468  0.37786  1.0000
  F   F126      1.0  0.84709  0.30296  0.88185  1.0000
  F   F127      1.0  0.84973  0.78532  0.36635  1.0000
  F   F128      1.0  0.85406  0.80207  0.86337  1.0000
  F   F129      1.0  0.07514  0.24956  0.12712  1.0000
  F   F130      1.0  0.05490  0.24121  0.66735  1.0000
  F   F131      1.0  0.05930  0.74552  0.14949  1.0000
  F   F132      1.0  0.06122  0.75733  0.64580  1.0000
  F   F133      1.0  0.31320  0.25510  0.14536  1.0000
  F   F134      1.0  0.31113  0.26301  0.62722  1.0000
  F   F135      1.0  0.30936  0.74755  0.14753  1.0000
  F   F136      1.0  0.32290  0.75133  0.63448  1.0000
  F   F137      1.0  0.56880  0.25546  0.12865  1.0000
  F   F138      1.0  0.57536  0.25507  0.62935  1.0000
  F   F139      1.0  0.56472  0.75361  0.14317  1.0000
  F   F140      1.0  0.56838  0.75545  0.64190  1.0000
  F   F141      1.0  0.82720  0.25498  0.12867  1.0000
  F   F142      1.0  0.80734  0.24538  0.66967  1.0000
  F   F143      1.0  0.81582  0.75389  0.14377  1.0000
  F   F144      1.0  0.81920  0.73943  0.64778  1.0000
  F   F145      1.0  0.12347  0.37429  0.10736  1.0000
  F   F146      1.0  0.12393  0.37997  0.60470  1.0000
  F   F147      1.0  0.11906  0.86204  0.11786  1.0000
  F   F148      1.0  0.12472  0.86298  0.62024  1.0000
  F   F149      1.0  0.37616  0.37972  0.10897  1.0000
  F   F150      1.0  0.37736  0.36744  0.60434  1.0000
  F   F151      1.0  0.36892  0.87120  0.10879  1.0000
  F   F152      1.0  0.37644  0.86252  0.60786  1.0000
  F   F153      1.0  0.62351  0.36347  0.11588  1.0000
  F   F154      1.0  0.62933  0.38000  0.59549  1.0000
  F   F155      1.0  0.62657  0.85310  0.12127  1.0000
  F   F156      1.0  0.62757  0.87926  0.59792  1.0000
  F   F157      1.0  0.87744  0.37322  0.10187  1.0000
  F   F158      1.0  0.87204  0.36108  0.60172  1.0000
  F   F159      1.0  0.87136  0.89454  0.09884  1.0000
  F   F160      1.0  0.87232  0.87456  0.60172  1.0000
  F   F161      1.0  0.17784  0.24512  0.37794  1.0000
  F   F162      1.0  0.19659  0.25131  0.84436  1.0000
  F   F163      1.0  0.18822  0.74197  0.35374  1.0000
  F   F164      1.0  0.17673  0.74719  0.87589  1.0000
  F   F165      1.0  0.42771  0.24553  0.36504  1.0000
  F   F166      1.0  0.43236  0.24125  0.85613  1.0000
  F   F167      1.0  0.43459  0.75098  0.34918  1.0000
  F   F168      1.0  0.43776  0.74889  0.85898  1.0000
  F   F169      1.0  0.68918  0.26193  0.33808  1.0000
  F   F170      1.0  0.68270  0.24711  0.86179  1.0000
  F   F171      1.0  0.69181  0.75840  0.35243  1.0000
  F   F172      1.0  0.68275  0.75138  0.85498  1.0000
  F   F173      1.0  0.92412  0.25320  0.37143  1.0000
  F   F174      1.0  0.93250  0.24470  0.86205  1.0000
  F   F175      1.0  0.92729  0.74941  0.38137  1.0000
  F   F176      1.0  0.94247  0.74797  0.85273  1.0000
  F   F177      1.0  0.12293  0.13116  0.41006  1.0000
  F   F178      1.0  0.12949  0.11619  0.91487  1.0000
  F   F179      1.0  0.12392  0.63534  0.38864  1.0000
  F   F180      1.0  0.12484  0.63645  0.90100  1.0000
  F   F181      1.0  0.37556  0.12367  0.39483  1.0000
  F   F182      1.0  0.37438  0.11238  0.90189  1.0000
  F   F183      1.0  0.37613  0.64418  0.37000  1.0000
  F   F184      1.0  0.37716  0.63099  0.89797  1.0000
  F   F185      1.0  0.62410  0.11813  0.38769  1.0000
  F   F186      1.0  0.62848  0.14934  0.86732  1.0000
  F   F187      1.0  0.63102  0.64388  0.38146  1.0000
  F   F188      1.0  0.62520  0.63736  0.87962  1.0000
  F   F189      1.0  0.87371  0.14243  0.38838  1.0000
  F   F190      1.0  0.87526  0.11704  0.90216  1.0000
  F   F191      1.0  0.87077  0.60832  0.41187  1.0000
  F   F192      1.0  0.87901  0.62532  0.89527  1.0000
  F   F193      1.0  0.00205  0.36391  0.07406  1.0000
  F   F194      1.0  0.00864  0.36960  0.56709  1.0000
  F   F195      1.0  0.00667  0.86412  0.08066  1.0000
  F   F196      1.0  0.00576  0.87105  0.56601  1.0000
  F   F197      1.0  0.25611  0.34971  0.08061  1.0000
  F   F198      1.0  0.25858  0.36388  0.56075  1.0000
  F   F199      1.0  0.25720  0.86072  0.07242  1.0000
  F   F200      1.0  0.26057  0.85356  0.57435  1.0000
  F   F201      1.0  0.50975  0.37076  0.06509  1.0000
  F   F202      1.0  0.50493  0.36050  0.58107  1.0000
  F   F203      1.0  0.50791  0.86216  0.06942  1.0000
  F   F204      1.0  0.50751  0.85166  0.58629  1.0000
  F   F205      1.0  0.76491  0.34922  0.07261  1.0000
  F   F206      1.0  0.75734  0.34927  0.58211  1.0000
  F   F207      1.0  0.75658  0.85519  0.08457  1.0000
  F   F208      1.0  0.75369  0.84660  0.59042  1.0000
  F   F209      1.0  0.06600  0.47383  0.18960  1.0000
  F   F210      1.0  0.06941  0.48920  0.67418  1.0000
  F   F211      1.0  0.07105  0.98059  0.18751  1.0000
  F   F212      1.0  0.07063  0.98491  0.68113  1.0000
  F   F213      1.0  0.31484  0.47832  0.17928  1.0000
  F   F214      1.0  0.32049  0.48439  0.66489  1.0000
  F   F215      1.0  0.31673  0.98995  0.18622  1.0000
  F   F216      1.0  0.31721  0.98365  0.67875  1.0000
  F   F217      1.0  0.56926  0.48579  0.17263  1.0000
  F   F218      1.0  0.56806  0.49099  0.66841  1.0000
  F   F219      1.0  0.57216  0.98701  0.16704  1.0000
  F   F220      1.0  0.56887  0.99284  0.66953  1.0000
  F   F221      1.0  0.82185  0.48310  0.17194  1.0000
  F   F222      1.0  0.81864  0.48348  0.67476  1.0000
  F   F223      1.0  0.80639  0.98476  0.20061  1.0000
  F   F224      1.0  0.81637  0.97943  0.68613  1.0000
  F   F225      1.0  0.24239  0.14430  0.41581  1.0000
  F   F226      1.0  0.24641  0.13071  0.92323  1.0000
  F   F227      1.0  0.23691  0.62840  0.44435  1.0000
  F   F228      1.0  0.24617  0.65489  0.91510  1.0000
  F   F229      1.0  0.49351  0.14318  0.40954  1.0000
  F   F230      1.0  0.49137  0.13792  0.91587  1.0000
  F   F231      1.0  0.49687  0.65730  0.40107  1.0000
  F   F232      1.0  0.48843  0.63327  0.93600  1.0000
  F   F233      1.0  0.73920  0.13766  0.43251  1.0000
  F   F234      1.0  0.74355  0.13515  0.92966  1.0000
  F   F235      1.0  0.74447  0.63448  0.42562  1.0000
  F   F236      1.0  0.74477  0.64768  0.91524  1.0000
  F   F237      1.0  0.99184  0.14159  0.43493  1.0000
  F   F238      1.0  0.99399  0.13172  0.92338  1.0000
  F   F239      1.0  0.98775  0.64212  0.43372  1.0000
  F   F240      1.0  0.99461  0.63030  0.92793  1.0000
  F   F241      1.0  0.17516  0.99619  0.35153  1.0000
  F   F242      1.0  0.18270  0.01138  0.82896  1.0000
  F   F243      1.0  0.17328  0.51489  0.33442  1.0000
  F   F244      1.0  0.18446  0.51984  0.82099  1.0000
  F   F245      1.0  0.44064  0.01232  0.31112  1.0000
  F   F246      1.0  0.43522  0.01454  0.81145  1.0000
  F   F247      1.0  0.42633  0.51578  0.32807  1.0000
  F   F248      1.0  0.42902  0.50440  0.82631  1.0000
  F   F249      1.0  0.68393  0.01322  0.33042  1.0000
  F   F250      1.0  0.67868  0.01478  0.83374  1.0000
  F   F251      1.0  0.68139  0.52313  0.32773  1.0000
  F   F252      1.0  0.68387  0.51111  0.82427  1.0000
  F   F253      1.0  0.93084  0.02512  0.32415  1.0000
  F   F254      1.0  0.93376  0.02357  0.81049  1.0000
  F   F255      1.0  0.93772  0.51702  0.31117  1.0000
  F   F256      1.0  0.93673  0.51472  0.81694  1.0000
  F   F257      1.0  0.00596  0.23878  0.00931  1.0000
  F   F258      1.0  0.99779  0.24436  0.50583  1.0000
  F   F259      1.0  0.99318  0.76301  0.00421  1.0000
  F   F260      1.0  0.00312  0.75486  0.49576  1.0000
  F   F261      1.0  0.25097  0.23270  0.00318  1.0000
  F   F262      1.0  0.25482  0.25528  0.48167  1.0000
  F   F263      1.0  0.25073  0.76778  0.99140  1.0000
  F   F264      1.0  0.24539  0.75243  0.49966  1.0000
  F   F265      1.0  0.50260  0.25339  0.99395  1.0000
  F   F266      1.0  0.49784  0.25737  0.49638  1.0000
  F   F267      1.0  0.49531  0.76347  0.99051  1.0000
  F   F268      1.0  0.50164  0.73638  0.50819  1.0000
  F   F269      1.0  0.75084  0.25880  0.99709  1.0000
  F   F270      1.0  0.74659  0.24678  0.49739  1.0000
  F   F271      1.0  0.75660  0.75884  0.99134  1.0000
  F   F272      1.0  0.74345  0.72936  0.51094  1.0000
  F   F273      1.0  0.12608  0.00518  0.26413  1.0000
  F   F274      1.0  0.12711  0.00763  0.74671  1.0000
  F   F275      1.0  0.12578  0.49798  0.25110  1.0000
  F   F276      1.0  0.11978  0.49533  0.76450  1.0000
  F   F277      1.0  0.37527  0.99519  0.25569  1.0000
  F   F278      1.0  0.36933  0.00381  0.74958  1.0000
  F   F279      1.0  0.37321  0.50252  0.24740  1.0000
  F   F280      1.0  0.36954  0.49847  0.74981  1.0000
  F   F281      1.0  0.63156  0.01609  0.23576  1.0000
  F   F282      1.0  0.63506  0.00217  0.73644  1.0000
  F   F283      1.0  0.62027  0.49698  0.25411  1.0000
  F   F284      1.0  0.63138  0.50495  0.74009  1.0000
  F   F285      1.0  0.86510  0.98820  0.26532  1.0000
  F   F286      1.0  0.86991  0.99040  0.75518  1.0000
  F   F287      1.0  0.86983  0.50172  0.25769  1.0000
  F   F288      1.0  0.87089  0.49271  0.76054  1.0000
  F   F289      1.0  0.04451  0.02323  0.02851  1.0000
  F   F290      1.0  0.04133  0.03304  0.52778  1.0000
  F   F291      1.0  0.04959  0.52943  0.02787  1.0000
  F   F292      1.0  0.04389  0.53022  0.53240  1.0000
  F   F293      1.0  0.29683  0.03180  0.03198  1.0000
  F   F294      1.0  0.28618  0.03155  0.53042  1.0000
  F   F295      1.0  0.29227  0.52791  0.02122  1.0000
  F   F296      1.0  0.29554  0.53194  0.52248  1.0000
  F   F297      1.0  0.54821  0.03563  0.01132  1.0000
  F   F298      1.0  0.54233  0.03648  0.51266  1.0000
  F   F299      1.0  0.54535  0.53149  0.01860  1.0000
  F   F300      1.0  0.54996  0.54289  0.50394  1.0000
  F   F301      1.0  0.78939  0.03517  0.03164  1.0000
  F   F302      1.0  0.79491  0.02930  0.52428  1.0000
  F   F303      1.0  0.79040  0.53988  0.03295  1.0000
  F   F304      1.0  0.79344  0.51672  0.52259  1.0000
  F   F305      1.0  0.23565  0.40962  0.23193  1.0000
  F   F306      1.0  0.23670  0.41913  0.72020  1.0000
  F   F307      1.0  0.23255  0.92102  0.23707  1.0000
  F   F308      1.0  0.23717  0.90981  0.72872  1.0000
  F   F309      1.0  0.48405  0.41245  0.23044  1.0000
  F   F310      1.0  0.49010  0.43049  0.71427  1.0000
  F   F311      1.0  0.48807  0.90231  0.22195  1.0000
  F   F312      1.0  0.48167  0.91845  0.71617  1.0000
  F   F313      1.0  0.73373  0.42962  0.21961  1.0000
  F   F314      1.0  0.73301  0.41876  0.72761  1.0000
  F   F315      1.0  0.73295  0.92815  0.22239  1.0000
  F   F316      1.0  0.73153  0.90993  0.73802  1.0000
  F   F317      1.0  0.98480  0.40550  0.23132  1.0000
  F   F318      1.0  0.98364  0.38418  0.73844  1.0000
  F   F319      1.0  0.98593  0.91539  0.23404  1.0000
  F   F320      1.0  0.98202  0.93364  0.71487  1.0000
  F   F321      1.0  0.20504  0.47568  0.47877  1.0000
  F   F322      1.0  0.20542  0.47256  0.98710  1.0000
  F   F323      1.0  0.20776  0.96451  0.47876  1.0000
  F   F324      1.0  0.19858  0.97557  0.99203  1.0000
  F   F325      1.0  0.46175  0.48787  0.47158  1.0000
  F   F326      1.0  0.45685  0.47023  0.96342  1.0000
  F   F327      1.0  0.45853  0.96180  0.47684  1.0000
  F   F328      1.0  0.45677  0.96306  0.97341  1.0000
  F   F329      1.0  0.70955  0.46599  0.47793  1.0000
  F   F330      1.0  0.71021  0.46816  0.98225  1.0000
  F   F331      1.0  0.71023  0.96704  0.47538  1.0000
  F   F332      1.0  0.71525  0.97610  0.97058  1.0000
  F   F333      1.0  0.95075  0.46884  0.48560  1.0000
  F   F334      1.0  0.96307  0.46340  0.97173  1.0000
  F   F335      1.0  0.95668  0.97138  0.46790  1.0000
  F   F336      1.0  0.95150  0.96666  0.98930  1.0000
  F   F337      1.0  0.01626  0.10186  0.28536  1.0000
  F   F338      1.0  0.01745  0.06928  0.78871  1.0000
  F   F339      1.0  0.01621  0.57144  0.28470  1.0000
  F   F340      1.0  0.01648  0.57670  0.77815  1.0000
  F   F341      1.0  0.26026  0.08234  0.26414  1.0000
  F   F342      1.0  0.27105  0.09023  0.76143  1.0000
  F   F343      1.0  0.25764  0.57572  0.28454  1.0000
  F   F344      1.0  0.26863  0.58177  0.78356  1.0000
  F   F345      1.0  0.51735  0.07553  0.27335  1.0000
  F   F346      1.0  0.51363  0.09239  0.77304  1.0000
  F   F347      1.0  0.51922  0.59326  0.26249  1.0000
  F   F348      1.0  0.51880  0.58354  0.77427  1.0000
  F   F349      1.0  0.75801  0.11693  0.26972  1.0000
  F   F350      1.0  0.76251  0.08326  0.77485  1.0000
  F   F351      1.0  0.76741  0.58372  0.26542  1.0000
  F   F352      1.0  0.76694  0.57293  0.78251  1.0000
  F   F353      1.0  0.10276  0.37755  0.47347  1.0000
  F   F354      1.0  0.10367  0.40740  0.96648  1.0000
  F   F355      1.0  0.09563  0.90915  0.47519  1.0000
  F   F356      1.0  0.09965  0.89344  0.96412  1.0000
  F   F357      1.0  0.35052  0.41218  0.45894  1.0000
  F   F358      1.0  0.35401  0.39611  0.96387  1.0000
  F   F359      1.0  0.34890  0.90917  0.46739  1.0000
  F   F360      1.0  0.35142  0.92021  0.94876  1.0000
  F   F361      1.0  0.60114  0.40890  0.46063  1.0000
  F   F362      1.0  0.60135  0.42170  0.95226  1.0000
  F   F363      1.0  0.59697  0.91257  0.46950  1.0000
  F   F364      1.0  0.60576  0.91413  0.96398  1.0000
  F   F365      1.0  0.85119  0.40497  0.45569  1.0000
  F   F366      1.0  0.84880  0.41942  0.95988  1.0000
  F   F367      1.0  0.84486  0.90120  0.45700  1.0000
  F   F368      1.0  0.85026  0.90894  0.95685  1.0000
  F   F369      1.0  0.04610  0.28911  0.27592  1.0000
  F   F370      1.0  0.04935  0.29446  0.79622  1.0000
  F   F371      1.0  0.04626  0.78311  0.29235  1.0000
  F   F372      1.0  0.04236  0.80546  0.78315  1.0000
  F   F373      1.0  0.29785  0.29900  0.29059  1.0000
  F   F374      1.0  0.29990  0.30238  0.77714  1.0000
  F   F375      1.0  0.29671  0.80638  0.28168  1.0000
  F   F376      1.0  0.30324  0.80698  0.77912  1.0000
  F   F377      1.0  0.54972  0.29691  0.28631  1.0000
  F   F378      1.0  0.54926  0.29341  0.77898  1.0000
  F   F379      1.0  0.55021  0.80533  0.28387  1.0000
  F   F380      1.0  0.55002  0.81098  0.78026  1.0000
  F   F381      1.0  0.80202  0.28549  0.27927  1.0000
  F   F382      1.0  0.79203  0.30344  0.80000  1.0000
  F   F383      1.0  0.79003  0.79440  0.28735  1.0000
  F   F384      1.0  0.79491  0.80279  0.78687  1.0000
