data_image0
_chemical_formula_structural       Hf96F384
_chemical_formula_sum              "Hf96 F384"
_cell_length_a       31.0593
_cell_length_b       15.5275
_cell_length_c       15.5139
_cell_angle_alpha    63.342
_cell_angle_beta     63.342
_cell_angle_gamma    80.1625

_space_group_name_H-M_alt    "P 1"
_space_group_IT_number       1

loop_
  _space_group_symop_operation_xyz
  'x, y, z'

loop_
  _atom_site_type_symbol
  _atom_site_label
  _atom_site_symmetry_multiplicity
  _atom_site_fract_x
  _atom_site_fract_y
  _atom_site_fract_z
  _atom_site_occupancy
  Hf  Hf1       1.0  0.19475  0.09572  0.38565  1.0000
  Hf  Hf2       1.0  0.19504  0.10507  0.87812  1.0000
  Hf  Hf3       1.0  0.19822  0.61020  0.37299  1.0000
  Hf  Hf4       1.0  0.19526  0.60840  0.87495  1.0000
  Hf  Hf5       1.0  0.44865  0.10404  0.37170  1.0000
  Hf  Hf6       1.0  0.44579  0.10052  0.88202  1.0000
  Hf  Hf7       1.0  0.44606  0.60028  0.37305  1.0000
  Hf  Hf8       1.0  0.44415  0.60227  0.87745  1.0000
  Hf  Hf9       1.0  0.69548  0.11614  0.36680  1.0000
  Hf  Hf10      1.0  0.69776  0.10531  0.87143  1.0000
  Hf  Hf11      1.0  0.69734  0.61541  0.36688  1.0000
  Hf  Hf12      1.0  0.69926  0.61727  0.86042  1.0000
  Hf  Hf13      1.0  0.94742  0.10298  0.37809  1.0000
  Hf  Hf14      1.0  0.94556  0.11565  0.87354  1.0000
  Hf  Hf15      1.0  0.94982  0.61203  0.37251  1.0000
  Hf  Hf16      1.0  0.94412  0.61266  0.88158  1.0000
  Hf  Hf17      1.0  0.05559  0.39514  0.12503  1.0000
  Hf  Hf18      1.0  0.05359  0.40109  0.61785  1.0000
  Hf  Hf19      1.0  0.04997  0.89672  0.12946  1.0000
  Hf  Hf20      1.0  0.05605  0.89407  0.62499  1.0000
  Hf  Hf21      1.0  0.30270  0.39016  0.12437  1.0000
  Hf  Hf22      1.0  0.30339  0.38797  0.63040  1.0000
  Hf  Hf23      1.0  0.30536  0.89650  0.12536  1.0000
  Hf  Hf24      1.0  0.30271  0.88091  0.63301  1.0000
  Hf  Hf25      1.0  0.55188  0.37975  0.13271  1.0000
  Hf  Hf26      1.0  0.55016  0.39679  0.61638  1.0000
  Hf  Hf27      1.0  0.55493  0.89986  0.11649  1.0000
  Hf  Hf28      1.0  0.55402  0.88102  0.62910  1.0000
  Hf  Hf29      1.0  0.80718  0.39556  0.12325  1.0000
  Hf  Hf30      1.0  0.80517  0.39578  0.61650  1.0000
  Hf  Hf31      1.0  0.80431  0.89346  0.11901  1.0000
  Hf  Hf32      1.0  0.80285  0.89326  0.62816  1.0000
  Hf  Hf33      1.0  0.05556  0.17586  0.42319  1.0000
  Hf  Hf34      1.0  0.05531  0.18798  0.91251  1.0000
  Hf  Hf35      1.0  0.05733  0.68093  0.41693  1.0000
  Hf  Hf36      1.0  0.05010  0.68342  0.92479  1.0000
  Hf  Hf37      1.0  0.30737  0.18185  0.41621  1.0000
  Hf  Hf38      1.0  0.30510  0.17523  0.92445  1.0000
  Hf  Hf39      1.0  0.30711  0.68189  0.41634  1.0000
  Hf  Hf40      1.0  0.30586  0.69083  0.91178  1.0000
  Hf  Hf41      1.0  0.55214  0.17539  0.41728  1.0000
  Hf  Hf42      1.0  0.55471  0.18387  0.91523  1.0000
  Hf  Hf43      1.0  0.55550  0.68651  0.40928  1.0000
  Hf  Hf44      1.0  0.55508  0.67148  0.92346  1.0000
  Hf  Hf45      1.0  0.80596  0.18312  0.41472  1.0000
  Hf  Hf46      1.0  0.80486  0.18557  0.91429  1.0000
  Hf  Hf47      1.0  0.80849  0.68011  0.41600  1.0000
  Hf  Hf48      1.0  0.80640  0.68719  0.91646  1.0000
  Hf  Hf49      1.0  0.15939  0.38352  0.33552  1.0000
  Hf  Hf50      1.0  0.16011  0.38496  0.83537  1.0000
  Hf  Hf51      1.0  0.15910  0.88110  0.33553  1.0000
  Hf  Hf52      1.0  0.16004  0.88685  0.82760  1.0000
  Hf  Hf53      1.0  0.40701  0.39041  0.32953  1.0000
  Hf  Hf54      1.0  0.40789  0.39275  0.82903  1.0000
  Hf  Hf55      1.0  0.40553  0.88296  0.33597  1.0000
  Hf  Hf56      1.0  0.40866  0.88930  0.83484  1.0000
  Hf  Hf57      1.0  0.66050  0.39212  0.33074  1.0000
  Hf  Hf58      1.0  0.65874  0.38475  0.83992  1.0000
  Hf  Hf59      1.0  0.65824  0.88966  0.33155  1.0000
  Hf  Hf60      1.0  0.65765  0.88934  0.83134  1.0000
  Hf  Hf61      1.0  0.90964  0.39243  0.33161  1.0000
  Hf  Hf62      1.0  0.90688  0.38681  0.83229  1.0000
  Hf  Hf63      1.0  0.90718  0.88807  0.33900  1.0000
  Hf  Hf64      1.0  0.91113  0.89642  0.82469  1.0000
  Hf  Hf65      1.0  0.19550  0.31113  0.09034  1.0000
  Hf  Hf66      1.0  0.19615  0.31962  0.58486  1.0000
  Hf  Hf67      1.0  0.19042  0.81711  0.09145  1.0000
  Hf  Hf68      1.0  0.19692  0.80692  0.58680  1.0000
  Hf  Hf69      1.0  0.44100  0.31161  0.08916  1.0000
  Hf  Hf70      1.0  0.44202  0.31046  0.58281  1.0000
  Hf  Hf71      1.0  0.44419  0.80699  0.09170  1.0000
  Hf  Hf72      1.0  0.44409  0.82010  0.58213  1.0000
  Hf  Hf73      1.0  0.69829  0.32523  0.07273  1.0000
  Hf  Hf74      1.0  0.69141  0.32029  0.58942  1.0000
  Hf  Hf75      1.0  0.69432  0.82179  0.08083  1.0000
  Hf  Hf76      1.0  0.69588  0.81268  0.57588  1.0000
  Hf  Hf77      1.0  0.94797  0.32130  0.08213  1.0000
  Hf  Hf78      1.0  0.94229  0.31824  0.58757  1.0000
  Hf  Hf79      1.0  0.94585  0.82875  0.08201  1.0000
  Hf  Hf80      1.0  0.94816  0.82373  0.58193  1.0000
  Hf  Hf81      1.0  0.09111  0.10580  0.17348  1.0000
  Hf  Hf82      1.0  0.09289  0.11257  0.67013  1.0000
  Hf  Hf83      1.0  0.09157  0.61664  0.16471  1.0000
  Hf  Hf84      1.0  0.09107  0.60830  0.67786  1.0000
  Hf  Hf85      1.0  0.33961  0.11077  0.16529  1.0000
  Hf  Hf86      1.0  0.33481  0.10732  0.67508  1.0000
  Hf  Hf87      1.0  0.34039  0.61546  0.16432  1.0000
  Hf  Hf88      1.0  0.34531  0.61636  0.66662  1.0000
  Hf  Hf89      1.0  0.59338  0.11383  0.15694  1.0000
  Hf  Hf90      1.0  0.59142  0.11828  0.65523  1.0000
  Hf  Hf91      1.0  0.58744  0.61095  0.16369  1.0000
  Hf  Hf92      1.0  0.59087  0.60619  0.66628  1.0000
  Hf  Hf93      1.0  0.84730  0.11429  0.15263  1.0000
  Hf  Hf94      1.0  0.84285  0.11366  0.66090  1.0000
  Hf  Hf95      1.0  0.84282  0.61912  0.16296  1.0000
  Hf  Hf96      1.0  0.84766  0.61401  0.67021  1.0000
  F   F1        1.0  0.08317  0.11914  0.30993  1.0000
  F   F2        1.0  0.08005  0.12479  0.81182  1.0000
  F   F3        1.0  0.08013  0.62764  0.31134  1.0000
  F   F4        1.0  0.07895  0.62515  0.80814  1.0000
  F   F5        1.0  0.33089  0.13147  0.29524  1.0000
  F   F6        1.0  0.33237  0.14167  0.79830  1.0000
  F   F7        1.0  0.32917  0.62080  0.30415  1.0000
  F   F8        1.0  0.32699  0.62256  0.81870  1.0000
  F   F9        1.0  0.57595  0.12077  0.30468  1.0000
  F   F10       1.0  0.57137  0.13387  0.79624  1.0000
  F   F11       1.0  0.57838  0.64926  0.28432  1.0000
  F   F12       1.0  0.58396  0.62673  0.80325  1.0000
  F   F13       1.0  0.83306  0.12687  0.29482  1.0000
  F   F14       1.0  0.83429  0.13324  0.79225  1.0000
  F   F15       1.0  0.83269  0.64139  0.29365  1.0000
  F   F16       1.0  0.82840  0.61815  0.81462  1.0000
  F   F17       1.0  0.17932  0.32772  0.45625  1.0000
  F   F18       1.0  0.18489  0.33332  0.95114  1.0000
  F   F19       1.0  0.18685  0.82750  0.45640  1.0000
  F   F20       1.0  0.17993  0.83225  0.95824  1.0000
  F   F21       1.0  0.42260  0.33020  0.45384  1.0000
  F   F22       1.0  0.43834  0.34752  0.94035  1.0000
  F   F23       1.0  0.44038  0.84941  0.43721  1.0000
  F   F24       1.0  0.43023  0.83263  0.95888  1.0000
  F   F25       1.0  0.68673  0.35259  0.44556  1.0000
  F   F26       1.0  0.69625  0.34794  0.93363  1.0000
  F   F27       1.0  0.68928  0.83841  0.44741  1.0000
  F   F28       1.0  0.68460  0.83713  0.94885  1.0000
  F   F29       1.0  0.94073  0.35329  0.43241  1.0000
  F   F30       1.0  0.93365  0.35817  0.94975  1.0000
  F   F31       1.0  0.93187  0.83586  0.45977  1.0000
  F   F32       1.0  0.93188  0.85856  0.94528  1.0000
  F   F33       1.0  0.17456  0.36601  0.20102  1.0000
  F   F34       1.0  0.17098  0.38321  0.69090  1.0000
  F   F35       1.0  0.17249  0.87424  0.19975  1.0000
  F   F36       1.0  0.16012  0.85821  0.70002  1.0000
  F   F37       1.0  0.42697  0.36551  0.20101  1.0000
  F   F38       1.0  0.41766  0.37957  0.69755  1.0000
  F   F39       1.0  0.41803  0.85268  0.21003  1.0000
  F   F40       1.0  0.42424  0.88648  0.67853  1.0000
  F   F41       1.0  0.66891  0.38449  0.19737  1.0000
  F   F42       1.0  0.66389  0.35555  0.70629  1.0000
  F   F43       1.0  0.66895  0.88029  0.18614  1.0000
  F   F44       1.0  0.66891  0.85515  0.71211  1.0000
  F   F45       1.0  0.92119  0.38152  0.19145  1.0000
  F   F46       1.0  0.92135  0.38799  0.68840  1.0000
  F   F47       1.0  0.91986  0.87116  0.20291  1.0000
  F   F48       1.0  0.92201  0.88258  0.68809  1.0000
  F   F49       1.0  0.07051  0.15588  0.05937  1.0000
  F   F50       1.0  0.05871  0.14143  0.57299  1.0000
  F   F51       1.0  0.06325  0.66548  0.05589  1.0000
  F   F52       1.0  0.07008  0.65798  0.55162  1.0000
  F   F53       1.0  0.30621  0.15703  0.06558  1.0000
  F   F54       1.0  0.31548  0.16423  0.54706  1.0000
  F   F55       1.0  0.31202  0.66858  0.04866  1.0000
  F   F56       1.0  0.31986  0.66649  0.54706  1.0000
  F   F57       1.0  0.56237  0.15948  0.04889  1.0000
  F   F58       1.0  0.55693  0.14613  0.55983  1.0000
  F   F59       1.0  0.55946  0.64813  0.05771  1.0000
  F   F60       1.0  0.56444  0.66297  0.55043  1.0000
  F   F61       1.0  0.81001  0.17069  0.05031  1.0000
  F   F62       1.0  0.81426  0.18476  0.54616  1.0000
  F   F63       1.0  0.81065  0.66364  0.05334  1.0000
  F   F64       1.0  0.81909  0.66013  0.56103  1.0000
  F   F65       1.0  0.20059  0.19803  0.21647  1.0000
  F   F66       1.0  0.20749  0.20104  0.71946  1.0000
  F   F67       1.0  0.20080  0.69898  0.20992  1.0000
  F   F68       1.0  0.19907  0.69340  0.71594  1.0000
  F   F69       1.0  0.45367  0.18939  0.20030  1.0000
  F   F70       1.0  0.43449  0.19973  0.71560  1.0000
  F   F71       1.0  0.45655  0.69334  0.21724  1.0000
  F   F72       1.0  0.45830  0.69848  0.71285  1.0000
  F   F73       1.0  0.70549  0.21235  0.20914  1.0000
  F   F74       1.0  0.69955  0.20560  0.72385  1.0000
  F   F75       1.0  0.71073  0.71840  0.21070  1.0000
  F   F76       1.0  0.71162  0.70022  0.69486  1.0000
  F   F77       1.0  0.95317  0.20035  0.20085  1.0000
  F   F78       1.0  0.95705  0.21692  0.71031  1.0000
  F   F79       1.0  0.95038  0.70748  0.21798  1.0000
  F   F80       1.0  0.95808  0.69927  0.72275  1.0000
  F   F81       1.0  0.15294  0.07593  0.03260  1.0000
  F   F82       1.0  0.15237  0.10275  0.54386  1.0000
  F   F83       1.0  0.14689  0.60445  0.02921  1.0000
  F   F84       1.0  0.14910  0.59747  0.54247  1.0000
  F   F85       1.0  0.39533  0.09471  0.03215  1.0000
  F   F86       1.0  0.39551  0.07660  0.52573  1.0000
  F   F87       1.0  0.39530  0.60612  0.03093  1.0000
  F   F88       1.0  0.40412  0.58904  0.54990  1.0000
  F   F89       1.0  0.64483  0.07391  0.02554  1.0000
  F   F90       1.0  0.64632  0.11598  0.52755  1.0000
  F   F91       1.0  0.64286  0.59824  0.05029  1.0000
  F   F92       1.0  0.64940  0.58372  0.53893  1.0000
  F   F93       1.0  0.89755  0.08634  0.03462  1.0000
  F   F94       1.0  0.90179  0.09319  0.53561  1.0000
  F   F95       1.0  0.89784  0.60934  0.03737  1.0000
  F   F96       1.0  0.90269  0.60028  0.54733  1.0000
  F   F97       1.0  0.14907  0.18581  0.12343  1.0000
  F   F98       1.0  0.15387  0.20509  0.64781  1.0000
  F   F99       1.0  0.14623  0.69009  0.13493  1.0000
  F   F100      1.0  0.14764  0.69389  0.63030  1.0000
  F   F101      1.0  0.39788  0.19433  0.11573  1.0000
  F   F102      1.0  0.40015  0.18412  0.60414  1.0000
  F   F103      1.0  0.40043  0.68777  0.13556  1.0000
  F   F104      1.0  0.40189  0.70416  0.61864  1.0000
  F   F105      1.0  0.65691  0.18436  0.10823  1.0000
  F   F106      1.0  0.65467  0.19534  0.63985  1.0000
  F   F107      1.0  0.65747  0.69959  0.13294  1.0000
  F   F108      1.0  0.65430  0.68947  0.61958  1.0000
  F   F109      1.0  0.90958  0.19222  0.10371  1.0000
  F   F110      1.0  0.90184  0.20117  0.63081  1.0000
  F   F111      1.0  0.90596  0.71355  0.11659  1.0000
  F   F112      1.0  0.90145  0.69874  0.64550  1.0000
  F   F113      1.0  0.09918  0.29244  0.39101  1.0000
  F   F114      1.0  0.09647  0.30239  0.88307  1.0000
  F   F115      1.0  0.09548  0.80442  0.35432  1.0000
  F   F116      1.0  0.09684  0.81467  0.87527  1.0000
  F   F117      1.0  0.34398  0.32494  0.38415  1.0000
  F   F118      1.0  0.35304  0.29957  0.88790  1.0000
  F   F119      1.0  0.33969  0.80629  0.38671  1.0000
  F   F120      1.0  0.34776  0.80678  0.86392  1.0000
  F   F121      1.0  0.59636  0.29714  0.38454  1.0000
  F   F122      1.0  0.59805  0.31552  0.86925  1.0000
  F   F123      1.0  0.58905  0.80718  0.35936  1.0000
  F   F124      1.0  0.59781  0.80464  0.89821  1.0000
  F   F125      1.0  0.85258  0.30595  0.37356  1.0000
  F   F126      1.0  0.84965  0.29741  0.87759  1.0000
  F   F127      1.0  0.84617  0.79873  0.37156  1.0000
  F   F128      1.0  0.85432  0.80660  0.87392  1.0000
  F   F129      1.0  0.05841  0.25522  0.15049  1.0000
  F   F130      1.0  0.08232  0.25749  0.61320  1.0000
  F   F131      1.0  0.06299  0.74988  0.14971  1.0000
  F   F132      1.0  0.06624  0.75394  0.64314  1.0000
  F   F133      1.0  0.30753  0.25524  0.15156  1.0000
  F   F134      1.0  0.30165  0.24444  0.66460  1.0000
  F   F135      1.0  0.31829  0.75898  0.13539  1.0000
  F   F136      1.0  0.31286  0.73790  0.66897  1.0000
  F   F137      1.0  0.56280  0.25267  0.13386  1.0000
  F   F138      1.0  0.57336  0.25423  0.60728  1.0000
  F   F139      1.0  0.57306  0.75496  0.12709  1.0000
  F   F140      1.0  0.55800  0.72883  0.66591  1.0000
  F   F141      1.0  0.82217  0.26033  0.12830  1.0000
  F   F142      1.0  0.81249  0.25463  0.65248  1.0000
  F   F143      1.0  0.81481  0.75773  0.13040  1.0000
  F   F144      1.0  0.81716  0.75587  0.64281  1.0000
  F   F145      1.0  0.12641  0.35447  0.11624  1.0000
  F   F146      1.0  0.12919  0.40049  0.58425  1.0000
  F   F147      1.0  0.12022  0.86317  0.12266  1.0000
  F   F148      1.0  0.12445  0.87305  0.59585  1.0000
  F   F149      1.0  0.36884  0.35758  0.12693  1.0000
  F   F150      1.0  0.37189  0.34181  0.63492  1.0000
  F   F151      1.0  0.37807  0.88956  0.09884  1.0000
  F   F152      1.0  0.37154  0.87076  0.62012  1.0000
  F   F153      1.0  0.62394  0.33009  0.13492  1.0000
  F   F154      1.0  0.62672  0.37642  0.59381  1.0000
  F   F155      1.0  0.61851  0.86057  0.12163  1.0000
  F   F156      1.0  0.62303  0.86024  0.60533  1.0000
  F   F157      1.0  0.87459  0.37746  0.10768  1.0000
  F   F158      1.0  0.87873  0.37415  0.59935  1.0000
  F   F159      1.0  0.87573  0.89414  0.09947  1.0000
  F   F160      1.0  0.87343  0.89102  0.59756  1.0000
  F   F161      1.0  0.18853  0.24029  0.35301  1.0000
  F   F162      1.0  0.18799  0.24585  0.86344  1.0000
  F   F163      1.0  0.17871  0.74644  0.36746  1.0000
  F   F164      1.0  0.18649  0.74025  0.85341  1.0000
  F   F165      1.0  0.43623  0.23540  0.36700  1.0000
  F   F166      1.0  0.43841  0.24363  0.84624  1.0000
  F   F167      1.0  0.43008  0.74209  0.36304  1.0000
  F   F168      1.0  0.43761  0.74823  0.85504  1.0000
  F   F169      1.0  0.69023  0.25470  0.34874  1.0000
  F   F170      1.0  0.67639  0.23650  0.88892  1.0000
  F   F171      1.0  0.67284  0.74315  0.37949  1.0000
  F   F172      1.0  0.68778  0.74672  0.85439  1.0000
  F   F173      1.0  0.93608  0.24298  0.35345  1.0000
  F   F174      1.0  0.93934  0.25453  0.86298  1.0000
  F   F175      1.0  0.92952  0.74999  0.37805  1.0000
  F   F176      1.0  0.93427  0.74478  0.87242  1.0000
  F   F177      1.0  0.12234  0.11619  0.42144  1.0000
  F   F178      1.0  0.12554  0.14395  0.88657  1.0000
  F   F179      1.0  0.12841  0.61621  0.40991  1.0000
  F   F180      1.0  0.11963  0.61699  0.90050  1.0000
  F   F181      1.0  0.37659  0.15273  0.36567  1.0000
  F   F182      1.0  0.37122  0.12879  0.90663  1.0000
  F   F183      1.0  0.37719  0.62355  0.38962  1.0000
  F   F184      1.0  0.37470  0.63385  0.88142  1.0000
  F   F185      1.0  0.62778  0.13189  0.38425  1.0000
  F   F186      1.0  0.61948  0.14246  0.88846  1.0000
  F   F187      1.0  0.62558  0.62615  0.39379  1.0000
  F   F188      1.0  0.62746  0.61829  0.90536  1.0000
  F   F189      1.0  0.87849  0.12299  0.39226  1.0000
  F   F190      1.0  0.87820  0.14217  0.88491  1.0000
  F   F191      1.0  0.87185  0.61055  0.40912  1.0000
  F   F192      1.0  0.87200  0.62448  0.90342  1.0000
  F   F193      1.0  0.00640  0.35658  0.07338  1.0000
  F   F194      1.0  0.00722  0.36091  0.57210  1.0000
  F   F195      1.0  0.01145  0.85779  0.07776  1.0000
  F   F196      1.0  0.01168  0.85417  0.57234  1.0000
  F   F197      1.0  0.25691  0.35833  0.07166  1.0000
  F   F198      1.0  0.25646  0.35387  0.58978  1.0000
  F   F199      1.0  0.25574  0.86519  0.09464  1.0000
  F   F200      1.0  0.25623  0.84495  0.59493  1.0000
  F   F201      1.0  0.50968  0.37308  0.06724  1.0000
  F   F202      1.0  0.50309  0.35283  0.58520  1.0000
  F   F203      1.0  0.50906  0.83817  0.08334  1.0000
  F   F204      1.0  0.50826  0.86449  0.57101  1.0000
  F   F205      1.0  0.75960  0.37000  0.05810  1.0000
  F   F206      1.0  0.75959  0.36937  0.55194  1.0000
  F   F207      1.0  0.76025  0.87165  0.06528  1.0000
  F   F208      1.0  0.75614  0.86804  0.56986  1.0000
  F   F209      1.0  0.06838  0.47653  0.17907  1.0000
  F   F210      1.0  0.06679  0.47532  0.69088  1.0000
  F   F211      1.0  0.06894  0.98186  0.18317  1.0000
  F   F212      1.0  0.07792  0.98733  0.66517  1.0000
  F   F213      1.0  0.32051  0.49108  0.17423  1.0000
  F   F214      1.0  0.32295  0.49194  0.66348  1.0000
  F   F215      1.0  0.31586  0.98041  0.18086  1.0000
  F   F216      1.0  0.31629  0.97616  0.68225  1.0000
  F   F217      1.0  0.57270  0.47878  0.16255  1.0000
  F   F218      1.0  0.56948  0.49950  0.65553  1.0000
  F   F219      1.0  0.56587  0.99169  0.16548  1.0000
  F   F220      1.0  0.57364  0.97598  0.67851  1.0000
  F   F221      1.0  0.81951  0.49170  0.17192  1.0000
  F   F222      1.0  0.81898  0.48123  0.66852  1.0000
  F   F223      1.0  0.81863  0.99472  0.16616  1.0000
  F   F224      1.0  0.81908  0.99831  0.67591  1.0000
  F   F225      1.0  0.24260  0.12284  0.43849  1.0000
  F   F226      1.0  0.24509  0.11270  0.93098  1.0000
  F   F227      1.0  0.24309  0.63869  0.42265  1.0000
  F   F228      1.0  0.24140  0.64732  0.93124  1.0000
  F   F229      1.0  0.49172  0.12053  0.44477  1.0000
  F   F230      1.0  0.48718  0.13486  0.92990  1.0000
  F   F231      1.0  0.49047  0.63984  0.41585  1.0000
  F   F232      1.0  0.49066  0.61980  0.92848  1.0000
  F   F233      1.0  0.74598  0.12776  0.41309  1.0000
  F   F234      1.0  0.74553  0.13938  0.90760  1.0000
  F   F235      1.0  0.73895  0.65710  0.41392  1.0000
  F   F236      1.0  0.74183  0.63886  0.92341  1.0000
  F   F237      1.0  0.99191  0.12551  0.43695  1.0000
  F   F238      1.0  0.98990  0.13718  0.92988  1.0000
  F   F239      1.0  0.99511  0.64280  0.42197  1.0000
  F   F240      1.0  0.99071  0.64355  0.93379  1.0000
  F   F241      1.0  0.17691  0.01295  0.33698  1.0000
  F   F242      1.0  0.18474  0.02819  0.80638  1.0000
  F   F243      1.0  0.18234  0.50266  0.33785  1.0000
  F   F244      1.0  0.18498  0.51246  0.82420  1.0000
  F   F245      1.0  0.42560  0.01002  0.33438  1.0000
  F   F246      1.0  0.42593  0.00545  0.84197  1.0000
  F   F247      1.0  0.43133  0.52178  0.30538  1.0000
  F   F248      1.0  0.42985  0.52051  0.80822  1.0000
  F   F249      1.0  0.67943  0.01954  0.31491  1.0000
  F   F250      1.0  0.68058  0.01780  0.82852  1.0000
  F   F251      1.0  0.68123  0.51297  0.32004  1.0000
  F   F252      1.0  0.68427  0.52231  0.80359  1.0000
  F   F253      1.0  0.93026  0.00440  0.33750  1.0000
  F   F254      1.0  0.93410  0.02915  0.82020  1.0000
  F   F255      1.0  0.93927  0.52602  0.30738  1.0000
  F   F256      1.0  0.92737  0.51364  0.81999  1.0000
  F   F257      1.0  0.99892  0.25633  0.98478  1.0000
  F   F258      1.0  0.99673  0.24131  0.50749  1.0000
  F   F259      1.0  0.99846  0.77085  0.99309  1.0000
  F   F260      1.0  0.99840  0.74427  0.50958  1.0000
  F   F261      1.0  0.24424  0.23668  0.01507  1.0000
  F   F262      1.0  0.25576  0.25446  0.49918  1.0000
  F   F263      1.0  0.24996  0.76802  0.99863  1.0000
  F   F264      1.0  0.25438  0.74225  0.51345  1.0000
  F   F265      1.0  0.49771  0.24501  0.00022  1.0000
  F   F266      1.0  0.49742  0.25773  0.48702  1.0000
  F   F267      1.0  0.49395  0.72226  0.02000  1.0000
  F   F268      1.0  0.49799  0.74506  0.50353  1.0000
  F   F269      1.0  0.74517  0.24619  0.00382  1.0000
  F   F270      1.0  0.74467  0.23381  0.49954  1.0000
  F   F271      1.0  0.75245  0.76426  0.98701  1.0000
  F   F272      1.0  0.75306  0.75624  0.48589  1.0000
  F   F273      1.0  0.12100  0.98729  0.25027  1.0000
  F   F274      1.0  0.12246  0.99513  0.75594  1.0000
  F   F275      1.0  0.12835  0.49340  0.24549  1.0000
  F   F276      1.0  0.12009  0.48719  0.76465  1.0000
  F   F277      1.0  0.37795  0.00285  0.23442  1.0000
  F   F278      1.0  0.37713  0.01686  0.74767  1.0000
  F   F279      1.0  0.37565  0.49246  0.25326  1.0000
  F   F280      1.0  0.36759  0.49143  0.75761  1.0000
  F   F281      1.0  0.61824  0.00002  0.25656  1.0000
  F   F282      1.0  0.63058  0.00385  0.74282  1.0000
  F   F283      1.0  0.62297  0.50665  0.25970  1.0000
  F   F284      1.0  0.61999  0.48659  0.75471  1.0000
  F   F285      1.0  0.88029  0.00272  0.23510  1.0000
  F   F286      1.0  0.88058  0.00312  0.75221  1.0000
  F   F287      1.0  0.87102  0.50603  0.25697  1.0000
  F   F288      1.0  0.87558  0.49851  0.75290  1.0000
  F   F289      1.0  0.04121  0.03730  0.01808  1.0000
  F   F290      1.0  0.05007  0.02514  0.50714  1.0000
  F   F291      1.0  0.03997  0.52915  0.02582  1.0000
  F   F292      1.0  0.04180  0.53749  0.52622  1.0000
  F   F293      1.0  0.29889  0.02173  0.02149  1.0000
  F   F294      1.0  0.29273  0.02129  0.53017  1.0000
  F   F295      1.0  0.28851  0.52362  0.02323  1.0000
  F   F296      1.0  0.28349  0.53991  0.53459  1.0000
  F   F297      1.0  0.53940  0.03046  0.02125  1.0000
  F   F298      1.0  0.55169  0.01638  0.51228  1.0000
  F   F299      1.0  0.54502  0.52466  0.01602  1.0000
  F   F300      1.0  0.53224  0.53033  0.52279  1.0000
  F   F301      1.0  0.79046  0.03623  0.02129  1.0000
  F   F302      1.0  0.79652  0.03330  0.53288  1.0000
  F   F303      1.0  0.79010  0.53587  0.02270  1.0000
  F   F304      1.0  0.78341  0.54173  0.52820  1.0000
  F   F305      1.0  0.23463  0.41170  0.22535  1.0000
  F   F306      1.0  0.23541  0.40733  0.72752  1.0000
  F   F307      1.0  0.23009  0.90750  0.25249  1.0000
  F   F308      1.0  0.23127  0.91404  0.72277  1.0000
  F   F309      1.0  0.48885  0.40580  0.24094  1.0000
  F   F310      1.0  0.48405  0.41073  0.72679  1.0000
  F   F311      1.0  0.47990  0.91322  0.21620  1.0000
  F   F312      1.0  0.48474  0.91806  0.72466  1.0000
  F   F313      1.0  0.73613  0.41647  0.22529  1.0000
  F   F314      1.0  0.72995  0.40962  0.71914  1.0000
  F   F315      1.0  0.73088  0.91697  0.22504  1.0000
  F   F316      1.0  0.73108  0.91585  0.73112  1.0000
  F   F317      1.0  0.98595  0.39766  0.22935  1.0000
  F   F318      1.0  0.98508  0.41939  0.71603  1.0000
  F   F319      1.0  0.98176  0.93019  0.21202  1.0000
  F   F320      1.0  0.98746  0.91291  0.72490  1.0000
  F   F321      1.0  0.21804  0.46730  0.46898  1.0000
  F   F322      1.0  0.21274  0.48192  0.97796  1.0000
  F   F323      1.0  0.20627  0.96023  0.48778  1.0000
  F   F324      1.0  0.20968  0.95229  0.97759  1.0000
  F   F325      1.0  0.45903  0.46199  0.46526  1.0000
  F   F326      1.0  0.45036  0.45272  0.99067  1.0000
  F   F327      1.0  0.45420  0.96784  0.48020  1.0000
  F   F328      1.0  0.46172  0.96136  0.97017  1.0000
  F   F329      1.0  0.70995  0.48511  0.46314  1.0000
  F   F330      1.0  0.69540  0.47480  0.99103  1.0000
  F   F331      1.0  0.70128  0.97980  0.49580  1.0000
  F   F332      1.0  0.71320  0.96874  0.96585  1.0000
  F   F333      1.0  0.95351  0.47854  0.48094  1.0000
  F   F334      1.0  0.94704  0.48039  0.99379  1.0000
  F   F335      1.0  0.96779  0.96285  0.47384  1.0000
  F   F336      1.0  0.95790  0.97524  0.98122  1.0000
  F   F337      1.0  0.01512  0.09271  0.28175  1.0000
  F   F338      1.0  0.01774  0.09652  0.78029  1.0000
  F   F339      1.0  0.01718  0.59116  0.26759  1.0000
  F   F340      1.0  0.01429  0.58730  0.78438  1.0000
  F   F341      1.0  0.26200  0.09632  0.26648  1.0000
  F   F342      1.0  0.26690  0.06645  0.78217  1.0000
  F   F343      1.0  0.26711  0.60298  0.25441  1.0000
  F   F344      1.0  0.26527  0.58158  0.78573  1.0000
  F   F345      1.0  0.51814  0.09242  0.26563  1.0000
  F   F346      1.0  0.51000  0.08830  0.76433  1.0000
  F   F347      1.0  0.51707  0.57173  0.27479  1.0000
  F   F348      1.0  0.51222  0.55938  0.79793  1.0000
  F   F349      1.0  0.76196  0.09732  0.25768  1.0000
  F   F350      1.0  0.76641  0.09365  0.76288  1.0000
  F   F351      1.0  0.76449  0.59685  0.26804  1.0000
  F   F352      1.0  0.76527  0.56998  0.78524  1.0000
  F   F353      1.0  0.09852  0.42869  0.44706  1.0000
  F   F354      1.0  0.10239  0.40851  0.96775  1.0000
  F   F355      1.0  0.10151  0.89981  0.45100  1.0000
  F   F356      1.0  0.10735  0.91727  0.95290  1.0000
  F   F357      1.0  0.34594  0.42037  0.47478  1.0000
  F   F358      1.0  0.35220  0.41630  0.96530  1.0000
  F   F359      1.0  0.35004  0.89555  0.46948  1.0000
  F   F360      1.0  0.34616  0.89835  0.96655  1.0000
  F   F361      1.0  0.59409  0.41397  0.46926  1.0000
  F   F362      1.0  0.60805  0.41000  0.96452  1.0000
  F   F363      1.0  0.60644  0.88247  0.46268  1.0000
  F   F364      1.0  0.60740  0.93036  0.95763  1.0000
  F   F365      1.0  0.84810  0.41740  0.45482  1.0000
  F   F366      1.0  0.84671  0.41222  0.96379  1.0000
  F   F367      1.0  0.84814  0.92468  0.44795  1.0000
  F   F368      1.0  0.85375  0.91796  0.95367  1.0000
  F   F369      1.0  0.04902  0.29074  0.28744  1.0000
  F   F370      1.0  0.04777  0.29202  0.78589  1.0000
  F   F371      1.0  0.03725  0.80940  0.28747  1.0000
  F   F372      1.0  0.04510  0.79659  0.79808  1.0000
  F   F373      1.0  0.29215  0.29592  0.30510  1.0000
  F   F374      1.0  0.29122  0.29215  0.80796  1.0000
  F   F375      1.0  0.29844  0.79474  0.29446  1.0000
  F   F376      1.0  0.29003  0.80615  0.79630  1.0000
  F   F377      1.0  0.54366  0.28565  0.29488  1.0000
  F   F378      1.0  0.54954  0.30082  0.76722  1.0000
  F   F379      1.0  0.53582  0.79472  0.28649  1.0000
  F   F380      1.0  0.55097  0.78931  0.80504  1.0000
  F   F381      1.0  0.79811  0.29504  0.29283  1.0000
  F   F382      1.0  0.79992  0.30489  0.78562  1.0000
  F   F383      1.0  0.80140  0.80250  0.27949  1.0000
  F   F384      1.0  0.80134  0.80604  0.78173  1.0000
