data_image0
_chemical_formula_structural       Hf96F384
_chemical_formula_sum              "Hf96 F384"
_cell_length_a       31.0091
_cell_length_b       15.5058
_cell_length_c       15.4996
_cell_angle_alpha    63.342
_cell_angle_beta     63.342
_cell_angle_gamma    80.1625

_space_group_name_H-M_alt    "P 1"
_space_group_IT_number       1

loop_
  _space_group_symop_operation_xyz
  'x, y, z'

loop_
  _atom_site_type_symbol
  _atom_site_label
  _atom_site_symmetry_multiplicity
  _atom_site_fract_x
  _atom_site_fract_y
  _atom_site_fract_z
  _atom_site_occupancy
  Hf  Hf1       1.0  0.19550  0.09599  0.38065  1.0000
  Hf  Hf2       1.0  0.19898  0.10782  0.87264  1.0000
  Hf  Hf3       1.0  0.20055  0.60589  0.36842  1.0000
  Hf  Hf4       1.0  0.19713  0.59969  0.87542  1.0000
  Hf  Hf5       1.0  0.44231  0.10944  0.37500  1.0000
  Hf  Hf6       1.0  0.44856  0.11059  0.87045  1.0000
  Hf  Hf7       1.0  0.45046  0.61429  0.36963  1.0000
  Hf  Hf8       1.0  0.45004  0.61231  0.86446  1.0000
  Hf  Hf9       1.0  0.69735  0.10710  0.36913  1.0000
  Hf  Hf10      1.0  0.69623  0.10634  0.87395  1.0000
  Hf  Hf11      1.0  0.69723  0.61119  0.37491  1.0000
  Hf  Hf12      1.0  0.69682  0.61041  0.86868  1.0000
  Hf  Hf13      1.0  0.94502  0.11083  0.37433  1.0000
  Hf  Hf14      1.0  0.94983  0.10156  0.87312  1.0000
  Hf  Hf15      1.0  0.94641  0.60612  0.37662  1.0000
  Hf  Hf16      1.0  0.94632  0.60518  0.88137  1.0000
  Hf  Hf17      1.0  0.05217  0.39272  0.12775  1.0000
  Hf  Hf18      1.0  0.05073  0.38876  0.62092  1.0000
  Hf  Hf19      1.0  0.05294  0.89223  0.13256  1.0000
  Hf  Hf20      1.0  0.05111  0.89642  0.62665  1.0000
  Hf  Hf21      1.0  0.30633  0.38898  0.11644  1.0000
  Hf  Hf22      1.0  0.30177  0.39017  0.62044  1.0000
  Hf  Hf23      1.0  0.29938  0.89335  0.12737  1.0000
  Hf  Hf24      1.0  0.30172  0.89505  0.62445  1.0000
  Hf  Hf25      1.0  0.55471  0.40008  0.12125  1.0000
  Hf  Hf26      1.0  0.55392  0.39513  0.62180  1.0000
  Hf  Hf27      1.0  0.55453  0.89277  0.13453  1.0000
  Hf  Hf28      1.0  0.55389  0.89711  0.61777  1.0000
  Hf  Hf29      1.0  0.80625  0.39802  0.12203  1.0000
  Hf  Hf30      1.0  0.80018  0.39386  0.62746  1.0000
  Hf  Hf31      1.0  0.80162  0.88596  0.13433  1.0000
  Hf  Hf32      1.0  0.80400  0.88709  0.62443  1.0000
  Hf  Hf33      1.0  0.05485  0.18375  0.41882  1.0000
  Hf  Hf34      1.0  0.05683  0.18198  0.91607  1.0000
  Hf  Hf35      1.0  0.05637  0.68158  0.42195  1.0000
  Hf  Hf36      1.0  0.06040  0.68381  0.91818  1.0000
  Hf  Hf37      1.0  0.30546  0.18144  0.41502  1.0000
  Hf  Hf38      1.0  0.30462  0.18477  0.92057  1.0000
  Hf  Hf39      1.0  0.30617  0.68319  0.41990  1.0000
  Hf  Hf40      1.0  0.30404  0.68116  0.91645  1.0000
  Hf  Hf41      1.0  0.55343  0.18064  0.41582  1.0000
  Hf  Hf42      1.0  0.55714  0.18595  0.90538  1.0000
  Hf  Hf43      1.0  0.55866  0.69116  0.41787  1.0000
  Hf  Hf44      1.0  0.55671  0.68726  0.91103  1.0000
  Hf  Hf45      1.0  0.80528  0.18057  0.41826  1.0000
  Hf  Hf46      1.0  0.80479  0.18151  0.92117  1.0000
  Hf  Hf47      1.0  0.80550  0.68253  0.41648  1.0000
  Hf  Hf48      1.0  0.80832  0.68543  0.91156  1.0000
  Hf  Hf49      1.0  0.15986  0.37970  0.33436  1.0000
  Hf  Hf50      1.0  0.15680  0.38718  0.83090  1.0000
  Hf  Hf51      1.0  0.15639  0.88048  0.34492  1.0000
  Hf  Hf52      1.0  0.15613  0.88242  0.84029  1.0000
  Hf  Hf53      1.0  0.41178  0.39354  0.32140  1.0000
  Hf  Hf54      1.0  0.40937  0.39413  0.82710  1.0000
  Hf  Hf55      1.0  0.40686  0.88824  0.33777  1.0000
  Hf  Hf56      1.0  0.40991  0.89563  0.82841  1.0000
  Hf  Hf57      1.0  0.65858  0.38877  0.33271  1.0000
  Hf  Hf58      1.0  0.65724  0.39202  0.83279  1.0000
  Hf  Hf59      1.0  0.65827  0.89130  0.33391  1.0000
  Hf  Hf60      1.0  0.65711  0.89027  0.83624  1.0000
  Hf  Hf61      1.0  0.90829  0.38632  0.33368  1.0000
  Hf  Hf62      1.0  0.91009  0.37618  0.83143  1.0000
  Hf  Hf63      1.0  0.90796  0.88941  0.33875  1.0000
  Hf  Hf64      1.0  0.90782  0.88609  0.83439  1.0000
  Hf  Hf65      1.0  0.19054  0.31284  0.09184  1.0000
  Hf  Hf66      1.0  0.19299  0.31819  0.58303  1.0000
  Hf  Hf67      1.0  0.19305  0.81541  0.08437  1.0000
  Hf  Hf68      1.0  0.19029  0.81257  0.59414  1.0000
  Hf  Hf69      1.0  0.44453  0.31764  0.07944  1.0000
  Hf  Hf70      1.0  0.44278  0.32440  0.58364  1.0000
  Hf  Hf71      1.0  0.44429  0.82161  0.08540  1.0000
  Hf  Hf72      1.0  0.44077  0.81754  0.58731  1.0000
  Hf  Hf73      1.0  0.69314  0.32246  0.08803  1.0000
  Hf  Hf74      1.0  0.69505  0.32217  0.58025  1.0000
  Hf  Hf75      1.0  0.69521  0.81104  0.08281  1.0000
  Hf  Hf76      1.0  0.69121  0.81920  0.58281  1.0000
  Hf  Hf77      1.0  0.94469  0.31140  0.08596  1.0000
  Hf  Hf78      1.0  0.94491  0.31406  0.58147  1.0000
  Hf  Hf79      1.0  0.94302  0.81852  0.08230  1.0000
  Hf  Hf80      1.0  0.94321  0.81481  0.58794  1.0000
  Hf  Hf81      1.0  0.09129  0.10831  0.17207  1.0000
  Hf  Hf82      1.0  0.09138  0.11211  0.66801  1.0000
  Hf  Hf83      1.0  0.09512  0.61210  0.17100  1.0000
  Hf  Hf84      1.0  0.08942  0.61099  0.67160  1.0000
  Hf  Hf85      1.0  0.34614  0.11026  0.16578  1.0000
  Hf  Hf86      1.0  0.34195  0.11458  0.66065  1.0000
  Hf  Hf87      1.0  0.34519  0.61026  0.16178  1.0000
  Hf  Hf88      1.0  0.34023  0.61355  0.66056  1.0000
  Hf  Hf89      1.0  0.59028  0.11512  0.16443  1.0000
  Hf  Hf90      1.0  0.59278  0.11045  0.66014  1.0000
  Hf  Hf91      1.0  0.59290  0.61952  0.16175  1.0000
  Hf  Hf92      1.0  0.59292  0.60778  0.66318  1.0000
  Hf  Hf93      1.0  0.84139  0.10783  0.16508  1.0000
  Hf  Hf94      1.0  0.84013  0.11294  0.66309  1.0000
  Hf  Hf95      1.0  0.84410  0.60745  0.16736  1.0000
  Hf  Hf96      1.0  0.84126  0.61176  0.66730  1.0000
  F   F1        1.0  0.08105  0.12251  0.30602  1.0000
  F   F2        1.0  0.07742  0.12299  0.81213  1.0000
  F   F3        1.0  0.08396  0.63504  0.30289  1.0000
  F   F4        1.0  0.07644  0.63008  0.80623  1.0000
  F   F5        1.0  0.33025  0.12071  0.30001  1.0000
  F   F6        1.0  0.32919  0.12407  0.80113  1.0000
  F   F7        1.0  0.33110  0.62965  0.30334  1.0000
  F   F8        1.0  0.33115  0.64089  0.79186  1.0000
  F   F9        1.0  0.57645  0.11804  0.30738  1.0000
  F   F10       1.0  0.57792  0.12408  0.79550  1.0000
  F   F11       1.0  0.58317  0.63631  0.30671  1.0000
  F   F12       1.0  0.57535  0.63006  0.80373  1.0000
  F   F13       1.0  0.82874  0.11785  0.31454  1.0000
  F   F14       1.0  0.83038  0.14542  0.79163  1.0000
  F   F15       1.0  0.83834  0.64718  0.28934  1.0000
  F   F16       1.0  0.82622  0.62184  0.80633  1.0000
  F   F17       1.0  0.18378  0.35201  0.44675  1.0000
  F   F18       1.0  0.18477  0.32945  0.95036  1.0000
  F   F19       1.0  0.17756  0.83072  0.46413  1.0000
  F   F20       1.0  0.17932  0.83146  0.95452  1.0000
  F   F21       1.0  0.43776  0.34376  0.44686  1.0000
  F   F22       1.0  0.44041  0.33703  0.93638  1.0000
  F   F23       1.0  0.43359  0.84369  0.44483  1.0000
  F   F24       1.0  0.43903  0.85094  0.93674  1.0000
  F   F25       1.0  0.67981  0.32912  0.45847  1.0000
  F   F26       1.0  0.67990  0.34363  0.96063  1.0000
  F   F27       1.0  0.68540  0.84756  0.44082  1.0000
  F   F28       1.0  0.68045  0.83755  0.95102  1.0000
  F   F29       1.0  0.93871  0.34968  0.44578  1.0000
  F   F30       1.0  0.93374  0.33017  0.94996  1.0000
  F   F31       1.0  0.93331  0.82774  0.45758  1.0000
  F   F32       1.0  0.93495  0.83947  0.95009  1.0000
  F   F33       1.0  0.16970  0.37909  0.18904  1.0000
  F   F34       1.0  0.17042  0.38550  0.69351  1.0000
  F   F35       1.0  0.17274  0.86901  0.19569  1.0000
  F   F36       1.0  0.17249  0.85933  0.69686  1.0000
  F   F37       1.0  0.41773  0.38160  0.19663  1.0000
  F   F38       1.0  0.41975  0.39195  0.69057  1.0000
  F   F39       1.0  0.41679  0.86298  0.21087  1.0000
  F   F40       1.0  0.42479  0.88126  0.69060  1.0000
  F   F41       1.0  0.66840  0.37879  0.20463  1.0000
  F   F42       1.0  0.66923  0.36969  0.70028  1.0000
  F   F43       1.0  0.67293  0.87081  0.19408  1.0000
  F   F44       1.0  0.67235  0.86688  0.69755  1.0000
  F   F45       1.0  0.92201  0.36084  0.19504  1.0000
  F   F46       1.0  0.91802  0.35938  0.70278  1.0000
  F   F47       1.0  0.91943  0.87286  0.19450  1.0000
  F   F48       1.0  0.91750  0.88702  0.69272  1.0000
  F   F49       1.0  0.06349  0.16039  0.05676  1.0000
  F   F50       1.0  0.06108  0.16191  0.55749  1.0000
  F   F51       1.0  0.06311  0.65997  0.05748  1.0000
  F   F52       1.0  0.05926  0.64687  0.56218  1.0000
  F   F53       1.0  0.32140  0.16479  0.04271  1.0000
  F   F54       1.0  0.32321  0.17167  0.53676  1.0000
  F   F55       1.0  0.31652  0.65999  0.04431  1.0000
  F   F56       1.0  0.31232  0.64958  0.55774  1.0000
  F   F57       1.0  0.57120  0.17410  0.03801  1.0000
  F   F58       1.0  0.55885  0.15390  0.55783  1.0000
  F   F59       1.0  0.56205  0.66198  0.06080  1.0000
  F   F60       1.0  0.57590  0.66664  0.54154  1.0000
  F   F61       1.0  0.81535  0.15319  0.04882  1.0000
  F   F62       1.0  0.81486  0.17059  0.54314  1.0000
  F   F63       1.0  0.81949  0.65873  0.05364  1.0000
  F   F64       1.0  0.80771  0.65695  0.55776  1.0000
  F   F65       1.0  0.20011  0.20217  0.20994  1.0000
  F   F66       1.0  0.20132  0.21448  0.71011  1.0000
  F   F67       1.0  0.21018  0.70967  0.20218  1.0000
  F   F68       1.0  0.20759  0.69323  0.72036  1.0000
  F   F69       1.0  0.44647  0.20992  0.21728  1.0000
  F   F70       1.0  0.44877  0.21172  0.70567  1.0000
  F   F71       1.0  0.45743  0.70371  0.20260  1.0000
  F   F72       1.0  0.45806  0.70955  0.71298  1.0000
  F   F73       1.0  0.70651  0.22017  0.20880  1.0000
  F   F74       1.0  0.70350  0.21397  0.70726  1.0000
  F   F75       1.0  0.70378  0.69941  0.21125  1.0000
  F   F76       1.0  0.70034  0.69828  0.70757  1.0000
  F   F77       1.0  0.95582  0.19631  0.21459  1.0000
  F   F78       1.0  0.95928  0.20307  0.69597  1.0000
  F   F79       1.0  0.95505  0.69873  0.21821  1.0000
  F   F80       1.0  0.95793  0.71774  0.71674  1.0000
  F   F81       1.0  0.14794  0.08622  0.04517  1.0000
  F   F82       1.0  0.14646  0.08934  0.54321  1.0000
  F   F83       1.0  0.14934  0.59312  0.03976  1.0000
  F   F84       1.0  0.14487  0.60862  0.53930  1.0000
  F   F85       1.0  0.39945  0.09044  0.04258  1.0000
  F   F86       1.0  0.40159  0.09242  0.53861  1.0000
  F   F87       1.0  0.39954  0.59163  0.04203  1.0000
  F   F88       1.0  0.40206  0.58328  0.53574  1.0000
  F   F89       1.0  0.64857  0.08534  0.03247  1.0000
  F   F90       1.0  0.65185  0.08740  0.53802  1.0000
  F   F91       1.0  0.64824  0.59544  0.03670  1.0000
  F   F92       1.0  0.65209  0.57663  0.54479  1.0000
  F   F93       1.0  0.90033  0.09695  0.04179  1.0000
  F   F94       1.0  0.89887  0.08924  0.53432  1.0000
  F   F95       1.0  0.90281  0.59313  0.04232  1.0000
  F   F96       1.0  0.89999  0.61051  0.52898  1.0000
  F   F97       1.0  0.14537  0.19592  0.13492  1.0000
  F   F98       1.0  0.15427  0.19121  0.61157  1.0000
  F   F99       1.0  0.15328  0.69094  0.13086  1.0000
  F   F100      1.0  0.14997  0.69400  0.64484  1.0000
  F   F101      1.0  0.40412  0.18837  0.13036  1.0000
  F   F102      1.0  0.39317  0.20985  0.62362  1.0000
  F   F103      1.0  0.40332  0.70557  0.11913  1.0000
  F   F104      1.0  0.40494  0.69647  0.62521  1.0000
  F   F105      1.0  0.65371  0.18621  0.13233  1.0000
  F   F106      1.0  0.65247  0.19754  0.62702  1.0000
  F   F107      1.0  0.65075  0.69603  0.12894  1.0000
  F   F108      1.0  0.64883  0.69861  0.61758  1.0000
  F   F109      1.0  0.90896  0.19544  0.12415  1.0000
  F   F110      1.0  0.90010  0.19010  0.61283  1.0000
  F   F111      1.0  0.90201  0.69926  0.11561  1.0000
  F   F112      1.0  0.90089  0.69175  0.64466  1.0000
  F   F113      1.0  0.10102  0.29470  0.37098  1.0000
  F   F114      1.0  0.09780  0.30494  0.87056  1.0000
  F   F115      1.0  0.09880  0.79903  0.37442  1.0000
  F   F116      1.0  0.09837  0.80808  0.86790  1.0000
  F   F117      1.0  0.35166  0.30265  0.36925  1.0000
  F   F118      1.0  0.35295  0.30432  0.87636  1.0000
  F   F119      1.0  0.34518  0.80464  0.38983  1.0000
  F   F120      1.0  0.34594  0.80193  0.87254  1.0000
  F   F121      1.0  0.59356  0.29483  0.38675  1.0000
  F   F122      1.0  0.59673  0.32140  0.87705  1.0000
  F   F123      1.0  0.59398  0.81271  0.38228  1.0000
  F   F124      1.0  0.59864  0.80951  0.88970  1.0000
  F   F125      1.0  0.85203  0.30399  0.37266  1.0000
  F   F126      1.0  0.85026  0.29344  0.86957  1.0000
  F   F127      1.0  0.84962  0.80413  0.36899  1.0000
  F   F128      1.0  0.84876  0.79846  0.86504  1.0000
  F   F129      1.0  0.05381  0.24966  0.15602  1.0000
  F   F130      1.0  0.06113  0.24581  0.64592  1.0000
  F   F131      1.0  0.06535  0.75354  0.13878  1.0000
  F   F132      1.0  0.06503  0.74688  0.63504  1.0000
  F   F133      1.0  0.31999  0.24784  0.12954  1.0000
  F   F134      1.0  0.30452  0.24801  0.64987  1.0000
  F   F135      1.0  0.31588  0.75309  0.14432  1.0000
  F   F136      1.0  0.31635  0.75417  0.62944  1.0000
  F   F137      1.0  0.56361  0.25303  0.14589  1.0000
  F   F138      1.0  0.56663  0.25310  0.63769  1.0000
  F   F139      1.0  0.56342  0.75123  0.15443  1.0000
  F   F140      1.0  0.56758  0.75913  0.64639  1.0000
  F   F141      1.0  0.82361  0.24454  0.13001  1.0000
  F   F142      1.0  0.80945  0.25173  0.64614  1.0000
  F   F143      1.0  0.81020  0.75098  0.15788  1.0000
  F   F144      1.0  0.82346  0.74819  0.62959  1.0000
  F   F145      1.0  0.12430  0.37984  0.10287  1.0000
  F   F146      1.0  0.12183  0.34720  0.63001  1.0000
  F   F147      1.0  0.12364  0.86945  0.11591  1.0000
  F   F148      1.0  0.12087  0.86377  0.62522  1.0000
  F   F149      1.0  0.37482  0.35329  0.11699  1.0000
  F   F150      1.0  0.37047  0.37027  0.61788  1.0000
  F   F151      1.0  0.38051  0.88789  0.09017  1.0000
  F   F152      1.0  0.36745  0.85442  0.63117  1.0000
  F   F153      1.0  0.62003  0.35616  0.13293  1.0000
  F   F154      1.0  0.62734  0.38542  0.59662  1.0000
  F   F155      1.0  0.62102  0.87524  0.11205  1.0000
  F   F156      1.0  0.62271  0.89192  0.59875  1.0000
  F   F157      1.0  0.87494  0.37305  0.11563  1.0000
  F   F158      1.0  0.87285  0.35779  0.61526  1.0000
  F   F159      1.0  0.87119  0.85951  0.11860  1.0000
  F   F160      1.0  0.87469  0.86901  0.60599  1.0000
  F   F161      1.0  0.18902  0.24396  0.36014  1.0000
  F   F162      1.0  0.18765  0.25174  0.85232  1.0000
  F   F163      1.0  0.18680  0.74582  0.35844  1.0000
  F   F164      1.0  0.19281  0.74989  0.84505  1.0000
  F   F165      1.0  0.43156  0.24814  0.36664  1.0000
  F   F166      1.0  0.44473  0.25945  0.82919  1.0000
  F   F167      1.0  0.43851  0.75008  0.35981  1.0000
  F   F168      1.0  0.43677  0.75134  0.85620  1.0000
  F   F169      1.0  0.68243  0.24327  0.36990  1.0000
  F   F170      1.0  0.68594  0.24839  0.86628  1.0000
  F   F171      1.0  0.68735  0.74825  0.36027  1.0000
  F   F172      1.0  0.69233  0.74967  0.84275  1.0000
  F   F173      1.0  0.94021  0.25365  0.35877  1.0000
  F   F174      1.0  0.95131  0.25018  0.84181  1.0000
  F   F175      1.0  0.93579  0.75753  0.35390  1.0000
  F   F176      1.0  0.92873  0.74333  0.86689  1.0000
  F   F177      1.0  0.12481  0.12542  0.39842  1.0000
  F   F178      1.0  0.12928  0.13545  0.89536  1.0000
  F   F179      1.0  0.12934  0.62629  0.38891  1.0000
  F   F180      1.0  0.12482  0.62165  0.89400  1.0000
  F   F181      1.0  0.37477  0.11996  0.39114  1.0000
  F   F182      1.0  0.37683  0.12951  0.89041  1.0000
  F   F183      1.0  0.37371  0.62103  0.40559  1.0000
  F   F184      1.0  0.37835  0.62909  0.88499  1.0000
  F   F185      1.0  0.62625  0.12939  0.39325  1.0000
  F   F186      1.0  0.63125  0.15868  0.85936  1.0000
  F   F187      1.0  0.62968  0.62924  0.38781  1.0000
  F   F188      1.0  0.62639  0.63711  0.88259  1.0000
  F   F189      1.0  0.87538  0.12605  0.39494  1.0000
  F   F190      1.0  0.88053  0.13514  0.87342  1.0000
  F   F191      1.0  0.87640  0.62424  0.39290  1.0000
  F   F192      1.0  0.87855  0.61798  0.88996  1.0000
  F   F193      1.0  0.00890  0.36679  0.07322  1.0000
  F   F194      1.0  0.00637  0.36936  0.56219  1.0000
  F   F195      1.0  0.00669  0.86594  0.07524  1.0000
  F   F196      1.0  0.00829  0.86712  0.56945  1.0000
  F   F197      1.0  0.25682  0.35990  0.07331  1.0000
  F   F198      1.0  0.25584  0.36456  0.56870  1.0000
  F   F199      1.0  0.25503  0.86299  0.08130  1.0000
  F   F200      1.0  0.25691  0.86465  0.57314  1.0000
  F   F201      1.0  0.50752  0.36854  0.06947  1.0000
  F   F202      1.0  0.51212  0.36517  0.56884  1.0000
  F   F203      1.0  0.50667  0.86217  0.07602  1.0000
  F   F204      1.0  0.50842  0.86199  0.56971  1.0000
  F   F205      1.0  0.76001  0.36796  0.07121  1.0000
  F   F206      1.0  0.75627  0.37533  0.57111  1.0000
  F   F207      1.0  0.75916  0.84699  0.07601  1.0000
  F   F208      1.0  0.75852  0.86075  0.56802  1.0000
  F   F209      1.0  0.07167  0.48385  0.18817  1.0000
  F   F210      1.0  0.06501  0.46825  0.68661  1.0000
  F   F211      1.0  0.06778  0.98328  0.18752  1.0000
  F   F212      1.0  0.06796  0.99112  0.66689  1.0000
  F   F213      1.0  0.32104  0.48013  0.17445  1.0000
  F   F214      1.0  0.31420  0.48399  0.68059  1.0000
  F   F215      1.0  0.31535  0.98434  0.17329  1.0000
  F   F216      1.0  0.31542  0.99710  0.67123  1.0000
  F   F217      1.0  0.57023  0.49118  0.16781  1.0000
  F   F218      1.0  0.56842  0.48709  0.68047  1.0000
  F   F219      1.0  0.56421  0.98746  0.18764  1.0000
  F   F220      1.0  0.57244  0.98165  0.68116  1.0000
  F   F221      1.0  0.81411  0.48505  0.18289  1.0000
  F   F222      1.0  0.82069  0.48694  0.67531  1.0000
  F   F223      1.0  0.81451  0.98552  0.18210  1.0000
  F   F224      1.0  0.82129  0.98828  0.65673  1.0000
  F   F225      1.0  0.24557  0.13135  0.42249  1.0000
  F   F226      1.0  0.24131  0.13174  0.93325  1.0000
  F   F227      1.0  0.24313  0.65026  0.43028  1.0000
  F   F228      1.0  0.24200  0.62893  0.93652  1.0000
  F   F229      1.0  0.49042  0.14253  0.42414  1.0000
  F   F230      1.0  0.49143  0.14573  0.92185  1.0000
  F   F231      1.0  0.50035  0.63844  0.41819  1.0000
  F   F232      1.0  0.49162  0.62960  0.92530  1.0000
  F   F233      1.0  0.74172  0.15099  0.42278  1.0000
  F   F234      1.0  0.74502  0.13120  0.93112  1.0000
  F   F235      1.0  0.74725  0.61639  0.43151  1.0000
  F   F236      1.0  0.74082  0.62910  0.93079  1.0000
  F   F237      1.0  0.99102  0.13930  0.42959  1.0000
  F   F238      1.0  0.99382  0.12443  0.93763  1.0000
  F   F239      1.0  0.99448  0.64029  0.43147  1.0000
  F   F240      1.0  0.99024  0.64402  0.93375  1.0000
  F   F241      1.0  0.17799  0.00197  0.33746  1.0000
  F   F242      1.0  0.17554  0.01236  0.82918  1.0000
  F   F243      1.0  0.18791  0.51520  0.31260  1.0000
  F   F244      1.0  0.18325  0.50519  0.82782  1.0000
  F   F245      1.0  0.42364  0.01165  0.32660  1.0000
  F   F246      1.0  0.43115  0.02586  0.82064  1.0000
  F   F247      1.0  0.43774  0.51559  0.31481  1.0000
  F   F248      1.0  0.42871  0.52027  0.80740  1.0000
  F   F249      1.0  0.68490  0.02371  0.31057  1.0000
  F   F250      1.0  0.68340  0.02166  0.81943  1.0000
  F   F251      1.0  0.68675  0.51143  0.32249  1.0000
  F   F252      1.0  0.67997  0.51629  0.82366  1.0000
  F   F253      1.0  0.92769  0.00933  0.33535  1.0000
  F   F254      1.0  0.93194  0.00854  0.83017  1.0000
  F   F255      1.0  0.92735  0.51093  0.33978  1.0000
  F   F256      1.0  0.93282  0.50600  0.82965  1.0000
  F   F257      1.0  0.00515  0.25354  0.99135  1.0000
  F   F258      1.0  0.99881  0.24668  0.49431  1.0000
  F   F259      1.0  0.00074  0.75339  0.99714  1.0000
  F   F260      1.0  0.99918  0.74592  0.51644  1.0000
  F   F261      1.0  0.24968  0.24524  0.00471  1.0000
  F   F262      1.0  0.25216  0.25325  0.49747  1.0000
  F   F263      1.0  0.24496  0.75385  0.99584  1.0000
  F   F264      1.0  0.25381  0.76834  0.48884  1.0000
  F   F265      1.0  0.49673  0.24630  0.99422  1.0000
  F   F266      1.0  0.49301  0.24031  0.51597  1.0000
  F   F267      1.0  0.50242  0.74990  0.00254  1.0000
  F   F268      1.0  0.49848  0.74301  0.50794  1.0000
  F   F269      1.0  0.75311  0.25303  0.00655  1.0000
  F   F270      1.0  0.75402  0.26937  0.48505  1.0000
  F   F271      1.0  0.74985  0.74317  0.99892  1.0000
  F   F272      1.0  0.74502  0.74677  0.49927  1.0000
  F   F273      1.0  0.12855  0.99950  0.24382  1.0000
  F   F274      1.0  0.12262  0.99828  0.75491  1.0000
  F   F275      1.0  0.12571  0.50483  0.26159  1.0000
  F   F276      1.0  0.12055  0.49713  0.75399  1.0000
  F   F277      1.0  0.36783  0.98391  0.25489  1.0000
  F   F278      1.0  0.37276  0.99412  0.74746  1.0000
  F   F279      1.0  0.37565  0.50583  0.24746  1.0000
  F   F280      1.0  0.36711  0.50625  0.75772  1.0000
  F   F281      1.0  0.62667  0.99819  0.24376  1.0000
  F   F282      1.0  0.62844  0.00914  0.74840  1.0000
  F   F283      1.0  0.61779  0.49625  0.26514  1.0000
  F   F284      1.0  0.62894  0.50367  0.74517  1.0000
  F   F285      1.0  0.88200  0.00598  0.24149  1.0000
  F   F286      1.0  0.86395  0.99702  0.76213  1.0000
  F   F287      1.0  0.87841  0.50228  0.24629  1.0000
  F   F288      1.0  0.87397  0.48927  0.75318  1.0000
  F   F289      1.0  0.05082  0.02691  0.02987  1.0000
  F   F290      1.0  0.03604  0.02645  0.53255  1.0000
  F   F291      1.0  0.04272  0.54041  0.03550  1.0000
  F   F292      1.0  0.05116  0.52089  0.51116  1.0000
  F   F293      1.0  0.28382  0.03470  0.03778  1.0000
  F   F294      1.0  0.28945  0.03638  0.52559  1.0000
  F   F295      1.0  0.29247  0.51853  0.01282  1.0000
  F   F296      1.0  0.29428  0.52721  0.51547  1.0000
  F   F297      1.0  0.54784  0.03899  0.02547  1.0000
  F   F298      1.0  0.54473  0.03626  0.51822  1.0000
  F   F299      1.0  0.53834  0.53914  0.03090  1.0000
  F   F300      1.0  0.54334  0.53687  0.53189  1.0000
  F   F301      1.0  0.79919  0.01708  0.01600  1.0000
  F   F302      1.0  0.79018  0.03263  0.52178  1.0000
  F   F303      1.0  0.79368  0.54510  0.02897  1.0000
  F   F304      1.0  0.79880  0.52750  0.51872  1.0000
  F   F305      1.0  0.23291  0.40179  0.23489  1.0000
  F   F306      1.0  0.23468  0.41345  0.72567  1.0000
  F   F307      1.0  0.23295  0.91161  0.23660  1.0000
  F   F308      1.0  0.23074  0.91353  0.72678  1.0000
  F   F309      1.0  0.48266  0.41847  0.22689  1.0000
  F   F310      1.0  0.48625  0.41057  0.72644  1.0000
  F   F311      1.0  0.48566  0.91281  0.23118  1.0000
  F   F312      1.0  0.49235  0.93861  0.70702  1.0000
  F   F313      1.0  0.73747  0.41222  0.22495  1.0000
  F   F314      1.0  0.73358  0.41437  0.73349  1.0000
  F   F315      1.0  0.73274  0.92855  0.22023  1.0000
  F   F316      1.0  0.73684  0.91543  0.72419  1.0000
  F   F317      1.0  0.98245  0.42057  0.22441  1.0000
  F   F318      1.0  0.98253  0.42177  0.71383  1.0000
  F   F319      1.0  0.98356  0.92787  0.22289  1.0000
  F   F320      1.0  0.98489  0.90724  0.73610  1.0000
  F   F321      1.0  0.20210  0.47218  0.48826  1.0000
  F   F322      1.0  0.20890  0.46831  0.97172  1.0000
  F   F323      1.0  0.20012  0.96743  0.49640  1.0000
  F   F324      1.0  0.20470  0.96256  0.97840  1.0000
  F   F325      1.0  0.46158  0.46978  0.48579  1.0000
  F   F326      1.0  0.45598  0.46299  0.96635  1.0000
  F   F327      1.0  0.44862  0.96469  0.48506  1.0000
  F   F328      1.0  0.46212  0.97649  0.97582  1.0000
  F   F329      1.0  0.70998  0.46043  0.47161  1.0000
  F   F330      1.0  0.70564  0.46936  0.98072  1.0000
  F   F331      1.0  0.70578  0.97130  0.47365  1.0000
  F   F332      1.0  0.71126  0.96017  0.96779  1.0000
  F   F333      1.0  0.95074  0.47306  0.48712  1.0000
  F   F334      1.0  0.95980  0.45758  0.98284  1.0000
  F   F335      1.0  0.95773  0.96002  0.48363  1.0000
  F   F336      1.0  0.95154  0.96346  0.98769  1.0000
  F   F337      1.0  0.01229  0.07851  0.28268  1.0000
  F   F338      1.0  0.01664  0.07181  0.79055  1.0000
  F   F339      1.0  0.01675  0.59091  0.28082  1.0000
  F   F340      1.0  0.01474  0.58111  0.78629  1.0000
  F   F341      1.0  0.26303  0.07976  0.27883  1.0000
  F   F342      1.0  0.26226  0.08232  0.76986  1.0000
  F   F343      1.0  0.26847  0.58634  0.27491  1.0000
  F   F344      1.0  0.26953  0.59018  0.76928  1.0000
  F   F345      1.0  0.50785  0.08969  0.26702  1.0000
  F   F346      1.0  0.51552  0.09090  0.76281  1.0000
  F   F347      1.0  0.51864  0.59429  0.26558  1.0000
  F   F348      1.0  0.51394  0.58300  0.76163  1.0000
  F   F349      1.0  0.76389  0.07499  0.28139  1.0000
  F   F350      1.0  0.76600  0.08641  0.77204  1.0000
  F   F351      1.0  0.77069  0.58365  0.27658  1.0000
  F   F352      1.0  0.76524  0.58799  0.77190  1.0000
  F   F353      1.0  0.09959  0.38813  0.46874  1.0000
  F   F354      1.0  0.09942  0.41821  0.96878  1.0000
  F   F355      1.0  0.09932  0.90953  0.46967  1.0000
  F   F356      1.0  0.09561  0.90333  0.96911  1.0000
  F   F357      1.0  0.34882  0.39816  0.46247  1.0000
  F   F358      1.0  0.35125  0.41420  0.96093  1.0000
  F   F359      1.0  0.34957  0.91903  0.45352  1.0000
  F   F360      1.0  0.35123  0.91046  0.95054  1.0000
  F   F361      1.0  0.60004  0.40627  0.46113  1.0000
  F   F362      1.0  0.59993  0.42179  0.96498  1.0000
  F   F363      1.0  0.60552  0.91601  0.45453  1.0000
  F   F364      1.0  0.60126  0.90990  0.96959  1.0000
  F   F365      1.0  0.85219  0.39435  0.46766  1.0000
  F   F366      1.0  0.84946  0.41010  0.96296  1.0000
  F   F367      1.0  0.84588  0.89869  0.46447  1.0000
  F   F368      1.0  0.85083  0.88920  0.97091  1.0000
  F   F369      1.0  0.04758  0.29672  0.29224  1.0000
  F   F370      1.0  0.04252  0.28853  0.78957  1.0000
  F   F371      1.0  0.04326  0.79962  0.28726  1.0000
  F   F372      1.0  0.04325  0.79598  0.79345  1.0000
  F   F373      1.0  0.29012  0.29166  0.27857  1.0000
  F   F374      1.0  0.29345  0.29015  0.79362  1.0000
  F   F375      1.0  0.30265  0.79613  0.28170  1.0000
  F   F376      1.0  0.29246  0.79412  0.79184  1.0000
  F   F377      1.0  0.54517  0.30494  0.28654  1.0000
  F   F378      1.0  0.55046  0.29447  0.78739  1.0000
  F   F379      1.0  0.54591  0.80698  0.29265  1.0000
  F   F380      1.0  0.53962  0.80121  0.79699  1.0000
  F   F381      1.0  0.79916  0.29854  0.27811  1.0000
  F   F382      1.0  0.79500  0.30046  0.79102  1.0000
  F   F383      1.0  0.78943  0.80335  0.29756  1.0000
  F   F384      1.0  0.79676  0.79463  0.78674  1.0000
