data_image0
_chemical_formula_structural       Hf96F384
_chemical_formula_sum              "Hf96 F384"
_cell_length_a       31.0306
_cell_length_b       15.5214
_cell_length_c       15.5098
_cell_angle_alpha    63.342
_cell_angle_beta     63.342
_cell_angle_gamma    80.1625

_space_group_name_H-M_alt    "P 1"
_space_group_IT_number       1

loop_
  _space_group_symop_operation_xyz
  'x, y, z'

loop_
  _atom_site_type_symbol
  _atom_site_label
  _atom_site_symmetry_multiplicity
  _atom_site_fract_x
  _atom_site_fract_y
  _atom_site_fract_z
  _atom_site_occupancy
  Hf  Hf1       1.0  0.19686  0.11361  0.37510  1.0000
  Hf  Hf2       1.0  0.19429  0.10747  0.87237  1.0000
  Hf  Hf3       1.0  0.20296  0.61619  0.36249  1.0000
  Hf  Hf4       1.0  0.19650  0.60927  0.87234  1.0000
  Hf  Hf5       1.0  0.45075  0.10762  0.36372  1.0000
  Hf  Hf6       1.0  0.44416  0.10851  0.87663  1.0000
  Hf  Hf7       1.0  0.44705  0.60572  0.37245  1.0000
  Hf  Hf8       1.0  0.44903  0.60614  0.87895  1.0000
  Hf  Hf9       1.0  0.69306  0.10015  0.38271  1.0000
  Hf  Hf10      1.0  0.69608  0.10148  0.88708  1.0000
  Hf  Hf11      1.0  0.69710  0.60537  0.37540  1.0000
  Hf  Hf12      1.0  0.69397  0.60650  0.87156  1.0000
  Hf  Hf13      1.0  0.94081  0.10669  0.37983  1.0000
  Hf  Hf14      1.0  0.94387  0.09616  0.89043  1.0000
  Hf  Hf15      1.0  0.94477  0.60736  0.38668  1.0000
  Hf  Hf16      1.0  0.94235  0.60893  0.88261  1.0000
  Hf  Hf17      1.0  0.05676  0.39720  0.11321  1.0000
  Hf  Hf18      1.0  0.05601  0.40106  0.61755  1.0000
  Hf  Hf19      1.0  0.05741  0.89719  0.11676  1.0000
  Hf  Hf20      1.0  0.05494  0.89397  0.62593  1.0000
  Hf  Hf21      1.0  0.30275  0.39707  0.12552  1.0000
  Hf  Hf22      1.0  0.30530  0.40127  0.62025  1.0000
  Hf  Hf23      1.0  0.30595  0.89606  0.11645  1.0000
  Hf  Hf24      1.0  0.30445  0.88898  0.62440  1.0000
  Hf  Hf25      1.0  0.55323  0.38169  0.13316  1.0000
  Hf  Hf26      1.0  0.55154  0.38397  0.62826  1.0000
  Hf  Hf27      1.0  0.55759  0.90161  0.10900  1.0000
  Hf  Hf28      1.0  0.54968  0.88973  0.63076  1.0000
  Hf  Hf29      1.0  0.80164  0.39101  0.12987  1.0000
  Hf  Hf30      1.0  0.80463  0.39028  0.62443  1.0000
  Hf  Hf31      1.0  0.80121  0.88523  0.12929  1.0000
  Hf  Hf32      1.0  0.80587  0.90121  0.61245  1.0000
  Hf  Hf33      1.0  0.05163  0.18317  0.41670  1.0000
  Hf  Hf34      1.0  0.05552  0.18086  0.91581  1.0000
  Hf  Hf35      1.0  0.05920  0.68915  0.41135  1.0000
  Hf  Hf36      1.0  0.05701  0.69143  0.90596  1.0000
  Hf  Hf37      1.0  0.31279  0.19049  0.40854  1.0000
  Hf  Hf38      1.0  0.30396  0.18865  0.91829  1.0000
  Hf  Hf39      1.0  0.30738  0.68874  0.41199  1.0000
  Hf  Hf40      1.0  0.30873  0.68214  0.90859  1.0000
  Hf  Hf41      1.0  0.55537  0.16966  0.42723  1.0000
  Hf  Hf42      1.0  0.55227  0.18689  0.92153  1.0000
  Hf  Hf43      1.0  0.55576  0.68103  0.41654  1.0000
  Hf  Hf44      1.0  0.55245  0.67547  0.92337  1.0000
  Hf  Hf45      1.0  0.80206  0.18685  0.41957  1.0000
  Hf  Hf46      1.0  0.80473  0.17767  0.92465  1.0000
  Hf  Hf47      1.0  0.80257  0.67989  0.42953  1.0000
  Hf  Hf48      1.0  0.80301  0.68548  0.91936  1.0000
  Hf  Hf49      1.0  0.16230  0.39485  0.33133  1.0000
  Hf  Hf50      1.0  0.16144  0.38866  0.82751  1.0000
  Hf  Hf51      1.0  0.16333  0.89124  0.32545  1.0000
  Hf  Hf52      1.0  0.15498  0.88928  0.83086  1.0000
  Hf  Hf53      1.0  0.41456  0.38992  0.33148  1.0000
  Hf  Hf54      1.0  0.40821  0.38046  0.84295  1.0000
  Hf  Hf55      1.0  0.40901  0.88868  0.33210  1.0000
  Hf  Hf56      1.0  0.40486  0.88591  0.83872  1.0000
  Hf  Hf57      1.0  0.65874  0.38744  0.33239  1.0000
  Hf  Hf58      1.0  0.66009  0.38622  0.83341  1.0000
  Hf  Hf59      1.0  0.65799  0.89010  0.33790  1.0000
  Hf  Hf60      1.0  0.65586  0.88728  0.83757  1.0000
  Hf  Hf61      1.0  0.90625  0.38930  0.33161  1.0000
  Hf  Hf62      1.0  0.91266  0.38545  0.82808  1.0000
  Hf  Hf63      1.0  0.91140  0.89356  0.33218  1.0000
  Hf  Hf64      1.0  0.90910  0.88866  0.83768  1.0000
  Hf  Hf65      1.0  0.19205  0.32036  0.08422  1.0000
  Hf  Hf66      1.0  0.19825  0.32295  0.57640  1.0000
  Hf  Hf67      1.0  0.19621  0.82775  0.07040  1.0000
  Hf  Hf68      1.0  0.19831  0.82254  0.57673  1.0000
  Hf  Hf69      1.0  0.44371  0.31962  0.08709  1.0000
  Hf  Hf70      1.0  0.44241  0.31237  0.58990  1.0000
  Hf  Hf71      1.0  0.44679  0.81937  0.08145  1.0000
  Hf  Hf72      1.0  0.44321  0.82051  0.58486  1.0000
  Hf  Hf73      1.0  0.69359  0.31993  0.08376  1.0000
  Hf  Hf74      1.0  0.69267  0.31516  0.59032  1.0000
  Hf  Hf75      1.0  0.68710  0.80579  0.10000  1.0000
  Hf  Hf76      1.0  0.68867  0.80969  0.58837  1.0000
  Hf  Hf77      1.0  0.94352  0.31661  0.08094  1.0000
  Hf  Hf78      1.0  0.94232  0.30667  0.58387  1.0000
  Hf  Hf79      1.0  0.94377  0.80357  0.08709  1.0000
  Hf  Hf80      1.0  0.94544  0.82275  0.58041  1.0000
  Hf  Hf81      1.0  0.09107  0.11451  0.16054  1.0000
  Hf  Hf82      1.0  0.09089  0.12168  0.65737  1.0000
  Hf  Hf83      1.0  0.09056  0.61187  0.16750  1.0000
  Hf  Hf84      1.0  0.09257  0.62012  0.66194  1.0000
  Hf  Hf85      1.0  0.34171  0.10827  0.17086  1.0000
  Hf  Hf86      1.0  0.34211  0.11947  0.65992  1.0000
  Hf  Hf87      1.0  0.34644  0.61046  0.15955  1.0000
  Hf  Hf88      1.0  0.34190  0.60323  0.66884  1.0000
  Hf  Hf89      1.0  0.59174  0.10838  0.16581  1.0000
  Hf  Hf90      1.0  0.59290  0.11049  0.66938  1.0000
  Hf  Hf91      1.0  0.58886  0.60563  0.17042  1.0000
  Hf  Hf92      1.0  0.59039  0.60452  0.65933  1.0000
  Hf  Hf93      1.0  0.84062  0.10473  0.17218  1.0000
  Hf  Hf94      1.0  0.83904  0.11133  0.66893  1.0000
  Hf  Hf95      1.0  0.84107  0.61411  0.16525  1.0000
  Hf  Hf96      1.0  0.84170  0.61516  0.66926  1.0000
  F   F1        1.0  0.07599  0.11980  0.30675  1.0000
  F   F2        1.0  0.07719  0.11237  0.80623  1.0000
  F   F3        1.0  0.07819  0.62180  0.31002  1.0000
  F   F4        1.0  0.07860  0.63855  0.79686  1.0000
  F   F5        1.0  0.32544  0.12260  0.31773  1.0000
  F   F6        1.0  0.32917  0.12748  0.79794  1.0000
  F   F7        1.0  0.33131  0.62522  0.30053  1.0000
  F   F8        1.0  0.33224  0.61088  0.81210  1.0000
  F   F9        1.0  0.57914  0.11596  0.30899  1.0000
  F   F10       1.0  0.57919  0.13079  0.80542  1.0000
  F   F11       1.0  0.57639  0.62539  0.30102  1.0000
  F   F12       1.0  0.58085  0.63498  0.79129  1.0000
  F   F13       1.0  0.83356  0.13973  0.30510  1.0000
  F   F14       1.0  0.83258  0.14225  0.79617  1.0000
  F   F15       1.0  0.83637  0.63205  0.30274  1.0000
  F   F16       1.0  0.82622  0.62237  0.81014  1.0000
  F   F17       1.0  0.19026  0.34183  0.44810  1.0000
  F   F18       1.0  0.18783  0.33703  0.94069  1.0000
  F   F19       1.0  0.18074  0.83198  0.45628  1.0000
  F   F20       1.0  0.18555  0.84711  0.94175  1.0000
  F   F21       1.0  0.43675  0.33290  0.45351  1.0000
  F   F22       1.0  0.43080  0.33401  0.95955  1.0000
  F   F23       1.0  0.43886  0.83824  0.45162  1.0000
  F   F24       1.0  0.43325  0.85173  0.94034  1.0000
  F   F25       1.0  0.68185  0.34705  0.45330  1.0000
  F   F26       1.0  0.68539  0.35064  0.94235  1.0000
  F   F27       1.0  0.68097  0.83663  0.45207  1.0000
  F   F28       1.0  0.67021  0.82434  0.96683  1.0000
  F   F29       1.0  0.92487  0.33506  0.45767  1.0000
  F   F30       1.0  0.94827  0.34949  0.92513  1.0000
  F   F31       1.0  0.93664  0.84507  0.44674  1.0000
  F   F32       1.0  0.93564  0.85034  0.94670  1.0000
  F   F33       1.0  0.16854  0.36629  0.20795  1.0000
  F   F34       1.0  0.17657  0.38142  0.68546  1.0000
  F   F35       1.0  0.17360  0.86946  0.18911  1.0000
  F   F36       1.0  0.17326  0.86993  0.69376  1.0000
  F   F37       1.0  0.42391  0.37905  0.18935  1.0000
  F   F38       1.0  0.41711  0.36149  0.70613  1.0000
  F   F39       1.0  0.41946  0.86922  0.19999  1.0000
  F   F40       1.0  0.41674  0.85435  0.71304  1.0000
  F   F41       1.0  0.66397  0.36446  0.20320  1.0000
  F   F42       1.0  0.66369  0.35492  0.71018  1.0000
  F   F43       1.0  0.66250  0.84286  0.21789  1.0000
  F   F44       1.0  0.66622  0.86721  0.69694  1.0000
  F   F45       1.0  0.91755  0.36480  0.20746  1.0000
  F   F46       1.0  0.92343  0.38024  0.68667  1.0000
  F   F47       1.0  0.92305  0.87882  0.19704  1.0000
  F   F48       1.0  0.91549  0.86278  0.70388  1.0000
  F   F49       1.0  0.06635  0.16637  0.04249  1.0000
  F   F50       1.0  0.05387  0.15051  0.56336  1.0000
  F   F51       1.0  0.07281  0.66978  0.04208  1.0000
  F   F52       1.0  0.07391  0.66863  0.53990  1.0000
  F   F53       1.0  0.31015  0.15565  0.07415  1.0000
  F   F54       1.0  0.31202  0.15758  0.55396  1.0000
  F   F55       1.0  0.31804  0.64811  0.05659  1.0000
  F   F56       1.0  0.31204  0.66155  0.56213  1.0000
  F   F57       1.0  0.55991  0.15419  0.05479  1.0000
  F   F58       1.0  0.56416  0.13897  0.56437  1.0000
  F   F59       1.0  0.55713  0.64098  0.07305  1.0000
  F   F60       1.0  0.56377  0.65218  0.55067  1.0000
  F   F61       1.0  0.81788  0.15969  0.05887  1.0000
  F   F62       1.0  0.81188  0.15026  0.55831  1.0000
  F   F63       1.0  0.80521  0.65844  0.05973  1.0000
  F   F64       1.0  0.81684  0.66545  0.55175  1.0000
  F   F65       1.0  0.20225  0.21010  0.21098  1.0000
  F   F66       1.0  0.19848  0.19592  0.69276  1.0000
  F   F67       1.0  0.20721  0.69835  0.20100  1.0000
  F   F68       1.0  0.21343  0.70365  0.70977  1.0000
  F   F69       1.0  0.45248  0.19666  0.19670  1.0000
  F   F70       1.0  0.46070  0.19734  0.71073  1.0000
  F   F71       1.0  0.45619  0.70105  0.21344  1.0000
  F   F72       1.0  0.45646  0.70190  0.72017  1.0000
  F   F73       1.0  0.70072  0.19335  0.22676  1.0000
  F   F74       1.0  0.70534  0.19605  0.71127  1.0000
  F   F75       1.0  0.71038  0.68687  0.21656  1.0000
  F   F76       1.0  0.69368  0.69035  0.71293  1.0000
  F   F77       1.0  0.94280  0.19387  0.20521  1.0000
  F   F78       1.0  0.94187  0.20751  0.71090  1.0000
  F   F79       1.0  0.94709  0.69227  0.22589  1.0000
  F   F80       1.0  0.96019  0.70677  0.71448  1.0000
  F   F81       1.0  0.15022  0.09340  0.02586  1.0000
  F   F82       1.0  0.14600  0.09251  0.53567  1.0000
  F   F83       1.0  0.15137  0.59084  0.03454  1.0000
  F   F84       1.0  0.14820  0.59688  0.53413  1.0000
  F   F85       1.0  0.39850  0.08547  0.03537  1.0000
  F   F86       1.0  0.39775  0.11249  0.53626  1.0000
  F   F87       1.0  0.40538  0.57798  0.04106  1.0000
  F   F88       1.0  0.40436  0.58722  0.53794  1.0000
  F   F89       1.0  0.64933  0.08692  0.04545  1.0000
  F   F90       1.0  0.65145  0.08300  0.53320  1.0000
  F   F91       1.0  0.64694  0.59238  0.03559  1.0000
  F   F92       1.0  0.64080  0.57447  0.53231  1.0000
  F   F93       1.0  0.89989  0.07633  0.05562  1.0000
  F   F94       1.0  0.89861  0.08490  0.54714  1.0000
  F   F95       1.0  0.89397  0.58781  0.03854  1.0000
  F   F96       1.0  0.90581  0.58791  0.54590  1.0000
  F   F97       1.0  0.15314  0.19396  0.11669  1.0000
  F   F98       1.0  0.15110  0.19791  0.61215  1.0000
  F   F99       1.0  0.14585  0.70680  0.12470  1.0000
  F   F100      1.0  0.15214  0.69635  0.63219  1.0000
  F   F101      1.0  0.39847  0.19451  0.12245  1.0000
  F   F102      1.0  0.40112  0.20115  0.64365  1.0000
  F   F103      1.0  0.40291  0.70146  0.12862  1.0000
  F   F104      1.0  0.40434  0.69613  0.63706  1.0000
  F   F105      1.0  0.65642  0.20327  0.11108  1.0000
  F   F106      1.0  0.65438  0.19432  0.60255  1.0000
  F   F107      1.0  0.65509  0.68833  0.13371  1.0000
  F   F108      1.0  0.65475  0.68082  0.59854  1.0000
  F   F109      1.0  0.89460  0.20707  0.11305  1.0000
  F   F110      1.0  0.89772  0.19126  0.61988  1.0000
  F   F111      1.0  0.90852  0.69027  0.10013  1.0000
  F   F112      1.0  0.89940  0.70717  0.63348  1.0000
  F   F113      1.0  0.09718  0.31233  0.39469  1.0000
  F   F114      1.0  0.10430  0.30433  0.87759  1.0000
  F   F115      1.0  0.10016  0.82203  0.36611  1.0000
  F   F116      1.0  0.09299  0.82093  0.86646  1.0000
  F   F117      1.0  0.35541  0.30874  0.37474  1.0000
  F   F118      1.0  0.34577  0.28953  0.90194  1.0000
  F   F119      1.0  0.34466  0.80926  0.35693  1.0000
  F   F120      1.0  0.34428  0.80540  0.89124  1.0000
  F   F121      1.0  0.59580  0.28917  0.38058  1.0000
  F   F122      1.0  0.58916  0.30331  0.87379  1.0000
  F   F123      1.0  0.59984  0.79282  0.40778  1.0000
  F   F124      1.0  0.59110  0.79760  0.88653  1.0000
  F   F125      1.0  0.85058  0.29325  0.39559  1.0000
  F   F126      1.0  0.84680  0.29705  0.86455  1.0000
  F   F127      1.0  0.84440  0.81399  0.37835  1.0000
  F   F128      1.0  0.84665  0.81057  0.88045  1.0000
  F   F129      1.0  0.06435  0.25234  0.13905  1.0000
  F   F130      1.0  0.06592  0.25610  0.63894  1.0000
  F   F131      1.0  0.06589  0.76053  0.13900  1.0000
  F   F132      1.0  0.06726  0.75759  0.63051  1.0000
  F   F133      1.0  0.30928  0.24313  0.16235  1.0000
  F   F134      1.0  0.32238  0.26244  0.63180  1.0000
  F   F135      1.0  0.32783  0.76262  0.11269  1.0000
  F   F136      1.0  0.32212  0.74264  0.64751  1.0000
  F   F137      1.0  0.56794  0.24684  0.12933  1.0000
  F   F138      1.0  0.56689  0.24680  0.64396  1.0000
  F   F139      1.0  0.57240  0.76056  0.12600  1.0000
  F   F140      1.0  0.56699  0.74455  0.64141  1.0000
  F   F141      1.0  0.80627  0.25219  0.16306  1.0000
  F   F142      1.0  0.81685  0.25309  0.62745  1.0000
  F   F143      1.0  0.81332  0.74955  0.13850  1.0000
  F   F144      1.0  0.82139  0.76189  0.63419  1.0000
  F   F145      1.0  0.12679  0.38234  0.09400  1.0000
  F   F146      1.0  0.13052  0.36752  0.59518  1.0000
  F   F147      1.0  0.12702  0.89361  0.09035  1.0000
  F   F148      1.0  0.12550  0.86916  0.61092  1.0000
  F   F149      1.0  0.37554  0.37423  0.10414  1.0000
  F   F150      1.0  0.38133  0.38693  0.58636  1.0000
  F   F151      1.0  0.37616  0.88690  0.09943  1.0000
  F   F152      1.0  0.37218  0.88223  0.60068  1.0000
  F   F153      1.0  0.62618  0.37993  0.09033  1.0000
  F   F154      1.0  0.62215  0.36569  0.61363  1.0000
  F   F155      1.0  0.62669  0.88337  0.10266  1.0000
  F   F156      1.0  0.61868  0.84165  0.63662  1.0000
  F   F157      1.0  0.87398  0.37233  0.10622  1.0000
  F   F158      1.0  0.87246  0.34871  0.63190  1.0000
  F   F159      1.0  0.87644  0.84660  0.12279  1.0000
  F   F160      1.0  0.87686  0.88154  0.59687  1.0000
  F   F161      1.0  0.18063  0.25727  0.36332  1.0000
  F   F162      1.0  0.19633  0.25922  0.81677  1.0000
  F   F163      1.0  0.19388  0.75697  0.32904  1.0000
  F   F164      1.0  0.17636  0.74451  0.87364  1.0000
  F   F165      1.0  0.44583  0.24720  0.33735  1.0000
  F   F166      1.0  0.43575  0.25151  0.86344  1.0000
  F   F167      1.0  0.43223  0.74331  0.37139  1.0000
  F   F168      1.0  0.43541  0.74178  0.86878  1.0000
  F   F169      1.0  0.67813  0.24554  0.36568  1.0000
  F   F170      1.0  0.67788  0.23773  0.88027  1.0000
  F   F171      1.0  0.69229  0.74573  0.35263  1.0000
  F   F172      1.0  0.68161  0.74106  0.86524  1.0000
  F   F173      1.0  0.94415  0.25008  0.33817  1.0000
  F   F174      1.0  0.93657  0.24115  0.85535  1.0000
  F   F175      1.0  0.93674  0.75383  0.36686  1.0000
  F   F176      1.0  0.93599  0.76284  0.86728  1.0000
  F   F177      1.0  0.12283  0.14256  0.37403  1.0000
  F   F178      1.0  0.12819  0.13927  0.87831  1.0000
  F   F179      1.0  0.12965  0.63857  0.38345  1.0000
  F   F180      1.0  0.12424  0.64640  0.87917  1.0000
  F   F181      1.0  0.37949  0.12932  0.38963  1.0000
  F   F182      1.0  0.37456  0.13638  0.88491  1.0000
  F   F183      1.0  0.37770  0.63617  0.39708  1.0000
  F   F184      1.0  0.37743  0.63156  0.89641  1.0000
  F   F185      1.0  0.62527  0.12376  0.39033  1.0000
  F   F186      1.0  0.62943  0.13761  0.88649  1.0000
  F   F187      1.0  0.62651  0.64734  0.37497  1.0000
  F   F188      1.0  0.62378  0.62822  0.89342  1.0000
  F   F189      1.0  0.87217  0.13629  0.40274  1.0000
  F   F190      1.0  0.87031  0.12242  0.91087  1.0000
  F   F191      1.0  0.87724  0.63177  0.40803  1.0000
  F   F192      1.0  0.87545  0.65823  0.88390  1.0000
  F   F193      1.0  0.00682  0.36059  0.07466  1.0000
  F   F194      1.0  0.00741  0.37104  0.57057  1.0000
  F   F195      1.0  0.00679  0.83703  0.08814  1.0000
  F   F196      1.0  0.00515  0.87624  0.56817  1.0000
  F   F197      1.0  0.25838  0.37803  0.06839  1.0000
  F   F198      1.0  0.26334  0.36247  0.56960  1.0000
  F   F199      1.0  0.25741  0.85971  0.06620  1.0000
  F   F200      1.0  0.26378  0.84709  0.58070  1.0000
  F   F201      1.0  0.50403  0.35688  0.09477  1.0000
  F   F202      1.0  0.51178  0.34912  0.56762  1.0000
  F   F203      1.0  0.50686  0.86397  0.07899  1.0000
  F   F204      1.0  0.50775  0.86652  0.57037  1.0000
  F   F205      1.0  0.75664  0.36272  0.07344  1.0000
  F   F206      1.0  0.75616  0.35676  0.59288  1.0000
  F   F207      1.0  0.75182  0.85672  0.09481  1.0000
  F   F208      1.0  0.74929  0.83909  0.60096  1.0000
  F   F209      1.0  0.06716  0.49137  0.17301  1.0000
  F   F210      1.0  0.07133  0.48131  0.66637  1.0000
  F   F211      1.0  0.07696  0.98772  0.16434  1.0000
  F   F212      1.0  0.06559  0.98057  0.69327  1.0000
  F   F213      1.0  0.31749  0.48047  0.18178  1.0000
  F   F214      1.0  0.32231  0.47115  0.68671  1.0000
  F   F215      1.0  0.32116  0.98904  0.17063  1.0000
  F   F216      1.0  0.31519  0.98832  0.68024  1.0000
  F   F217      1.0  0.57026  0.46697  0.19661  1.0000
  F   F218      1.0  0.56469  0.47298  0.68608  1.0000
  F   F219      1.0  0.57345  0.98644  0.16720  1.0000
  F   F220      1.0  0.56950  0.97441  0.68161  1.0000
  F   F221      1.0  0.82234  0.48828  0.16538  1.0000
  F   F222      1.0  0.82223  0.48872  0.66626  1.0000
  F   F223      1.0  0.81523  0.97596  0.18817  1.0000
  F   F224      1.0  0.80556  0.97685  0.68888  1.0000
  F   F225      1.0  0.24452  0.14648  0.42618  1.0000
  F   F226      1.0  0.23919  0.14505  0.91884  1.0000
  F   F227      1.0  0.24220  0.65312  0.41707  1.0000
  F   F228      1.0  0.24746  0.64924  0.89236  1.0000
  F   F229      1.0  0.49306  0.13509  0.41768  1.0000
  F   F230      1.0  0.48705  0.13962  0.94508  1.0000
  F   F231      1.0  0.49131  0.64419  0.42477  1.0000
  F   F232      1.0  0.49238  0.62990  0.93536  1.0000
  F   F233      1.0  0.73866  0.15510  0.42298  1.0000
  F   F234      1.0  0.74515  0.12581  0.93785  1.0000
  F   F235      1.0  0.74529  0.63038  0.42935  1.0000
  F   F236      1.0  0.74288  0.63529  0.92397  1.0000
  F   F237      1.0  0.99533  0.14450  0.40963  1.0000
  F   F238      1.0  0.99305  0.12680  0.93814  1.0000
  F   F239      1.0  0.99584  0.63751  0.42209  1.0000
  F   F240      1.0  0.99042  0.62992  0.92264  1.0000
  F   F241      1.0  0.18048  0.01875  0.33823  1.0000
  F   F242      1.0  0.17403  0.01625  0.82435  1.0000
  F   F243      1.0  0.18723  0.51207  0.31689  1.0000
  F   F244      1.0  0.18070  0.51508  0.82059  1.0000
  F   F245      1.0  0.43996  0.01353  0.30964  1.0000
  F   F246      1.0  0.42965  0.02830  0.81724  1.0000
  F   F247      1.0  0.43196  0.52155  0.32318  1.0000
  F   F248      1.0  0.42394  0.51105  0.83773  1.0000
  F   F249      1.0  0.68053  0.01658  0.33226  1.0000
  F   F250      1.0  0.68201  0.00257  0.83428  1.0000
  F   F251      1.0  0.68859  0.50805  0.32892  1.0000
  F   F252      1.0  0.68440  0.51279  0.82319  1.0000
  F   F253      1.0  0.92708  0.01932  0.33259  1.0000
  F   F254      1.0  0.92994  0.02155  0.82779  1.0000
  F   F255      1.0  0.92582  0.51776  0.33316  1.0000
  F   F256      1.0  0.92251  0.51260  0.83596  1.0000
  F   F257      1.0  0.99630  0.23404  0.00585  1.0000
  F   F258      1.0  0.99899  0.26482  0.48667  1.0000
  F   F259      1.0  0.99496  0.73126  0.00353  1.0000
  F   F260      1.0  0.00178  0.74993  0.49889  1.0000
  F   F261      1.0  0.24717  0.23341  0.01911  1.0000
  F   F262      1.0  0.26009  0.27619  0.47535  1.0000
  F   F263      1.0  0.24755  0.74058  0.99389  1.0000
  F   F264      1.0  0.24997  0.75517  0.50269  1.0000
  F   F265      1.0  0.49803  0.27124  0.99580  1.0000
  F   F266      1.0  0.49745  0.22404  0.51108  1.0000
  F   F267      1.0  0.50090  0.74555  0.00161  1.0000
  F   F268      1.0  0.49608  0.73465  0.51673  1.0000
  F   F269      1.0  0.74946  0.23651  0.01688  1.0000
  F   F270      1.0  0.75042  0.26606  0.49375  1.0000
  F   F271      1.0  0.74214  0.75122  0.00054  1.0000
  F   F272      1.0  0.74862  0.75637  0.49986  1.0000
  F   F273      1.0  0.13283  0.00068  0.23146  1.0000
  F   F274      1.0  0.13129  0.00743  0.72844  1.0000
  F   F275      1.0  0.13381  0.49965  0.23072  1.0000
  F   F276      1.0  0.12564  0.50529  0.74643  1.0000
  F   F277      1.0  0.37732  0.00264  0.25893  1.0000
  F   F278      1.0  0.38243  0.99660  0.73557  1.0000
  F   F279      1.0  0.38185  0.49971  0.24442  1.0000
  F   F280      1.0  0.37993  0.49055  0.75092  1.0000
  F   F281      1.0  0.63048  0.99800  0.23565  1.0000
  F   F282      1.0  0.62505  0.00123  0.76199  1.0000
  F   F283      1.0  0.62373  0.50175  0.25889  1.0000
  F   F284      1.0  0.62912  0.49974  0.74147  1.0000
  F   F285      1.0  0.87878  0.00716  0.24681  1.0000
  F   F286      1.0  0.87141  0.99636  0.75409  1.0000
  F   F287      1.0  0.86570  0.49199  0.27396  1.0000
  F   F288      1.0  0.86690  0.49511  0.76024  1.0000
  F   F289      1.0  0.04173  0.03416  0.01962  1.0000
  F   F290      1.0  0.04258  0.03123  0.51618  1.0000
  F   F291      1.0  0.04938  0.54451  0.02315  1.0000
  F   F292      1.0  0.04037  0.54024  0.52381  1.0000
  F   F293      1.0  0.29385  0.04208  0.01714  1.0000
  F   F294      1.0  0.29424  0.02786  0.53030  1.0000
  F   F295      1.0  0.28721  0.53495  0.02512  1.0000
  F   F296      1.0  0.29447  0.53840  0.51666  1.0000
  F   F297      1.0  0.54277  0.03185  0.01511  1.0000
  F   F298      1.0  0.53558  0.02445  0.53090  1.0000
  F   F299      1.0  0.54359  0.52662  0.02781  1.0000
  F   F300      1.0  0.54631  0.51843  0.52082  1.0000
  F   F301      1.0  0.79275  0.02575  0.03636  1.0000
  F   F302      1.0  0.78186  0.02884  0.53099  1.0000
  F   F303      1.0  0.79918  0.52365  0.01116  1.0000
  F   F304      1.0  0.78844  0.53605  0.53395  1.0000
  F   F305      1.0  0.23684  0.40556  0.23010  1.0000
  F   F306      1.0  0.24014  0.42041  0.71951  1.0000
  F   F307      1.0  0.23826  0.92749  0.20344  1.0000
  F   F308      1.0  0.23052  0.90816  0.74032  1.0000
  F   F309      1.0  0.48562  0.41214  0.24041  1.0000
  F   F310      1.0  0.48160  0.41152  0.72465  1.0000
  F   F311      1.0  0.49114  0.90027  0.22313  1.0000
  F   F312      1.0  0.48204  0.91211  0.72338  1.0000
  F   F313      1.0  0.73366  0.39768  0.23932  1.0000
  F   F314      1.0  0.72753  0.43237  0.71886  1.0000
  F   F315      1.0  0.73166  0.90966  0.24630  1.0000
  F   F316      1.0  0.73143  0.89318  0.73581  1.0000
  F   F317      1.0  0.98495  0.42823  0.21125  1.0000
  F   F318      1.0  0.98340  0.40713  0.73605  1.0000
  F   F319      1.0  0.98537  0.91789  0.23417  1.0000
  F   F320      1.0  0.97870  0.93005  0.72629  1.0000
  F   F321      1.0  0.21006  0.47756  0.47496  1.0000
  F   F322      1.0  0.21127  0.47698  0.97126  1.0000
  F   F323      1.0  0.21097  0.96522  0.48148  1.0000
  F   F324      1.0  0.21746  0.97013  0.95062  1.0000
  F   F325      1.0  0.46447  0.46851  0.46598  1.0000
  F   F326      1.0  0.46147  0.46665  0.96531  1.0000
  F   F327      1.0  0.44362  0.97773  0.48795  1.0000
  F   F328      1.0  0.45511  0.97073  0.98356  1.0000
  F   F329      1.0  0.70951  0.47083  0.48079  1.0000
  F   F330      1.0  0.71239  0.47105  0.96426  1.0000
  F   F331      1.0  0.70230  0.95741  0.47778  1.0000
  F   F332      1.0  0.71057  0.96208  0.98220  1.0000
  F   F333      1.0  0.94942  0.46515  0.48499  1.0000
  F   F334      1.0  0.95463  0.46923  0.97794  1.0000
  F   F335      1.0  0.96243  0.97254  0.46845  1.0000
  F   F336      1.0  0.95640  0.96539  0.98545  1.0000
  F   F337      1.0  0.01454  0.09443  0.26553  1.0000
  F   F338      1.0  0.00608  0.10878  0.77310  1.0000
  F   F339      1.0  0.01641  0.57541  0.27654  1.0000
  F   F340      1.0  0.02023  0.58751  0.76539  1.0000
  F   F341      1.0  0.26492  0.07044  0.29293  1.0000
  F   F342      1.0  0.26297  0.11267  0.75606  1.0000
  F   F343      1.0  0.27287  0.59475  0.25372  1.0000
  F   F344      1.0  0.27133  0.58132  0.75934  1.0000
  F   F345      1.0  0.51967  0.07781  0.27070  1.0000
  F   F346      1.0  0.51738  0.09150  0.78337  1.0000
  F   F347      1.0  0.51474  0.59196  0.27150  1.0000
  F   F348      1.0  0.51173  0.56653  0.77740  1.0000
  F   F349      1.0  0.76785  0.07843  0.29546  1.0000
  F   F350      1.0  0.76127  0.09827  0.77957  1.0000
  F   F351      1.0  0.76957  0.57313  0.28553  1.0000
  F   F352      1.0  0.76183  0.60391  0.76645  1.0000
  F   F353      1.0  0.10454  0.42418  0.45312  1.0000
  F   F354      1.0  0.09696  0.42001  0.96058  1.0000
  F   F355      1.0  0.10166  0.91199  0.45566  1.0000
  F   F356      1.0  0.10024  0.90248  0.96190  1.0000
  F   F357      1.0  0.35601  0.43357  0.44900  1.0000
  F   F358      1.0  0.35333  0.41004  0.96357  1.0000
  F   F359      1.0  0.34907  0.89166  0.45246  1.0000
  F   F360      1.0  0.34656  0.93310  0.94379  1.0000
  F   F361      1.0  0.60293  0.40527  0.45056  1.0000
  F   F362      1.0  0.60183  0.39671  0.95476  1.0000
  F   F363      1.0  0.60300  0.92920  0.46846  1.0000
  F   F364      1.0  0.59935  0.92372  0.95149  1.0000
  F   F365      1.0  0.84468  0.40889  0.47543  1.0000
  F   F366      1.0  0.85242  0.36768  0.97054  1.0000
  F   F367      1.0  0.84831  0.92611  0.46248  1.0000
  F   F368      1.0  0.84705  0.90508  0.97008  1.0000
  F   F369      1.0  0.05276  0.30309  0.28103  1.0000
  F   F370      1.0  0.04844  0.29360  0.79649  1.0000
  F   F371      1.0  0.05189  0.80263  0.27333  1.0000
  F   F372      1.0  0.03711  0.80226  0.78671  1.0000
  F   F373      1.0  0.30662  0.30705  0.28505  1.0000
  F   F374      1.0  0.30480  0.29938  0.78638  1.0000
  F   F375      1.0  0.29408  0.80692  0.27130  1.0000
  F   F376      1.0  0.30320  0.80041  0.78667  1.0000
  F   F377      1.0  0.54107  0.28454  0.28339  1.0000
  F   F378      1.0  0.53843  0.28527  0.79629  1.0000
  F   F379      1.0  0.55389  0.79608  0.29389  1.0000
  F   F380      1.0  0.53536  0.79024  0.79746  1.0000
  F   F381      1.0  0.80359  0.31234  0.28809  1.0000
  F   F382      1.0  0.79147  0.29962  0.78515  1.0000
  F   F383      1.0  0.79503  0.79808  0.28266  1.0000
  F   F384      1.0  0.79669  0.79769  0.79796  1.0000
