data_image0
_chemical_formula_structural       Hf96F384
_chemical_formula_sum              "Hf96 F384"
_cell_length_a       31.0487
_cell_length_b       15.5232
_cell_length_c       15.5136
_cell_angle_alpha    63.342
_cell_angle_beta     63.342
_cell_angle_gamma    80.1625

_space_group_name_H-M_alt    "P 1"
_space_group_IT_number       1

loop_
  _space_group_symop_operation_xyz
  'x, y, z'

loop_
  _atom_site_type_symbol
  _atom_site_label
  _atom_site_symmetry_multiplicity
  _atom_site_fract_x
  _atom_site_fract_y
  _atom_site_fract_z
  _atom_site_occupancy
  Hf  Hf1       1.0  0.19547  0.09720  0.38052  1.0000
  Hf  Hf2       1.0  0.19830  0.09863  0.87539  1.0000
  Hf  Hf3       1.0  0.19822  0.60304  0.37401  1.0000
  Hf  Hf4       1.0  0.19967  0.60126  0.87781  1.0000
  Hf  Hf5       1.0  0.44522  0.10045  0.38795  1.0000
  Hf  Hf6       1.0  0.44841  0.11018  0.86760  1.0000
  Hf  Hf7       1.0  0.44599  0.61510  0.37205  1.0000
  Hf  Hf8       1.0  0.44522  0.60484  0.87822  1.0000
  Hf  Hf9       1.0  0.69701  0.10743  0.37534  1.0000
  Hf  Hf10      1.0  0.69781  0.11054  0.87666  1.0000
  Hf  Hf11      1.0  0.69429  0.60656  0.37686  1.0000
  Hf  Hf12      1.0  0.69434  0.60609  0.88023  1.0000
  Hf  Hf13      1.0  0.94764  0.10629  0.37747  1.0000
  Hf  Hf14      1.0  0.94391  0.11547  0.87075  1.0000
  Hf  Hf15      1.0  0.94889  0.61417  0.36370  1.0000
  Hf  Hf16      1.0  0.95090  0.61053  0.86848  1.0000
  Hf  Hf17      1.0  0.05729  0.40270  0.11788  1.0000
  Hf  Hf18      1.0  0.05543  0.39275  0.62115  1.0000
  Hf  Hf19      1.0  0.05380  0.89329  0.13386  1.0000
  Hf  Hf20      1.0  0.05196  0.89890  0.63055  1.0000
  Hf  Hf21      1.0  0.30566  0.37918  0.12490  1.0000
  Hf  Hf22      1.0  0.30168  0.39031  0.62164  1.0000
  Hf  Hf23      1.0  0.30034  0.88739  0.13272  1.0000
  Hf  Hf24      1.0  0.30681  0.89126  0.62522  1.0000
  Hf  Hf25      1.0  0.55454  0.39328  0.12389  1.0000
  Hf  Hf26      1.0  0.55660  0.39577  0.62680  1.0000
  Hf  Hf27      1.0  0.55711  0.89288  0.12162  1.0000
  Hf  Hf28      1.0  0.55360  0.89116  0.62949  1.0000
  Hf  Hf29      1.0  0.79641  0.38448  0.14170  1.0000
  Hf  Hf30      1.0  0.80458  0.39880  0.62321  1.0000
  Hf  Hf31      1.0  0.80471  0.90012  0.11691  1.0000
  Hf  Hf32      1.0  0.80416  0.89787  0.62137  1.0000
  Hf  Hf33      1.0  0.05593  0.18820  0.41281  1.0000
  Hf  Hf34      1.0  0.05899  0.18702  0.90587  1.0000
  Hf  Hf35      1.0  0.05357  0.68966  0.41606  1.0000
  Hf  Hf36      1.0  0.06072  0.68732  0.91577  1.0000
  Hf  Hf37      1.0  0.30268  0.17065  0.42367  1.0000
  Hf  Hf38      1.0  0.30641  0.18226  0.91880  1.0000
  Hf  Hf39      1.0  0.30581  0.68523  0.41264  1.0000
  Hf  Hf40      1.0  0.30521  0.68040  0.91552  1.0000
  Hf  Hf41      1.0  0.55726  0.18377  0.41560  1.0000
  Hf  Hf42      1.0  0.55613  0.18171  0.91138  1.0000
  Hf  Hf43      1.0  0.55397  0.67742  0.42190  1.0000
  Hf  Hf44      1.0  0.55371  0.67889  0.92942  1.0000
  Hf  Hf45      1.0  0.80343  0.18969  0.42023  1.0000
  Hf  Hf46      1.0  0.80618  0.19647  0.90362  1.0000
  Hf  Hf47      1.0  0.80192  0.68184  0.41718  1.0000
  Hf  Hf48      1.0  0.80754  0.67939  0.90665  1.0000
  Hf  Hf49      1.0  0.15801  0.39035  0.32863  1.0000
  Hf  Hf50      1.0  0.16094  0.38121  0.83833  1.0000
  Hf  Hf51      1.0  0.15991  0.87561  0.33675  1.0000
  Hf  Hf52      1.0  0.16034  0.88878  0.83216  1.0000
  Hf  Hf53      1.0  0.40806  0.38453  0.33484  1.0000
  Hf  Hf54      1.0  0.41285  0.39234  0.83076  1.0000
  Hf  Hf55      1.0  0.40868  0.88854  0.34016  1.0000
  Hf  Hf56      1.0  0.40810  0.88826  0.83440  1.0000
  Hf  Hf57      1.0  0.65437  0.38785  0.34012  1.0000
  Hf  Hf58      1.0  0.65722  0.38549  0.83604  1.0000
  Hf  Hf59      1.0  0.65695  0.88972  0.33187  1.0000
  Hf  Hf60      1.0  0.65603  0.89226  0.83573  1.0000
  Hf  Hf61      1.0  0.90889  0.39465  0.33095  1.0000
  Hf  Hf62      1.0  0.91078  0.39167  0.82369  1.0000
  Hf  Hf63      1.0  0.90764  0.88631  0.33478  1.0000
  Hf  Hf64      1.0  0.90980  0.89146  0.83263  1.0000
  Hf  Hf65      1.0  0.19645  0.31315  0.08388  1.0000
  Hf  Hf66      1.0  0.19113  0.31702  0.57915  1.0000
  Hf  Hf67      1.0  0.19553  0.81517  0.08452  1.0000
  Hf  Hf68      1.0  0.19162  0.81600  0.59233  1.0000
  Hf  Hf69      1.0  0.44434  0.30647  0.09359  1.0000
  Hf  Hf70      1.0  0.44343  0.32207  0.58041  1.0000
  Hf  Hf71      1.0  0.44020  0.82099  0.08986  1.0000
  Hf  Hf72      1.0  0.44766  0.81258  0.58624  1.0000
  Hf  Hf73      1.0  0.69459  0.32373  0.08465  1.0000
  Hf  Hf74      1.0  0.69432  0.31968  0.58509  1.0000
  Hf  Hf75      1.0  0.69283  0.80490  0.08417  1.0000
  Hf  Hf76      1.0  0.69248  0.81997  0.58252  1.0000
  Hf  Hf77      1.0  0.94446  0.32263  0.07764  1.0000
  Hf  Hf78      1.0  0.94692  0.32186  0.57375  1.0000
  Hf  Hf79      1.0  0.94613  0.81970  0.08046  1.0000
  Hf  Hf80      1.0  0.94232  0.82362  0.58089  1.0000
  Hf  Hf81      1.0  0.09458  0.11381  0.16632  1.0000
  Hf  Hf82      1.0  0.09179  0.11282  0.66180  1.0000
  Hf  Hf83      1.0  0.09083  0.62055  0.16619  1.0000
  Hf  Hf84      1.0  0.09307  0.60869  0.66693  1.0000
  Hf  Hf85      1.0  0.34128  0.09591  0.17159  1.0000
  Hf  Hf86      1.0  0.34289  0.11086  0.66887  1.0000
  Hf  Hf87      1.0  0.34199  0.60708  0.16403  1.0000
  Hf  Hf88      1.0  0.34414  0.60905  0.66547  1.0000
  Hf  Hf89      1.0  0.59357  0.10905  0.16553  1.0000
  Hf  Hf90      1.0  0.59172  0.12304  0.65873  1.0000
  Hf  Hf91      1.0  0.58626  0.60589  0.17770  1.0000
  Hf  Hf92      1.0  0.58562  0.61017  0.67697  1.0000
  Hf  Hf93      1.0  0.84074  0.11049  0.16720  1.0000
  Hf  Hf94      1.0  0.84011  0.11767  0.66117  1.0000
  Hf  Hf95      1.0  0.84031  0.61833  0.16069  1.0000
  Hf  Hf96      1.0  0.84283  0.61536  0.65947  1.0000
  F   F1        1.0  0.07595  0.11194  0.31032  1.0000
  F   F2        1.0  0.07897  0.11629  0.81264  1.0000
  F   F3        1.0  0.07683  0.62454  0.30486  1.0000
  F   F4        1.0  0.08052  0.64256  0.79844  1.0000
  F   F5        1.0  0.32703  0.11205  0.31854  1.0000
  F   F6        1.0  0.33101  0.13009  0.80162  1.0000
  F   F7        1.0  0.33629  0.63113  0.28713  1.0000
  F   F8        1.0  0.33370  0.63305  0.79619  1.0000
  F   F9        1.0  0.58180  0.13263  0.30333  1.0000
  F   F10       1.0  0.58053  0.13172  0.79516  1.0000
  F   F11       1.0  0.57184  0.61452  0.31668  1.0000
  F   F12       1.0  0.57439  0.62972  0.81014  1.0000
  F   F13       1.0  0.82787  0.13276  0.30578  1.0000
  F   F14       1.0  0.83174  0.14351  0.78272  1.0000
  F   F15       1.0  0.82232  0.61510  0.31019  1.0000
  F   F16       1.0  0.83103  0.63717  0.78956  1.0000
  F   F17       1.0  0.19404  0.35570  0.43088  1.0000
  F   F18       1.0  0.18858  0.34689  0.94471  1.0000
  F   F19       1.0  0.18434  0.83089  0.44847  1.0000
  F   F20       1.0  0.18408  0.82960  0.94734  1.0000
  F   F21       1.0  0.43284  0.35343  0.45242  1.0000
  F   F22       1.0  0.43813  0.33974  0.93734  1.0000
  F   F23       1.0  0.43636  0.84296  0.45246  1.0000
  F   F24       1.0  0.44669  0.85782  0.93212  1.0000
  F   F25       1.0  0.68095  0.35522  0.44578  1.0000
  F   F26       1.0  0.68148  0.34084  0.94914  1.0000
  F   F27       1.0  0.68318  0.83791  0.44694  1.0000
  F   F28       1.0  0.68305  0.83694  0.94937  1.0000
  F   F29       1.0  0.93875  0.34064  0.44410  1.0000
  F   F30       1.0  0.93919  0.36004  0.93798  1.0000
  F   F31       1.0  0.92944  0.83216  0.45603  1.0000
  F   F32       1.0  0.94190  0.84105  0.94068  1.0000
  F   F33       1.0  0.17454  0.36709  0.19785  1.0000
  F   F34       1.0  0.17327  0.37371  0.69329  1.0000
  F   F35       1.0  0.16919  0.83914  0.21427  1.0000
  F   F36       1.0  0.16808  0.87588  0.70253  1.0000
  F   F37       1.0  0.41695  0.35963  0.20127  1.0000
  F   F38       1.0  0.41971  0.37125  0.69543  1.0000
  F   F39       1.0  0.41865  0.87410  0.20229  1.0000
  F   F40       1.0  0.42212  0.86061  0.71134  1.0000
  F   F41       1.0  0.67144  0.36499  0.19626  1.0000
  F   F42       1.0  0.66970  0.38258  0.69357  1.0000
  F   F43       1.0  0.66756  0.85500  0.20015  1.0000
  F   F44       1.0  0.66475  0.87729  0.70542  1.0000
  F   F45       1.0  0.92398  0.36918  0.19361  1.0000
  F   F46       1.0  0.92998  0.39679  0.67469  1.0000
  F   F47       1.0  0.91671  0.87735  0.19068  1.0000
  F   F48       1.0  0.92144  0.86434  0.71112  1.0000
  F   F49       1.0  0.06167  0.15537  0.06637  1.0000
  F   F50       1.0  0.06778  0.16260  0.54952  1.0000
  F   F51       1.0  0.06916  0.67743  0.05004  1.0000
  F   F52       1.0  0.06674  0.65550  0.55476  1.0000
  F   F53       1.0  0.30728  0.13623  0.07142  1.0000
  F   F54       1.0  0.31712  0.16202  0.55293  1.0000
  F   F55       1.0  0.31436  0.65092  0.05571  1.0000
  F   F56       1.0  0.30269  0.66649  0.54977  1.0000
  F   F57       1.0  0.56645  0.16115  0.05435  1.0000
  F   F58       1.0  0.55875  0.16489  0.55797  1.0000
  F   F59       1.0  0.55783  0.64917  0.06683  1.0000
  F   F60       1.0  0.56005  0.63624  0.56425  1.0000
  F   F61       1.0  0.82169  0.18508  0.03767  1.0000
  F   F62       1.0  0.81189  0.16519  0.54956  1.0000
  F   F63       1.0  0.81059  0.65748  0.05340  1.0000
  F   F64       1.0  0.81161  0.66359  0.55123  1.0000
  F   F65       1.0  0.20944  0.20454  0.21636  1.0000
  F   F66       1.0  0.19476  0.20011  0.71299  1.0000
  F   F67       1.0  0.21818  0.70032  0.20197  1.0000
  F   F68       1.0  0.19413  0.69178  0.70994  1.0000
  F   F69       1.0  0.46080  0.19848  0.20838  1.0000
  F   F70       1.0  0.45343  0.19770  0.70851  1.0000
  F   F71       1.0  0.45204  0.70696  0.20094  1.0000
  F   F72       1.0  0.46589  0.70824  0.71296  1.0000
  F   F73       1.0  0.70465  0.19199  0.20893  1.0000
  F   F74       1.0  0.70063  0.20237  0.70829  1.0000
  F   F75       1.0  0.70716  0.68949  0.21416  1.0000
  F   F76       1.0  0.69720  0.69644  0.70833  1.0000
  F   F77       1.0  0.95341  0.21519  0.20161  1.0000
  F   F78       1.0  0.95278  0.21519  0.70994  1.0000
  F   F79       1.0  0.95028  0.70318  0.21401  1.0000
  F   F80       1.0  0.95751  0.70240  0.71030  1.0000
  F   F81       1.0  0.14968  0.09042  0.04550  1.0000
  F   F82       1.0  0.15335  0.09450  0.52812  1.0000
  F   F83       1.0  0.15386  0.59443  0.04336  1.0000
  F   F84       1.0  0.14819  0.57982  0.54070  1.0000
  F   F85       1.0  0.39618  0.09802  0.03865  1.0000
  F   F86       1.0  0.40315  0.07548  0.55211  1.0000
  F   F87       1.0  0.39921  0.57553  0.04893  1.0000
  F   F88       1.0  0.39381  0.60148  0.53168  1.0000
  F   F89       1.0  0.65344  0.08468  0.03587  1.0000
  F   F90       1.0  0.64730  0.09247  0.54648  1.0000
  F   F91       1.0  0.65344  0.58433  0.03654  1.0000
  F   F92       1.0  0.64804  0.58762  0.53486  1.0000
  F   F93       1.0  0.89842  0.08374  0.03894  1.0000
  F   F94       1.0  0.89904  0.09597  0.54041  1.0000
  F   F95       1.0  0.89950  0.59251  0.05238  1.0000
  F   F96       1.0  0.89521  0.60348  0.53160  1.0000
  F   F97       1.0  0.15190  0.20020  0.12676  1.0000
  F   F98       1.0  0.14850  0.21338  0.60623  1.0000
  F   F99       1.0  0.15006  0.69086  0.14229  1.0000
  F   F100      1.0  0.14670  0.69856  0.61828  1.0000
  F   F101      1.0  0.40165  0.19462  0.13726  1.0000
  F   F102      1.0  0.39989  0.20053  0.61502  1.0000
  F   F103      1.0  0.40038  0.71061  0.10155  1.0000
  F   F104      1.0  0.41000  0.68336  0.62402  1.0000
  F   F105      1.0  0.65499  0.18435  0.12492  1.0000
  F   F106      1.0  0.65294  0.20151  0.61674  1.0000
  F   F107      1.0  0.65194  0.67776  0.14797  1.0000
  F   F108      1.0  0.64714  0.70401  0.61379  1.0000
  F   F109      1.0  0.89379  0.21488  0.11851  1.0000
  F   F110      1.0  0.90421  0.21058  0.61399  1.0000
  F   F111      1.0  0.89950  0.70569  0.13032  1.0000
  F   F112      1.0  0.90812  0.69980  0.61941  1.0000
  F   F113      1.0  0.09453  0.30122  0.37963  1.0000
  F   F114      1.0  0.09792  0.29959  0.88390  1.0000
  F   F115      1.0  0.09742  0.80687  0.37704  1.0000
  F   F116      1.0  0.09492  0.81175  0.87286  1.0000
  F   F117      1.0  0.35132  0.30200  0.37079  1.0000
  F   F118      1.0  0.34764  0.29264  0.89086  1.0000
  F   F119      1.0  0.34945  0.80391  0.38446  1.0000
  F   F120      1.0  0.34195  0.80479  0.86624  1.0000
  F   F121      1.0  0.60013  0.30818  0.37342  1.0000
  F   F122      1.0  0.60138  0.29637  0.86400  1.0000
  F   F123      1.0  0.59493  0.79554  0.38562  1.0000
  F   F124      1.0  0.59862  0.80901  0.89143  1.0000
  F   F125      1.0  0.84894  0.31309  0.37982  1.0000
  F   F126      1.0  0.85486  0.31224  0.83185  1.0000
  F   F127      1.0  0.84751  0.80060  0.36252  1.0000
  F   F128      1.0  0.84746  0.79959  0.85945  1.0000
  F   F129      1.0  0.06867  0.25247  0.14470  1.0000
  F   F130      1.0  0.06519  0.24695  0.65291  1.0000
  F   F131      1.0  0.05358  0.75397  0.15809  1.0000
  F   F132      1.0  0.05791  0.75340  0.64483  1.0000
  F   F133      1.0  0.32122  0.24882  0.12286  1.0000
  F   F134      1.0  0.30361  0.24628  0.66288  1.0000
  F   F135      1.0  0.31076  0.74507  0.15282  1.0000
  F   F136      1.0  0.32948  0.74902  0.62372  1.0000
  F   F137      1.0  0.56858  0.24908  0.13135  1.0000
  F   F138      1.0  0.56162  0.25964  0.64538  1.0000
  F   F139      1.0  0.56557  0.75052  0.12889  1.0000
  F   F140      1.0  0.56388  0.74735  0.63847  1.0000
  F   F141      1.0  0.80225  0.24971  0.15660  1.0000
  F   F142      1.0  0.81838  0.26244  0.63254  1.0000
  F   F143      1.0  0.80900  0.75860  0.13852  1.0000
  F   F144      1.0  0.82707  0.75821  0.61227  1.0000
  F   F145      1.0  0.13085  0.38914  0.09550  1.0000
  F   F146      1.0  0.12257  0.37523  0.60916  1.0000
  F   F147      1.0  0.11917  0.87012  0.11438  1.0000
  F   F148      1.0  0.12417  0.86190  0.61969  1.0000
  F   F149      1.0  0.37644  0.36716  0.09528  1.0000
  F   F150      1.0  0.37042  0.35628  0.61072  1.0000
  F   F151      1.0  0.37046  0.86421  0.11761  1.0000
  F   F152      1.0  0.37966  0.85621  0.62657  1.0000
  F   F153      1.0  0.62261  0.37364  0.11152  1.0000
  F   F154      1.0  0.62259  0.36908  0.61579  1.0000
  F   F155      1.0  0.62396  0.85692  0.10743  1.0000
  F   F156      1.0  0.62660  0.87278  0.60520  1.0000
  F   F157      1.0  0.87061  0.37910  0.09424  1.0000
  F   F158      1.0  0.87593  0.37536  0.61491  1.0000
  F   F159      1.0  0.87431  0.87204  0.10316  1.0000
  F   F160      1.0  0.87353  0.88783  0.59549  1.0000
  F   F161      1.0  0.17669  0.24625  0.37052  1.0000
  F   F162      1.0  0.18676  0.24916  0.85614  1.0000
  F   F163      1.0  0.18498  0.73169  0.37608  1.0000
  F   F164      1.0  0.19297  0.74546  0.84544  1.0000
  F   F165      1.0  0.43358  0.24337  0.37434  1.0000
  F   F166      1.0  0.43544  0.24510  0.85384  1.0000
  F   F167      1.0  0.43365  0.74707  0.36533  1.0000
  F   F168      1.0  0.42727  0.74428  0.88272  1.0000
  F   F169      1.0  0.68684  0.23986  0.37047  1.0000
  F   F170      1.0  0.69066  0.25137  0.86074  1.0000
  F   F171      1.0  0.68131  0.75069  0.36110  1.0000
  F   F172      1.0  0.68333  0.74608  0.85780  1.0000
  F   F173      1.0  0.93252  0.24642  0.35712  1.0000
  F   F174      1.0  0.93483  0.24990  0.87267  1.0000
  F   F175      1.0  0.93342  0.75005  0.34969  1.0000
  F   F176      1.0  0.93083  0.73978  0.87201  1.0000
  F   F177      1.0  0.12604  0.12488  0.38955  1.0000
  F   F178      1.0  0.12249  0.12560  0.90005  1.0000
  F   F179      1.0  0.12436  0.64295  0.38271  1.0000
  F   F180      1.0  0.12651  0.63192  0.89637  1.0000
  F   F181      1.0  0.37578  0.12172  0.39684  1.0000
  F   F182      1.0  0.37542  0.12933  0.88656  1.0000
  F   F183      1.0  0.37904  0.63893  0.37845  1.0000
  F   F184      1.0  0.37679  0.64449  0.87968  1.0000
  F   F185      1.0  0.62399  0.13596  0.39764  1.0000
  F   F186      1.0  0.63057  0.13517  0.88713  1.0000
  F   F187      1.0  0.62307  0.61912  0.39182  1.0000
  F   F188      1.0  0.61640  0.62522  0.90886  1.0000
  F   F189      1.0  0.87746  0.12846  0.39322  1.0000
  F   F190      1.0  0.87604  0.14838  0.87852  1.0000
  F   F191      1.0  0.87004  0.62535  0.38219  1.0000
  F   F192      1.0  0.87670  0.61548  0.90491  1.0000
  F   F193      1.0  0.00989  0.37850  0.07466  1.0000
  F   F194      1.0  0.01365  0.35803  0.55847  1.0000
  F   F195      1.0  0.00087  0.86797  0.08431  1.0000
  F   F196      1.0  0.00466  0.86863  0.58187  1.0000
  F   F197      1.0  0.26206  0.34940  0.06822  1.0000
  F   F198      1.0  0.25643  0.34398  0.58074  1.0000
  F   F199      1.0  0.25452  0.87567  0.07076  1.0000
  F   F200      1.0  0.26049  0.84976  0.59040  1.0000
  F   F201      1.0  0.50711  0.35537  0.08327  1.0000
  F   F202      1.0  0.50842  0.37280  0.57146  1.0000
  F   F203      1.0  0.50349  0.87084  0.07418  1.0000
  F   F204      1.0  0.51143  0.86856  0.55959  1.0000
  F   F205      1.0  0.75561  0.36752  0.07490  1.0000
  F   F206      1.0  0.75877  0.35222  0.58175  1.0000
  F   F207      1.0  0.75343  0.86814  0.06967  1.0000
  F   F208      1.0  0.75577  0.86129  0.57094  1.0000
  F   F209      1.0  0.07366  0.48398  0.17953  1.0000
  F   F210      1.0  0.06939  0.47840  0.67265  1.0000
  F   F211      1.0  0.06416  0.98385  0.18943  1.0000
  F   F212      1.0  0.06788  0.98905  0.67853  1.0000
  F   F213      1.0  0.32419  0.47086  0.16943  1.0000
  F   F214      1.0  0.31767  0.48043  0.68006  1.0000
  F   F215      1.0  0.31918  0.96668  0.19424  1.0000
  F   F216      1.0  0.31842  0.98858  0.65909  1.0000
  F   F217      1.0  0.56166  0.47037  0.19620  1.0000
  F   F218      1.0  0.56513  0.48229  0.68603  1.0000
  F   F219      1.0  0.57588  0.98355  0.16929  1.0000
  F   F220      1.0  0.57141  0.98830  0.66952  1.0000
  F   F221      1.0  0.81358  0.49106  0.16809  1.0000
  F   F222      1.0  0.81607  0.49171  0.66875  1.0000
  F   F223      1.0  0.81673  0.98772  0.17558  1.0000
  F   F224      1.0  0.81515  0.98863  0.67130  1.0000
  F   F225      1.0  0.24161  0.13756  0.42479  1.0000
  F   F226      1.0  0.24463  0.13436  0.91769  1.0000
  F   F227      1.0  0.24713  0.62925  0.42168  1.0000
  F   F228      1.0  0.24250  0.62401  0.95171  1.0000
  F   F229      1.0  0.49142  0.13493  0.44137  1.0000
  F   F230      1.0  0.49372  0.14328  0.91318  1.0000
  F   F231      1.0  0.49192  0.63426  0.43653  1.0000
  F   F232      1.0  0.49304  0.63245  0.93000  1.0000
  F   F233      1.0  0.74664  0.13118  0.42315  1.0000
  F   F234      1.0  0.74839  0.12968  0.92589  1.0000
  F   F235      1.0  0.74120  0.64367  0.41354  1.0000
  F   F236      1.0  0.74382  0.63520  0.93713  1.0000
  F   F237      1.0  0.99057  0.14423  0.43097  1.0000
  F   F238      1.0  0.99503  0.13639  0.91869  1.0000
  F   F239      1.0  0.99213  0.64833  0.41468  1.0000
  F   F240      1.0  0.99658  0.65331  0.90674  1.0000
  F   F241      1.0  0.18075  0.01122  0.32293  1.0000
  F   F242      1.0  0.17652  0.00690  0.83131  1.0000
  F   F243      1.0  0.17483  0.51470  0.32889  1.0000
  F   F244      1.0  0.18513  0.51180  0.82416  1.0000
  F   F245      1.0  0.43411  0.01939  0.32367  1.0000
  F   F246      1.0  0.42314  0.02199  0.83113  1.0000
  F   F247      1.0  0.42479  0.51215  0.33833  1.0000
  F   F248      1.0  0.43870  0.52457  0.80358  1.0000
  F   F249      1.0  0.68221  0.01352  0.32762  1.0000
  F   F250      1.0  0.68190  0.01752  0.81852  1.0000
  F   F251      1.0  0.67403  0.51311  0.33320  1.0000
  F   F252      1.0  0.68251  0.52098  0.82589  1.0000
  F   F253      1.0  0.93089  0.00797  0.33893  1.0000
  F   F254      1.0  0.92596  0.02013  0.82479  1.0000
  F   F255      1.0  0.92933  0.50892  0.34043  1.0000
  F   F256      1.0  0.93204  0.51752  0.81542  1.0000
  F   F257      1.0  0.99916  0.26159  0.99304  1.0000
  F   F258      1.0  0.00243  0.25770  0.48975  1.0000
  F   F259      1.0  0.99803  0.73016  0.02308  1.0000
  F   F260      1.0  0.99805  0.74986  0.50084  1.0000
  F   F261      1.0  0.24628  0.24185  0.00621  1.0000
  F   F262      1.0  0.24862  0.22896  0.50906  1.0000
  F   F263      1.0  0.25087  0.74456  0.00337  1.0000
  F   F264      1.0  0.24813  0.76449  0.49602  1.0000
  F   F265      1.0  0.49936  0.24802  0.00078  1.0000
  F   F266      1.0  0.50342  0.26267  0.48372  1.0000
  F   F267      1.0  0.49951  0.75269  0.00249  1.0000
  F   F268      1.0  0.50346  0.74963  0.49583  1.0000
  F   F269      1.0  0.75117  0.26004  0.99763  1.0000
  F   F270      1.0  0.74676  0.25021  0.50031  1.0000
  F   F271      1.0  0.75113  0.75083  0.99985  1.0000
  F   F272      1.0  0.75205  0.76324  0.48386  1.0000
  F   F273      1.0  0.13184  0.98773  0.24643  1.0000
  F   F274      1.0  0.12253  0.99425  0.75929  1.0000
  F   F275      1.0  0.13008  0.50317  0.23720  1.0000
  F   F276      1.0  0.13227  0.50254  0.74996  1.0000
  F   F277      1.0  0.37730  0.99008  0.25803  1.0000
  F   F278      1.0  0.36207  0.98493  0.76277  1.0000
  F   F279      1.0  0.37485  0.49193  0.25132  1.0000
  F   F280      1.0  0.37798  0.49334  0.74293  1.0000
  F   F281      1.0  0.62859  0.00325  0.24750  1.0000
  F   F282      1.0  0.63039  0.01007  0.73209  1.0000
  F   F283      1.0  0.62049  0.49801  0.25613  1.0000
  F   F284      1.0  0.61962  0.49636  0.75131  1.0000
  F   F285      1.0  0.87510  0.01237  0.25153  1.0000
  F   F286      1.0  0.87567  0.00750  0.74717  1.0000
  F   F287      1.0  0.86831  0.49250  0.25623  1.0000
  F   F288      1.0  0.87178  0.50613  0.75557  1.0000
  F   F289      1.0  0.04417  0.02978  0.01426  1.0000
  F   F290      1.0  0.03369  0.03568  0.54550  1.0000
  F   F291      1.0  0.04445  0.54624  0.02043  1.0000
  F   F292      1.0  0.04218  0.53395  0.52235  1.0000
  F   F293      1.0  0.30169  0.02071  0.01378  1.0000
  F   F294      1.0  0.29233  0.03034  0.52345  1.0000
  F   F295      1.0  0.29996  0.52046  0.01814  1.0000
  F   F296      1.0  0.29905  0.52540  0.51507  1.0000
  F   F297      1.0  0.53985  0.03610  0.02584  1.0000
  F   F298      1.0  0.53765  0.03107  0.53601  1.0000
  F   F299      1.0  0.54175  0.51646  0.02993  1.0000
  F   F300      1.0  0.54274  0.52295  0.52568  1.0000
  F   F301      1.0  0.80038  0.04121  0.01865  1.0000
  F   F302      1.0  0.79632  0.04144  0.51597  1.0000
  F   F303      1.0  0.79755  0.51405  0.01185  1.0000
  F   F304      1.0  0.79001  0.53837  0.52646  1.0000
  F   F305      1.0  0.23566  0.40587  0.21501  1.0000
  F   F306      1.0  0.23027  0.43169  0.72257  1.0000
  F   F307      1.0  0.23256  0.90095  0.22874  1.0000
  F   F308      1.0  0.23768  0.92646  0.71644  1.0000
  F   F309      1.0  0.47788  0.41292  0.23259  1.0000
  F   F310      1.0  0.48604  0.41104  0.72665  1.0000
  F   F311      1.0  0.49083  0.91986  0.21461  1.0000
  F   F312      1.0  0.48612  0.90511  0.72192  1.0000
  F   F313      1.0  0.72731  0.41717  0.22751  1.0000
  F   F314      1.0  0.73213  0.43959  0.70988  1.0000
  F   F315      1.0  0.73330  0.90776  0.22623  1.0000
  F   F316      1.0  0.73473  0.91252  0.72425  1.0000
  F   F317      1.0  0.98131  0.43187  0.23070  1.0000
  F   F318      1.0  0.99117  0.40418  0.72100  1.0000
  F   F319      1.0  0.98030  0.91424  0.22503  1.0000
  F   F320      1.0  0.98255  0.92531  0.72884  1.0000
  F   F321      1.0  0.20639  0.46668  0.47274  1.0000
  F   F322      1.0  0.21268  0.46100  0.97895  1.0000
  F   F323      1.0  0.20829  0.96288  0.47407  1.0000
  F   F324      1.0  0.19707  0.96172  0.98535  1.0000
  F   F325      1.0  0.45629  0.47742  0.48024  1.0000
  F   F326      1.0  0.45615  0.46098  0.97261  1.0000
  F   F327      1.0  0.45673  0.97004  0.48886  1.0000
  F   F328      1.0  0.45508  0.98610  0.97905  1.0000
  F   F329      1.0  0.71018  0.47011  0.47364  1.0000
  F   F330      1.0  0.70402  0.46668  0.97747  1.0000
  F   F331      1.0  0.70474  0.96654  0.48287  1.0000
  F   F332      1.0  0.70861  0.96455  0.96637  1.0000
  F   F333      1.0  0.95665  0.47404  0.47178  1.0000
  F   F334      1.0  0.96534  0.46666  0.98082  1.0000
  F   F335      1.0  0.95809  0.97565  0.48403  1.0000
  F   F336      1.0  0.95382  0.97383  0.97430  1.0000
  F   F337      1.0  0.01433  0.08319  0.27818  1.0000
  F   F338      1.0  0.01039  0.10237  0.76025  1.0000
  F   F339      1.0  0.01652  0.58414  0.26757  1.0000
  F   F340      1.0  0.01731  0.56808  0.77969  1.0000
  F   F341      1.0  0.27031  0.07269  0.27674  1.0000
  F   F342      1.0  0.26332  0.07286  0.77657  1.0000
  F   F343      1.0  0.26815  0.56187  0.27150  1.0000
  F   F344      1.0  0.26553  0.59858  0.77588  1.0000
  F   F345      1.0  0.52260  0.07884  0.26739  1.0000
  F   F346      1.0  0.51720  0.08230  0.76814  1.0000
  F   F347      1.0  0.50980  0.58935  0.27408  1.0000
  F   F348      1.0  0.51446  0.58302  0.78176  1.0000
  F   F349      1.0  0.76431  0.08540  0.27876  1.0000
  F   F350      1.0  0.76717  0.09830  0.76200  1.0000
  F   F351      1.0  0.76392  0.56870  0.27388  1.0000
  F   F352      1.0  0.76881  0.60520  0.75966  1.0000
  F   F353      1.0  0.10325  0.40215  0.46136  1.0000
  F   F354      1.0  0.09702  0.42460  0.96890  1.0000
  F   F355      1.0  0.09619  0.91413  0.46874  1.0000
  F   F356      1.0  0.10238  0.90174  0.97103  1.0000
  F   F357      1.0  0.34754  0.38662  0.47409  1.0000
  F   F358      1.0  0.35248  0.39679  0.95776  1.0000
  F   F359      1.0  0.35772  0.91603  0.45656  1.0000
  F   F360      1.0  0.35259  0.88222  0.96600  1.0000
  F   F361      1.0  0.59596  0.39938  0.46608  1.0000
  F   F362      1.0  0.60183  0.40627  0.95712  1.0000
  F   F363      1.0  0.59766  0.90953  0.46232  1.0000
  F   F364      1.0  0.59726  0.92563  0.95527  1.0000
  F   F365      1.0  0.85322  0.42338  0.45280  1.0000
  F   F366      1.0  0.85209  0.37913  0.95128  1.0000
  F   F367      1.0  0.85003  0.90445  0.44975  1.0000
  F   F368      1.0  0.85009  0.91278  0.95184  1.0000
  F   F369      1.0  0.04515  0.30435  0.28787  1.0000
  F   F370      1.0  0.05102  0.29709  0.78528  1.0000
  F   F371      1.0  0.04766  0.79748  0.29002  1.0000
  F   F372      1.0  0.04662  0.81172  0.78982  1.0000
  F   F373      1.0  0.29752  0.28245  0.28066  1.0000
  F   F374      1.0  0.29425  0.29973  0.79458  1.0000
  F   F375      1.0  0.29056  0.79687  0.29424  1.0000
  F   F376      1.0  0.28908  0.79129  0.78193  1.0000
  F   F377      1.0  0.54447  0.28970  0.28629  1.0000
  F   F378      1.0  0.54635  0.30125  0.78767  1.0000
  F   F379      1.0  0.55110  0.78322  0.28543  1.0000
  F   F380      1.0  0.54745  0.80245  0.80124  1.0000
  F   F381      1.0  0.79176  0.30556  0.29678  1.0000
  F   F382      1.0  0.78206  0.29486  0.78545  1.0000
  F   F383      1.0  0.79595  0.78767  0.28535  1.0000
  F   F384      1.0  0.79732  0.79329  0.77197  1.0000
