data_image0
_chemical_formula_structural       Hf96F384
_chemical_formula_sum              "Hf96 F384"
_cell_length_a       31.0448
_cell_length_b       15.5217
_cell_length_c       15.5128
_cell_angle_alpha    63.342
_cell_angle_beta     63.342
_cell_angle_gamma    80.1625

_space_group_name_H-M_alt    "P 1"
_space_group_IT_number       1

loop_
  _space_group_symop_operation_xyz
  'x, y, z'

loop_
  _atom_site_type_symbol
  _atom_site_label
  _atom_site_symmetry_multiplicity
  _atom_site_fract_x
  _atom_site_fract_y
  _atom_site_fract_z
  _atom_site_occupancy
  Hf  Hf1       1.0  0.19426  0.10028  0.38175  1.0000
  Hf  Hf2       1.0  0.19887  0.10879  0.87413  1.0000
  Hf  Hf3       1.0  0.19539  0.60742  0.37400  1.0000
  Hf  Hf4       1.0  0.19481  0.61088  0.88411  1.0000
  Hf  Hf5       1.0  0.44575  0.10792  0.37751  1.0000
  Hf  Hf6       1.0  0.44493  0.09976  0.88515  1.0000
  Hf  Hf7       1.0  0.44199  0.60086  0.39317  1.0000
  Hf  Hf8       1.0  0.44956  0.61170  0.87779  1.0000
  Hf  Hf9       1.0  0.69570  0.11474  0.36825  1.0000
  Hf  Hf10      1.0  0.69875  0.10370  0.87191  1.0000
  Hf  Hf11      1.0  0.69550  0.60698  0.37170  1.0000
  Hf  Hf12      1.0  0.69892  0.61243  0.86773  1.0000
  Hf  Hf13      1.0  0.94409  0.10831  0.36574  1.0000
  Hf  Hf14      1.0  0.94636  0.11328  0.86030  1.0000
  Hf  Hf15      1.0  0.94241  0.60944  0.38209  1.0000
  Hf  Hf16      1.0  0.94399  0.60960  0.87506  1.0000
  Hf  Hf17      1.0  0.05259  0.38845  0.13513  1.0000
  Hf  Hf18      1.0  0.05342  0.39497  0.62641  1.0000
  Hf  Hf19      1.0  0.06052  0.89190  0.12195  1.0000
  Hf  Hf20      1.0  0.05850  0.89383  0.61844  1.0000
  Hf  Hf21      1.0  0.30146  0.38852  0.13230  1.0000
  Hf  Hf22      1.0  0.30116  0.38736  0.63587  1.0000
  Hf  Hf23      1.0  0.30827  0.88978  0.11841  1.0000
  Hf  Hf24      1.0  0.30718  0.88598  0.63449  1.0000
  Hf  Hf25      1.0  0.55374  0.39698  0.11509  1.0000
  Hf  Hf26      1.0  0.55762  0.39548  0.62196  1.0000
  Hf  Hf27      1.0  0.54839  0.89593  0.12012  1.0000
  Hf  Hf28      1.0  0.55510  0.89001  0.62896  1.0000
  Hf  Hf29      1.0  0.80352  0.40251  0.11001  1.0000
  Hf  Hf30      1.0  0.80157  0.39861  0.61944  1.0000
  Hf  Hf31      1.0  0.80612  0.88633  0.12828  1.0000
  Hf  Hf32      1.0  0.80602  0.89020  0.61499  1.0000
  Hf  Hf33      1.0  0.05250  0.18151  0.42542  1.0000
  Hf  Hf34      1.0  0.05856  0.18252  0.91269  1.0000
  Hf  Hf35      1.0  0.05124  0.68068  0.41918  1.0000
  Hf  Hf36      1.0  0.05337  0.68298  0.92431  1.0000
  Hf  Hf37      1.0  0.30636  0.16735  0.42453  1.0000
  Hf  Hf38      1.0  0.30453  0.18803  0.91873  1.0000
  Hf  Hf39      1.0  0.30002  0.67721  0.42482  1.0000
  Hf  Hf40      1.0  0.30735  0.68039  0.91669  1.0000
  Hf  Hf41      1.0  0.55621  0.17556  0.41564  1.0000
  Hf  Hf42      1.0  0.55643  0.18415  0.91451  1.0000
  Hf  Hf43      1.0  0.55470  0.67862  0.42107  1.0000
  Hf  Hf44      1.0  0.55698  0.68638  0.91738  1.0000
  Hf  Hf45      1.0  0.80506  0.18205  0.40985  1.0000
  Hf  Hf46      1.0  0.80588  0.18345  0.91981  1.0000
  Hf  Hf47      1.0  0.81053  0.69058  0.40817  1.0000
  Hf  Hf48      1.0  0.80657  0.69522  0.91060  1.0000
  Hf  Hf49      1.0  0.15681  0.38403  0.34297  1.0000
  Hf  Hf50      1.0  0.15690  0.38888  0.84378  1.0000
  Hf  Hf51      1.0  0.15844  0.88783  0.32840  1.0000
  Hf  Hf52      1.0  0.16338  0.89417  0.83376  1.0000
  Hf  Hf53      1.0  0.41194  0.38669  0.33194  1.0000
  Hf  Hf54      1.0  0.41039  0.38675  0.83709  1.0000
  Hf  Hf55      1.0  0.39997  0.88921  0.34174  1.0000
  Hf  Hf56      1.0  0.40908  0.88624  0.83408  1.0000
  Hf  Hf57      1.0  0.65805  0.39119  0.32747  1.0000
  Hf  Hf58      1.0  0.66082  0.39390  0.82364  1.0000
  Hf  Hf59      1.0  0.65598  0.88407  0.33804  1.0000
  Hf  Hf60      1.0  0.66092  0.88729  0.83165  1.0000
  Hf  Hf61      1.0  0.90784  0.39022  0.33283  1.0000
  Hf  Hf62      1.0  0.91021  0.39435  0.83170  1.0000
  Hf  Hf63      1.0  0.91230  0.88699  0.33420  1.0000
  Hf  Hf64      1.0  0.91071  0.89401  0.82582  1.0000
  Hf  Hf65      1.0  0.19230  0.31956  0.08608  1.0000
  Hf  Hf66      1.0  0.19204  0.30882  0.58555  1.0000
  Hf  Hf67      1.0  0.20083  0.82536  0.07487  1.0000
  Hf  Hf68      1.0  0.19472  0.80885  0.59000  1.0000
  Hf  Hf69      1.0  0.44440  0.30659  0.09058  1.0000
  Hf  Hf70      1.0  0.44730  0.31102  0.58680  1.0000
  Hf  Hf71      1.0  0.44282  0.80374  0.09543  1.0000
  Hf  Hf72      1.0  0.44774  0.82651  0.57707  1.0000
  Hf  Hf73      1.0  0.69135  0.31650  0.08010  1.0000
  Hf  Hf74      1.0  0.69697  0.31728  0.57749  1.0000
  Hf  Hf75      1.0  0.68945  0.81597  0.08558  1.0000
  Hf  Hf76      1.0  0.69533  0.82530  0.57284  1.0000
  Hf  Hf77      1.0  0.94258  0.31849  0.08572  1.0000
  Hf  Hf78      1.0  0.94636  0.32812  0.57566  1.0000
  Hf  Hf79      1.0  0.94372  0.82170  0.08456  1.0000
  Hf  Hf80      1.0  0.94277  0.81435  0.58911  1.0000
  Hf  Hf81      1.0  0.08895  0.11488  0.17518  1.0000
  Hf  Hf82      1.0  0.09091  0.11058  0.66423  1.0000
  Hf  Hf83      1.0  0.08811  0.61292  0.16630  1.0000
  Hf  Hf84      1.0  0.08872  0.60806  0.67099  1.0000
  Hf  Hf85      1.0  0.34017  0.10662  0.16775  1.0000
  Hf  Hf86      1.0  0.34596  0.11568  0.66122  1.0000
  Hf  Hf87      1.0  0.33803  0.60481  0.17706  1.0000
  Hf  Hf88      1.0  0.33913  0.60737  0.67339  1.0000
  Hf  Hf89      1.0  0.59020  0.11307  0.16331  1.0000
  Hf  Hf90      1.0  0.59153  0.11064  0.66881  1.0000
  Hf  Hf91      1.0  0.58785  0.60810  0.16617  1.0000
  Hf  Hf92      1.0  0.58991  0.61449  0.65913  1.0000
  Hf  Hf93      1.0  0.84200  0.11463  0.16497  1.0000
  Hf  Hf94      1.0  0.84309  0.11165  0.65952  1.0000
  Hf  Hf95      1.0  0.84290  0.61747  0.15597  1.0000
  Hf  Hf96      1.0  0.84380  0.61160  0.65836  1.0000
  F   F1        1.0  0.08165  0.11827  0.31437  1.0000
  F   F2        1.0  0.07053  0.12586  0.80654  1.0000
  F   F3        1.0  0.06964  0.63290  0.30658  1.0000
  F   F4        1.0  0.07712  0.60684  0.81628  1.0000
  F   F5        1.0  0.33806  0.13121  0.29797  1.0000
  F   F6        1.0  0.33114  0.13476  0.80664  1.0000
  F   F7        1.0  0.32789  0.62308  0.30880  1.0000
  F   F8        1.0  0.33595  0.63191  0.80718  1.0000
  F   F9        1.0  0.57917  0.12814  0.30223  1.0000
  F   F10       1.0  0.58047  0.12786  0.80126  1.0000
  F   F11       1.0  0.58055  0.62208  0.30797  1.0000
  F   F12       1.0  0.57235  0.62566  0.80020  1.0000
  F   F13       1.0  0.82628  0.13082  0.29696  1.0000
  F   F14       1.0  0.82815  0.13563  0.79779  1.0000
  F   F15       1.0  0.82909  0.62930  0.30403  1.0000
  F   F16       1.0  0.83538  0.66053  0.77635  1.0000
  F   F17       1.0  0.19013  0.33346  0.44804  1.0000
  F   F18       1.0  0.17991  0.34096  0.95934  1.0000
  F   F19       1.0  0.18441  0.82518  0.45021  1.0000
  F   F20       1.0  0.18956  0.84896  0.94415  1.0000
  F   F21       1.0  0.44021  0.32862  0.44926  1.0000
  F   F22       1.0  0.44571  0.33800  0.95002  1.0000
  F   F23       1.0  0.43476  0.85173  0.44950  1.0000
  F   F24       1.0  0.42930  0.83275  0.94790  1.0000
  F   F25       1.0  0.68309  0.35170  0.44542  1.0000
  F   F26       1.0  0.67940  0.34191  0.94812  1.0000
  F   F27       1.0  0.68297  0.84394  0.44951  1.0000
  F   F28       1.0  0.69076  0.85250  0.93884  1.0000
  F   F29       1.0  0.94077  0.34514  0.43641  1.0000
  F   F30       1.0  0.92786  0.31895  0.96688  1.0000
  F   F31       1.0  0.94590  0.85967  0.42967  1.0000
  F   F32       1.0  0.94366  0.84367  0.92664  1.0000
  F   F33       1.0  0.16667  0.35837  0.21152  1.0000
  F   F34       1.0  0.16642  0.33625  0.71067  1.0000
  F   F35       1.0  0.17727  0.89346  0.17798  1.0000
  F   F36       1.0  0.17088  0.86769  0.70468  1.0000
  F   F37       1.0  0.42260  0.38641  0.18306  1.0000
  F   F38       1.0  0.42480  0.37608  0.69419  1.0000
  F   F39       1.0  0.41583  0.86678  0.19400  1.0000
  F   F40       1.0  0.42658  0.87795  0.69718  1.0000
  F   F41       1.0  0.67099  0.37278  0.18623  1.0000
  F   F42       1.0  0.67823  0.39036  0.68039  1.0000
  F   F43       1.0  0.66495  0.86013  0.20686  1.0000
  F   F44       1.0  0.66805  0.86553  0.70891  1.0000
  F   F45       1.0  0.92021  0.37384  0.19066  1.0000
  F   F46       1.0  0.91927  0.38399  0.69062  1.0000
  F   F47       1.0  0.91892  0.88702  0.19108  1.0000
  F   F48       1.0  0.92024  0.85517  0.70915  1.0000
  F   F49       1.0  0.06608  0.15601  0.05353  1.0000
  F   F50       1.0  0.06364  0.14374  0.56426  1.0000
  F   F51       1.0  0.06820  0.65729  0.05144  1.0000
  F   F52       1.0  0.06616  0.65633  0.54891  1.0000
  F   F53       1.0  0.30583  0.15212  0.06978  1.0000
  F   F54       1.0  0.32169  0.16745  0.54453  1.0000
  F   F55       1.0  0.30982  0.64346  0.05975  1.0000
  F   F56       1.0  0.31582  0.65875  0.54981  1.0000
  F   F57       1.0  0.56938  0.16020  0.04329  1.0000
  F   F58       1.0  0.57356  0.16200  0.54249  1.0000
  F   F59       1.0  0.57186  0.68022  0.03988  1.0000
  F   F60       1.0  0.55999  0.65314  0.55835  1.0000
  F   F61       1.0  0.80440  0.14574  0.06668  1.0000
  F   F62       1.0  0.81028  0.15932  0.54885  1.0000
  F   F63       1.0  0.81767  0.66664  0.04787  1.0000
  F   F64       1.0  0.81663  0.66665  0.54909  1.0000
  F   F65       1.0  0.20753  0.19781  0.21316  1.0000
  F   F66       1.0  0.21265  0.19435  0.70822  1.0000
  F   F67       1.0  0.20146  0.70241  0.19908  1.0000
  F   F68       1.0  0.20834  0.70174  0.71245  1.0000
  F   F69       1.0  0.44933  0.19477  0.21188  1.0000
  F   F70       1.0  0.44596  0.20062  0.72466  1.0000
  F   F71       1.0  0.45618  0.70502  0.22577  1.0000
  F   F72       1.0  0.44439  0.70494  0.70004  1.0000
  F   F73       1.0  0.70780  0.21184  0.21292  1.0000
  F   F74       1.0  0.70448  0.19889  0.70654  1.0000
  F   F75       1.0  0.69188  0.69762  0.20997  1.0000
  F   F76       1.0  0.70711  0.71119  0.72255  1.0000
  F   F77       1.0  0.96439  0.20120  0.20443  1.0000
  F   F78       1.0  0.94109  0.20725  0.70495  1.0000
  F   F79       1.0  0.95203  0.71610  0.21172  1.0000
  F   F80       1.0  0.95576  0.69259  0.71131  1.0000
  F   F81       1.0  0.14705  0.08688  0.03120  1.0000
  F   F82       1.0  0.15150  0.09536  0.53836  1.0000
  F   F83       1.0  0.14694  0.58732  0.02997  1.0000
  F   F84       1.0  0.14698  0.60017  0.54345  1.0000
  F   F85       1.0  0.40714  0.08249  0.04537  1.0000
  F   F86       1.0  0.40403  0.10401  0.53485  1.0000
  F   F87       1.0  0.39498  0.59456  0.04780  1.0000
  F   F88       1.0  0.39993  0.57107  0.54199  1.0000
  F   F89       1.0  0.65118  0.09658  0.04837  1.0000
  F   F90       1.0  0.65074  0.09225  0.53538  1.0000
  F   F91       1.0  0.64789  0.58993  0.03805  1.0000
  F   F92       1.0  0.65032  0.59539  0.53407  1.0000
  F   F93       1.0  0.89305  0.10152  0.03400  1.0000
  F   F94       1.0  0.89777  0.10492  0.51973  1.0000
  F   F95       1.0  0.90305  0.58004  0.02715  1.0000
  F   F96       1.0  0.89535  0.58333  0.53561  1.0000
  F   F97       1.0  0.14949  0.19991  0.12674  1.0000
  F   F98       1.0  0.14818  0.19923  0.63485  1.0000
  F   F99       1.0  0.14310  0.69194  0.11802  1.0000
  F   F100      1.0  0.14276  0.70171  0.63517  1.0000
  F   F101      1.0  0.39876  0.18834  0.12950  1.0000
  F   F102      1.0  0.40248  0.19410  0.63132  1.0000
  F   F103      1.0  0.40701  0.68045  0.13329  1.0000
  F   F104      1.0  0.39746  0.68406  0.61320  1.0000
  F   F105      1.0  0.65196  0.19253  0.13070  1.0000
  F   F106      1.0  0.64743  0.20107  0.61894  1.0000
  F   F107      1.0  0.64675  0.70410  0.10557  1.0000
  F   F108      1.0  0.65340  0.71182  0.62740  1.0000
  F   F109      1.0  0.90386  0.19519  0.13925  1.0000
  F   F110      1.0  0.89798  0.19221  0.61838  1.0000
  F   F111      1.0  0.90073  0.70791  0.11015  1.0000
  F   F112      1.0  0.91025  0.70612  0.59675  1.0000
  F   F113      1.0  0.09266  0.29740  0.38462  1.0000
  F   F114      1.0  0.09980  0.30638  0.88918  1.0000
  F   F115      1.0  0.10406  0.80937  0.37593  1.0000
  F   F116      1.0  0.10271  0.82098  0.88562  1.0000
  F   F117      1.0  0.35386  0.29246  0.36547  1.0000
  F   F118      1.0  0.34575  0.29589  0.87592  1.0000
  F   F119      1.0  0.33813  0.81375  0.37796  1.0000
  F   F120      1.0  0.34983  0.79891  0.88266  1.0000
  F   F121      1.0  0.59857  0.31220  0.36419  1.0000
  F   F122      1.0  0.60529  0.30842  0.86941  1.0000
  F   F123      1.0  0.59939  0.79227  0.40118  1.0000
  F   F124      1.0  0.59848  0.80249  0.86330  1.0000
  F   F125      1.0  0.85058  0.32160  0.36790  1.0000
  F   F126      1.0  0.84701  0.29832  0.88802  1.0000
  F   F127      1.0  0.85258  0.80834  0.36563  1.0000
  F   F128      1.0  0.84612  0.80959  0.87160  1.0000
  F   F129      1.0  0.05619  0.24553  0.15579  1.0000
  F   F130      1.0  0.05974  0.25676  0.64358  1.0000
  F   F131      1.0  0.06416  0.75706  0.13620  1.0000
  F   F132      1.0  0.05407  0.73871  0.65564  1.0000
  F   F133      1.0  0.31207  0.24802  0.15329  1.0000
  F   F134      1.0  0.31983  0.25262  0.64358  1.0000
  F   F135      1.0  0.31979  0.74428  0.13233  1.0000
  F   F136      1.0  0.31273  0.75003  0.65040  1.0000
  F   F137      1.0  0.56310  0.25601  0.13820  1.0000
  F   F138      1.0  0.56458  0.25242  0.64387  1.0000
  F   F139      1.0  0.55642  0.74727  0.16097  1.0000
  F   F140      1.0  0.57499  0.76101  0.62617  1.0000
  F   F141      1.0  0.82953  0.26408  0.10430  1.0000
  F   F142      1.0  0.81309  0.25141  0.63419  1.0000
  F   F143      1.0  0.80909  0.74369  0.15461  1.0000
  F   F144      1.0  0.81068  0.75639  0.63767  1.0000
  F   F145      1.0  0.12645  0.37289  0.10206  1.0000
  F   F146      1.0  0.12434  0.38152  0.59398  1.0000
  F   F147      1.0  0.13050  0.85370  0.12100  1.0000
  F   F148      1.0  0.12742  0.88484  0.59646  1.0000
  F   F149      1.0  0.37338  0.37438  0.10397  1.0000
  F   F150      1.0  0.38039  0.36861  0.60776  1.0000
  F   F151      1.0  0.37343  0.85344  0.11424  1.0000
  F   F152      1.0  0.37930  0.85869  0.61539  1.0000
  F   F153      1.0  0.61861  0.35347  0.11777  1.0000
  F   F154      1.0  0.63061  0.37646  0.60970  1.0000
  F   F155      1.0  0.61810  0.87530  0.11000  1.0000
  F   F156      1.0  0.62582  0.87865  0.60794  1.0000
  F   F157      1.0  0.87051  0.38916  0.09657  1.0000
  F   F158      1.0  0.87533  0.36970  0.60467  1.0000
  F   F159      1.0  0.87444  0.86964  0.10969  1.0000
  F   F160      1.0  0.87304  0.86126  0.62036  1.0000
  F   F161      1.0  0.18326  0.24850  0.35614  1.0000
  F   F162      1.0  0.18462  0.25088  0.87098  1.0000
  F   F163      1.0  0.19402  0.75238  0.33288  1.0000
  F   F164      1.0  0.19343  0.74087  0.86345  1.0000
  F   F165      1.0  0.44191  0.25677  0.33268  1.0000
  F   F166      1.0  0.43368  0.24886  0.87529  1.0000
  F   F167      1.0  0.42682  0.75308  0.38372  1.0000
  F   F168      1.0  0.44731  0.75410  0.83573  1.0000
  F   F169      1.0  0.68017  0.25194  0.36519  1.0000
  F   F170      1.0  0.68151  0.24330  0.86195  1.0000
  F   F171      1.0  0.68716  0.74976  0.35078  1.0000
  F   F172      1.0  0.68052  0.74957  0.87811  1.0000
  F   F173      1.0  0.93181  0.25615  0.35474  1.0000
  F   F174      1.0  0.93998  0.25176  0.84291  1.0000
  F   F175      1.0  0.93870  0.74819  0.36266  1.0000
  F   F176      1.0  0.93154  0.74487  0.86238  1.0000
  F   F177      1.0  0.12435  0.12166  0.40354  1.0000
  F   F178      1.0  0.13082  0.13685  0.87373  1.0000
  F   F179      1.0  0.12105  0.62134  0.39205  1.0000
  F   F180      1.0  0.12540  0.65960  0.87073  1.0000
  F   F181      1.0  0.37573  0.11368  0.40949  1.0000
  F   F182      1.0  0.37264  0.12215  0.90853  1.0000
  F   F183      1.0  0.37495  0.65295  0.37906  1.0000
  F   F184      1.0  0.37730  0.62575  0.90555  1.0000
  F   F185      1.0  0.62866  0.14867  0.37081  1.0000
  F   F186      1.0  0.62943  0.12135  0.89011  1.0000
  F   F187      1.0  0.62239  0.61320  0.41513  1.0000
  F   F188      1.0  0.62950  0.63131  0.88259  1.0000
  F   F189      1.0  0.87652  0.15315  0.36645  1.0000
  F   F190      1.0  0.87687  0.12435  0.89032  1.0000
  F   F191      1.0  0.87444  0.62736  0.38905  1.0000
  F   F192      1.0  0.87423  0.63546  0.88980  1.0000
  F   F193      1.0  0.00897  0.37323  0.07830  1.0000
  F   F194      1.0  0.00999  0.36139  0.57378  1.0000
  F   F195      1.0  0.00531  0.87702  0.07433  1.0000
  F   F196      1.0  0.00485  0.86651  0.56864  1.0000
  F   F197      1.0  0.25562  0.36085  0.08258  1.0000
  F   F198      1.0  0.25327  0.35896  0.58672  1.0000
  F   F199      1.0  0.26545  0.85127  0.07115  1.0000
  F   F200      1.0  0.25758  0.85247  0.58354  1.0000
  F   F201      1.0  0.50914  0.36359  0.07028  1.0000
  F   F202      1.0  0.50868  0.35883  0.57279  1.0000
  F   F203      1.0  0.50684  0.86258  0.06947  1.0000
  F   F204      1.0  0.51329  0.86135  0.57729  1.0000
  F   F205      1.0  0.75805  0.36116  0.07201  1.0000
  F   F206      1.0  0.75791  0.37808  0.56050  1.0000
  F   F207      1.0  0.75754  0.85964  0.07214  1.0000
  F   F208      1.0  0.75813  0.88437  0.55528  1.0000
  F   F209      1.0  0.06368  0.48906  0.18068  1.0000
  F   F210      1.0  0.06741  0.48462  0.67700  1.0000
  F   F211      1.0  0.07632  0.97673  0.18296  1.0000
  F   F212      1.0  0.06648  0.98333  0.68711  1.0000
  F   F213      1.0  0.31267  0.46710  0.19671  1.0000
  F   F214      1.0  0.31245  0.48434  0.68029  1.0000
  F   F215      1.0  0.32325  0.98412  0.16101  1.0000
  F   F216      1.0  0.33395  0.97940  0.66172  1.0000
  F   F217      1.0  0.56505  0.48299  0.17807  1.0000
  F   F218      1.0  0.57226  0.48070  0.67981  1.0000
  F   F219      1.0  0.55904  0.98143  0.18910  1.0000
  F   F220      1.0  0.56660  0.98771  0.68164  1.0000
  F   F221      1.0  0.81573  0.49389  0.18544  1.0000
  F   F222      1.0  0.81637  0.49744  0.66219  1.0000
  F   F223      1.0  0.82432  0.98919  0.16724  1.0000
  F   F224      1.0  0.82173  0.97905  0.66812  1.0000
  F   F225      1.0  0.24980  0.12830  0.40068  1.0000
  F   F226      1.0  0.23814  0.13806  0.93107  1.0000
  F   F227      1.0  0.23587  0.63655  0.43246  1.0000
  F   F228      1.0  0.24477  0.62971  0.94139  1.0000
  F   F229      1.0  0.49467  0.13307  0.42049  1.0000
  F   F230      1.0  0.49759  0.13599  0.92226  1.0000
  F   F231      1.0  0.49197  0.63259  0.43890  1.0000
  F   F232      1.0  0.48965  0.62895  0.94986  1.0000
  F   F233      1.0  0.74128  0.13779  0.41978  1.0000
  F   F234      1.0  0.74186  0.13057  0.92970  1.0000
  F   F235      1.0  0.74928  0.65117  0.41007  1.0000
  F   F236      1.0  0.74561  0.63422  0.92352  1.0000
  F   F237      1.0  0.99345  0.14171  0.41456  1.0000
  F   F238      1.0  0.99237  0.14323  0.92153  1.0000
  F   F239      1.0  0.99045  0.63039  0.44017  1.0000
  F   F240      1.0  0.99228  0.65976  0.91963  1.0000
  F   F241      1.0  0.17642  0.01224  0.32935  1.0000
  F   F242      1.0  0.19450  0.02246  0.79509  1.0000
  F   F243      1.0  0.17770  0.50777  0.33785  1.0000
  F   F244      1.0  0.18165  0.51614  0.82085  1.0000
  F   F245      1.0  0.41991  0.01651  0.33046  1.0000
  F   F246      1.0  0.43058  0.01405  0.83407  1.0000
  F   F247      1.0  0.42989  0.51211  0.33232  1.0000
  F   F248      1.0  0.43363  0.51907  0.80443  1.0000
  F   F249      1.0  0.68394  0.02169  0.31660  1.0000
  F   F250      1.0  0.68022  0.01108  0.83108  1.0000
  F   F251      1.0  0.67337  0.52391  0.30818  1.0000
  F   F252      1.0  0.68331  0.50988  0.82650  1.0000
  F   F253      1.0  0.93030  0.02029  0.30586  1.0000
  F   F254      1.0  0.93193  0.01465  0.81591  1.0000
  F   F255      1.0  0.93517  0.52576  0.30940  1.0000
  F   F256      1.0  0.93644  0.51495  0.81488  1.0000
  F   F257      1.0  0.00499  0.26062  0.98544  1.0000
  F   F258      1.0  0.99745  0.25121  0.50492  1.0000
  F   F259      1.0  0.00144  0.76045  0.99653  1.0000
  F   F260      1.0  0.00672  0.76262  0.48604  1.0000
  F   F261      1.0  0.25354  0.26045  0.99220  1.0000
  F   F262      1.0  0.24540  0.21848  0.50296  1.0000
  F   F263      1.0  0.25103  0.75434  0.99665  1.0000
  F   F264      1.0  0.24168  0.73436  0.51378  1.0000
  F   F265      1.0  0.50464  0.23953  0.01107  1.0000
  F   F266      1.0  0.50185  0.23159  0.51832  1.0000
  F   F267      1.0  0.50290  0.75888  0.99025  1.0000
  F   F268      1.0  0.50209  0.75674  0.49612  1.0000
  F   F269      1.0  0.74747  0.25317  0.99792  1.0000
  F   F270      1.0  0.75126  0.26230  0.48023  1.0000
  F   F271      1.0  0.74588  0.74111  0.01159  1.0000
  F   F272      1.0  0.75289  0.76759  0.47991  1.0000
  F   F273      1.0  0.11902  0.00405  0.25788  1.0000
  F   F274      1.0  0.13085  0.01306  0.74106  1.0000
  F   F275      1.0  0.12145  0.49682  0.25927  1.0000
  F   F276      1.0  0.12655  0.48900  0.74696  1.0000
  F   F277      1.0  0.36098  0.99124  0.26767  1.0000
  F   F278      1.0  0.38416  0.01341  0.73830  1.0000
  F   F279      1.0  0.36852  0.49975  0.26847  1.0000
  F   F280      1.0  0.36225  0.48236  0.76258  1.0000
  F   F281      1.0  0.61656  0.99478  0.26041  1.0000
  F   F282      1.0  0.62656  0.99871  0.75656  1.0000
  F   F283      1.0  0.61657  0.48951  0.25877  1.0000
  F   F284      1.0  0.62196  0.50996  0.75550  1.0000
  F   F285      1.0  0.87428  0.00488  0.24410  1.0000
  F   F286      1.0  0.88283  0.00479  0.73172  1.0000
  F   F287      1.0  0.87791  0.50863  0.23904  1.0000
  F   F288      1.0  0.86766  0.49038  0.75708  1.0000
  F   F289      1.0  0.04011  0.02682  0.03638  1.0000
  F   F290      1.0  0.04591  0.02695  0.52350  1.0000
  F   F291      1.0  0.03068  0.53957  0.03945  1.0000
  F   F292      1.0  0.03918  0.51648  0.52006  1.0000
  F   F293      1.0  0.29135  0.02871  0.02400  1.0000
  F   F294      1.0  0.28973  0.02032  0.53520  1.0000
  F   F295      1.0  0.29998  0.52355  0.02107  1.0000
  F   F296      1.0  0.29049  0.53082  0.52319  1.0000
  F   F297      1.0  0.53601  0.02860  0.03535  1.0000
  F   F298      1.0  0.54278  0.03192  0.52259  1.0000
  F   F299      1.0  0.54184  0.53813  0.02915  1.0000
  F   F300      1.0  0.53778  0.52050  0.54246  1.0000
  F   F301      1.0  0.79874  0.01832  0.01407  1.0000
  F   F302      1.0  0.79351  0.03937  0.50737  1.0000
  F   F303      1.0  0.79609  0.53821  0.01908  1.0000
  F   F304      1.0  0.79385  0.53383  0.52425  1.0000
  F   F305      1.0  0.23057  0.42059  0.22680  1.0000
  F   F306      1.0  0.22728  0.40608  0.73953  1.0000
  F   F307      1.0  0.23975  0.91682  0.22036  1.0000
  F   F308      1.0  0.23927  0.89791  0.73705  1.0000
  F   F309      1.0  0.48293  0.41641  0.22719  1.0000
  F   F310      1.0  0.48784  0.40030  0.73161  1.0000
  F   F311      1.0  0.47875  0.89799  0.23401  1.0000
  F   F312      1.0  0.48810  0.91771  0.72077  1.0000
  F   F313      1.0  0.73302  0.40859  0.23359  1.0000
  F   F314      1.0  0.73659  0.41236  0.72900  1.0000
  F   F315      1.0  0.73536  0.89561  0.24211  1.0000
  F   F316      1.0  0.73907  0.91390  0.71930  1.0000
  F   F317      1.0  0.98489  0.40417  0.23576  1.0000
  F   F318      1.0  0.98708  0.40381  0.73391  1.0000
  F   F319      1.0  0.98779  0.90874  0.22496  1.0000
  F   F320      1.0  0.98639  0.89863  0.71555  1.0000
  F   F321      1.0  0.20437  0.46064  0.48186  1.0000
  F   F322      1.0  0.21052  0.46542  0.98554  1.0000
  F   F323      1.0  0.20505  0.96056  0.48486  1.0000
  F   F324      1.0  0.21471  0.97299  0.96471  1.0000
  F   F325      1.0  0.46076  0.46767  0.47841  1.0000
  F   F326      1.0  0.45280  0.47887  0.97669  1.0000
  F   F327      1.0  0.46339  0.97630  0.46510  1.0000
  F   F328      1.0  0.45592  0.96476  0.97428  1.0000
  F   F329      1.0  0.70295  0.47954  0.47004  1.0000
  F   F330      1.0  0.70109  0.47252  0.98283  1.0000
  F   F331      1.0  0.70755  0.96717  0.47115  1.0000
  F   F332      1.0  0.70766  0.97327  0.98126  1.0000
  F   F333      1.0  0.95635  0.47039  0.47896  1.0000
  F   F334      1.0  0.95838  0.46558  0.96732  1.0000
  F   F335      1.0  0.94870  0.98304  0.48260  1.0000
  F   F336      1.0  0.94896  0.97715  0.97577  1.0000
  F   F337      1.0  0.01121  0.05999  0.29318  1.0000
  F   F338      1.0  0.01263  0.09455  0.75409  1.0000
  F   F339      1.0  0.01198  0.58988  0.28119  1.0000
  F   F340      1.0  0.01456  0.58113  0.78141  1.0000
  F   F341      1.0  0.26803  0.06385  0.27971  1.0000
  F   F342      1.0  0.27119  0.07039  0.76771  1.0000
  F   F343      1.0  0.26105  0.59245  0.27552  1.0000
  F   F344      1.0  0.26583  0.58607  0.78997  1.0000
  F   F345      1.0  0.51108  0.09105  0.26532  1.0000
  F   F346      1.0  0.51661  0.08033  0.77042  1.0000
  F   F347      1.0  0.51816  0.59040  0.27591  1.0000
  F   F348      1.0  0.51144  0.60940  0.75724  1.0000
  F   F349      1.0  0.76282  0.08385  0.26955  1.0000
  F   F350      1.0  0.76512  0.08842  0.76395  1.0000
  F   F351      1.0  0.75748  0.58415  0.27757  1.0000
  F   F352      1.0  0.77117  0.59043  0.77962  1.0000
  F   F353      1.0  0.09872  0.39034  0.45967  1.0000
  F   F354      1.0  0.09266  0.42397  0.97103  1.0000
  F   F355      1.0  0.09799  0.90675  0.46856  1.0000
  F   F356      1.0  0.11062  0.91995  0.96455  1.0000
  F   F357      1.0  0.35377  0.40069  0.46632  1.0000
  F   F358      1.0  0.34941  0.39795  0.96524  1.0000
  F   F359      1.0  0.35258  0.89458  0.48005  1.0000
  F   F360      1.0  0.35097  0.91278  0.96209  1.0000
  F   F361      1.0  0.60092  0.42103  0.46723  1.0000
  F   F362      1.0  0.60182  0.41654  0.95696  1.0000
  F   F363      1.0  0.59977  0.91792  0.46447  1.0000
  F   F364      1.0  0.59438  0.91063  0.95927  1.0000
  F   F365      1.0  0.85322  0.41949  0.45161  1.0000
  F   F366      1.0  0.85516  0.43313  0.94153  1.0000
  F   F367      1.0  0.85505  0.91070  0.46018  1.0000
  F   F368      1.0  0.85543  0.89120  0.97044  1.0000
  F   F369      1.0  0.05237  0.29796  0.28978  1.0000
  F   F370      1.0  0.05385  0.29877  0.78393  1.0000
  F   F371      1.0  0.05474  0.80270  0.28966  1.0000
  F   F372      1.0  0.05541  0.80715  0.78495  1.0000
  F   F373      1.0  0.29969  0.29270  0.28568  1.0000
  F   F374      1.0  0.29348  0.30492  0.79508  1.0000
  F   F375      1.0  0.28888  0.78066  0.29489  1.0000
  F   F376      1.0  0.30412  0.79509  0.78284  1.0000
  F   F377      1.0  0.54021  0.29438  0.28973  1.0000
  F   F378      1.0  0.55406  0.29649  0.78760  1.0000
  F   F379      1.0  0.54688  0.79033  0.30069  1.0000
  F   F380      1.0  0.54539  0.78908  0.78874  1.0000
  F   F381      1.0  0.79840  0.30136  0.26966  1.0000
  F   F382      1.0  0.79897  0.30125  0.79245  1.0000
  F   F383      1.0  0.80308  0.80127  0.28139  1.0000
  F   F384      1.0  0.79399  0.80553  0.79396  1.0000
