data_image0
_chemical_formula_structural       Hf96F384
_chemical_formula_sum              "Hf96 F384"
_cell_length_a       31.0241
_cell_length_b       15.5107
_cell_length_c       15.5039
_cell_angle_alpha    63.342
_cell_angle_beta     63.342
_cell_angle_gamma    80.1625

_space_group_name_H-M_alt    "P 1"
_space_group_IT_number       1

loop_
  _space_group_symop_operation_xyz
  'x, y, z'

loop_
  _atom_site_type_symbol
  _atom_site_label
  _atom_site_symmetry_multiplicity
  _atom_site_fract_x
  _atom_site_fract_y
  _atom_site_fract_z
  _atom_site_occupancy
  Hf  Hf1       1.0  0.19352  0.11158  0.37719  1.0000
  Hf  Hf2       1.0  0.19841  0.10893  0.86150  1.0000
  Hf  Hf3       1.0  0.19725  0.60550  0.37035  1.0000
  Hf  Hf4       1.0  0.19570  0.61244  0.87559  1.0000
  Hf  Hf5       1.0  0.44617  0.10744  0.37593  1.0000
  Hf  Hf6       1.0  0.44450  0.10974  0.86979  1.0000
  Hf  Hf7       1.0  0.44426  0.60645  0.38133  1.0000
  Hf  Hf8       1.0  0.44712  0.60482  0.87767  1.0000
  Hf  Hf9       1.0  0.69136  0.10192  0.38411  1.0000
  Hf  Hf10      1.0  0.69250  0.10378  0.88080  1.0000
  Hf  Hf11      1.0  0.69364  0.59921  0.38253  1.0000
  Hf  Hf12      1.0  0.70135  0.61154  0.86063  1.0000
  Hf  Hf13      1.0  0.94576  0.11687  0.36714  1.0000
  Hf  Hf14      1.0  0.94522  0.10405  0.88071  1.0000
  Hf  Hf15      1.0  0.94929  0.60478  0.37920  1.0000
  Hf  Hf16      1.0  0.94656  0.61100  0.86957  1.0000
  Hf  Hf17      1.0  0.05159  0.39215  0.12705  1.0000
  Hf  Hf18      1.0  0.05605  0.39603  0.61981  1.0000
  Hf  Hf19      1.0  0.05376  0.89563  0.12879  1.0000
  Hf  Hf20      1.0  0.05561  0.89637  0.62269  1.0000
  Hf  Hf21      1.0  0.30461  0.39194  0.12680  1.0000
  Hf  Hf22      1.0  0.30253  0.38473  0.62755  1.0000
  Hf  Hf23      1.0  0.30385  0.90227  0.11463  1.0000
  Hf  Hf24      1.0  0.30317  0.89040  0.62623  1.0000
  Hf  Hf25      1.0  0.55556  0.39646  0.12361  1.0000
  Hf  Hf26      1.0  0.55510  0.39329  0.61506  1.0000
  Hf  Hf27      1.0  0.55407  0.88975  0.12416  1.0000
  Hf  Hf28      1.0  0.55205  0.88523  0.63271  1.0000
  Hf  Hf29      1.0  0.80102  0.38867  0.13593  1.0000
  Hf  Hf30      1.0  0.80712  0.39287  0.62091  1.0000
  Hf  Hf31      1.0  0.80472  0.89161  0.12827  1.0000
  Hf  Hf32      1.0  0.80053  0.89165  0.62605  1.0000
  Hf  Hf33      1.0  0.05625  0.18184  0.42256  1.0000
  Hf  Hf34      1.0  0.05629  0.18559  0.91442  1.0000
  Hf  Hf35      1.0  0.05657  0.68701  0.41512  1.0000
  Hf  Hf36      1.0  0.05617  0.68710  0.91247  1.0000
  Hf  Hf37      1.0  0.30831  0.18202  0.41523  1.0000
  Hf  Hf38      1.0  0.30947  0.18188  0.91233  1.0000
  Hf  Hf39      1.0  0.30370  0.67430  0.41643  1.0000
  Hf  Hf40      1.0  0.30769  0.67723  0.91886  1.0000
  Hf  Hf41      1.0  0.55480  0.18450  0.41518  1.0000
  Hf  Hf42      1.0  0.55556  0.18639  0.91801  1.0000
  Hf  Hf43      1.0  0.55202  0.68231  0.42451  1.0000
  Hf  Hf44      1.0  0.55765  0.68063  0.92170  1.0000
  Hf  Hf45      1.0  0.80375  0.18164  0.41482  1.0000
  Hf  Hf46      1.0  0.80556  0.17621  0.92201  1.0000
  Hf  Hf47      1.0  0.80627  0.67849  0.41795  1.0000
  Hf  Hf48      1.0  0.80592  0.68526  0.91210  1.0000
  Hf  Hf49      1.0  0.15844  0.39769  0.32528  1.0000
  Hf  Hf50      1.0  0.16121  0.38251  0.82681  1.0000
  Hf  Hf51      1.0  0.16004  0.89553  0.32970  1.0000
  Hf  Hf52      1.0  0.15687  0.89578  0.83301  1.0000
  Hf  Hf53      1.0  0.40914  0.39359  0.33236  1.0000
  Hf  Hf54      1.0  0.41267  0.38965  0.82752  1.0000
  Hf  Hf55      1.0  0.40633  0.88469  0.33616  1.0000
  Hf  Hf56      1.0  0.40928  0.88420  0.83146  1.0000
  Hf  Hf57      1.0  0.65559  0.38021  0.34422  1.0000
  Hf  Hf58      1.0  0.66042  0.38349  0.82892  1.0000
  Hf  Hf59      1.0  0.65746  0.88785  0.33567  1.0000
  Hf  Hf60      1.0  0.65700  0.88946  0.83802  1.0000
  Hf  Hf61      1.0  0.91260  0.38916  0.33169  1.0000
  Hf  Hf62      1.0  0.91086  0.38859  0.83261  1.0000
  Hf  Hf63      1.0  0.90921  0.88443  0.33860  1.0000
  Hf  Hf64      1.0  0.91025  0.89792  0.83162  1.0000
  Hf  Hf65      1.0  0.19589  0.31720  0.08250  1.0000
  Hf  Hf66      1.0  0.19573  0.31830  0.57559  1.0000
  Hf  Hf67      1.0  0.19438  0.81945  0.07551  1.0000
  Hf  Hf68      1.0  0.19203  0.82091  0.58630  1.0000
  Hf  Hf69      1.0  0.44103  0.31229  0.09503  1.0000
  Hf  Hf70      1.0  0.44481  0.31529  0.58523  1.0000
  Hf  Hf71      1.0  0.44605  0.82606  0.07914  1.0000
  Hf  Hf72      1.0  0.44265  0.81191  0.58654  1.0000
  Hf  Hf73      1.0  0.69354  0.31416  0.08614  1.0000
  Hf  Hf74      1.0  0.69366  0.31174  0.58635  1.0000
  Hf  Hf75      1.0  0.69497  0.81601  0.08411  1.0000
  Hf  Hf76      1.0  0.69202  0.82229  0.58786  1.0000
  Hf  Hf77      1.0  0.94726  0.32442  0.06861  1.0000
  Hf  Hf78      1.0  0.94513  0.30934  0.59015  1.0000
  Hf  Hf79      1.0  0.94480  0.81575  0.08301  1.0000
  Hf  Hf80      1.0  0.94453  0.82732  0.58339  1.0000
  Hf  Hf81      1.0  0.09234  0.11611  0.16711  1.0000
  Hf  Hf82      1.0  0.09220  0.11348  0.66555  1.0000
  Hf  Hf83      1.0  0.09181  0.61942  0.15733  1.0000
  Hf  Hf84      1.0  0.09030  0.61257  0.66734  1.0000
  Hf  Hf85      1.0  0.34223  0.10843  0.16443  1.0000
  Hf  Hf86      1.0  0.34575  0.10712  0.66227  1.0000
  Hf  Hf87      1.0  0.34630  0.61564  0.15391  1.0000
  Hf  Hf88      1.0  0.33968  0.60940  0.66406  1.0000
  Hf  Hf89      1.0  0.58878  0.10933  0.17079  1.0000
  Hf  Hf90      1.0  0.58765  0.10952  0.66859  1.0000
  Hf  Hf91      1.0  0.58659  0.60908  0.17959  1.0000
  Hf  Hf92      1.0  0.58967  0.61454  0.67155  1.0000
  Hf  Hf93      1.0  0.84298  0.11069  0.16790  1.0000
  Hf  Hf94      1.0  0.83621  0.10949  0.67571  1.0000
  Hf  Hf95      1.0  0.84034  0.60720  0.17359  1.0000
  Hf  Hf96      1.0  0.84771  0.61948  0.65577  1.0000
  F   F1        1.0  0.07623  0.12890  0.31135  1.0000
  F   F2        1.0  0.07618  0.13223  0.79576  1.0000
  F   F3        1.0  0.07959  0.62763  0.30227  1.0000
  F   F4        1.0  0.08091  0.63631  0.78995  1.0000
  F   F5        1.0  0.32642  0.13533  0.29948  1.0000
  F   F6        1.0  0.32951  0.13159  0.79864  1.0000
  F   F7        1.0  0.32918  0.62568  0.30361  1.0000
  F   F8        1.0  0.32665  0.61159  0.81220  1.0000
  F   F9        1.0  0.57646  0.10628  0.31773  1.0000
  F   F10       1.0  0.57796  0.13091  0.79722  1.0000
  F   F11       1.0  0.57009  0.62418  0.31750  1.0000
  F   F12       1.0  0.58298  0.62296  0.79984  1.0000
  F   F13       1.0  0.83043  0.12048  0.30718  1.0000
  F   F14       1.0  0.82243  0.11733  0.81481  1.0000
  F   F15       1.0  0.83136  0.62931  0.29942  1.0000
  F   F16       1.0  0.82689  0.63050  0.80054  1.0000
  F   F17       1.0  0.18791  0.34236  0.44073  1.0000
  F   F18       1.0  0.18711  0.34496  0.94510  1.0000
  F   F19       1.0  0.18176  0.83336  0.44709  1.0000
  F   F20       1.0  0.18573  0.84113  0.94225  1.0000
  F   F21       1.0  0.43919  0.34655  0.44219  1.0000
  F   F22       1.0  0.43497  0.33450  0.94938  1.0000
  F   F23       1.0  0.42409  0.82571  0.46349  1.0000
  F   F24       1.0  0.43442  0.84432  0.94787  1.0000
  F   F25       1.0  0.67791  0.33378  0.46119  1.0000
  F   F26       1.0  0.68196  0.32800  0.95772  1.0000
  F   F27       1.0  0.69202  0.85215  0.43678  1.0000
  F   F28       1.0  0.67681  0.82570  0.96490  1.0000
  F   F29       1.0  0.93423  0.32983  0.45513  1.0000
  F   F30       1.0  0.94328  0.34170  0.93258  1.0000
  F   F31       1.0  0.93120  0.84524  0.45123  1.0000
  F   F32       1.0  0.94280  0.85391  0.93870  1.0000
  F   F33       1.0  0.17278  0.37408  0.19369  1.0000
  F   F34       1.0  0.17071  0.37120  0.68769  1.0000
  F   F35       1.0  0.16551  0.86177  0.20122  1.0000
  F   F36       1.0  0.17180  0.88695  0.68993  1.0000
  F   F37       1.0  0.42012  0.37246  0.19282  1.0000
  F   F38       1.0  0.42529  0.37839  0.69276  1.0000
  F   F39       1.0  0.42664  0.87743  0.18867  1.0000
  F   F40       1.0  0.41780  0.86603  0.70339  1.0000
  F   F41       1.0  0.66366  0.36248  0.21497  1.0000
  F   F42       1.0  0.66994  0.36053  0.70222  1.0000
  F   F43       1.0  0.67128  0.86477  0.19803  1.0000
  F   F44       1.0  0.66791  0.86781  0.70162  1.0000
  F   F45       1.0  0.92316  0.38179  0.18448  1.0000
  F   F46       1.0  0.92237  0.36568  0.70754  1.0000
  F   F47       1.0  0.92116  0.86543  0.19950  1.0000
  F   F48       1.0  0.91758  0.87773  0.70603  1.0000
  F   F49       1.0  0.06082  0.15920  0.05900  1.0000
  F   F50       1.0  0.06226  0.15304  0.56070  1.0000
  F   F51       1.0  0.06130  0.66218  0.05286  1.0000
  F   F52       1.0  0.06009  0.66135  0.55059  1.0000
  F   F53       1.0  0.31805  0.15671  0.04077  1.0000
  F   F54       1.0  0.32170  0.16671  0.53711  1.0000
  F   F55       1.0  0.32721  0.66797  0.03273  1.0000
  F   F56       1.0  0.30340  0.64803  0.57051  1.0000
  F   F57       1.0  0.56234  0.15734  0.05664  1.0000
  F   F58       1.0  0.55733  0.14950  0.56458  1.0000
  F   F59       1.0  0.55198  0.65113  0.07431  1.0000
  F   F60       1.0  0.55905  0.66006  0.56076  1.0000
  F   F61       1.0  0.81340  0.15043  0.05784  1.0000
  F   F62       1.0  0.81399  0.14794  0.54635  1.0000
  F   F63       1.0  0.82395  0.66892  0.04316  1.0000
  F   F64       1.0  0.81365  0.66905  0.55351  1.0000
  F   F65       1.0  0.20150  0.19931  0.21534  1.0000
  F   F66       1.0  0.19782  0.20294  0.71354  1.0000
  F   F67       1.0  0.20327  0.69952  0.19178  1.0000
  F   F68       1.0  0.19181  0.70548  0.72081  1.0000
  F   F69       1.0  0.45262  0.19705  0.22006  1.0000
  F   F70       1.0  0.44979  0.20821  0.71939  1.0000
  F   F71       1.0  0.45151  0.70181  0.21083  1.0000
  F   F72       1.0  0.45736  0.69761  0.72421  1.0000
  F   F73       1.0  0.70884  0.20234  0.21411  1.0000
  F   F74       1.0  0.70076  0.19806  0.71179  1.0000
  F   F75       1.0  0.70847  0.70011  0.22476  1.0000
  F   F76       1.0  0.69597  0.70010  0.71766  1.0000
  F   F77       1.0  0.95796  0.21302  0.19435  1.0000
  F   F78       1.0  0.95963  0.20769  0.71197  1.0000
  F   F79       1.0  0.95435  0.70095  0.21252  1.0000
  F   F80       1.0  0.96332  0.72225  0.70245  1.0000
  F   F81       1.0  0.14724  0.08864  0.05537  1.0000
  F   F82       1.0  0.15374  0.09704  0.53308  1.0000
  F   F83       1.0  0.14713  0.59365  0.03254  1.0000
  F   F84       1.0  0.14795  0.59908  0.52147  1.0000
  F   F85       1.0  0.39890  0.09805  0.03653  1.0000
  F   F86       1.0  0.40343  0.09187  0.52715  1.0000
  F   F87       1.0  0.40422  0.57905  0.03441  1.0000
  F   F88       1.0  0.39871  0.59334  0.53736  1.0000
  F   F89       1.0  0.64814  0.09294  0.03938  1.0000
  F   F90       1.0  0.64214  0.08155  0.54071  1.0000
  F   F91       1.0  0.64584  0.60953  0.05382  1.0000
  F   F92       1.0  0.65119  0.59197  0.53386  1.0000
  F   F93       1.0  0.89451  0.07879  0.03891  1.0000
  F   F94       1.0  0.89478  0.09675  0.53694  1.0000
  F   F95       1.0  0.90314  0.57712  0.03129  1.0000
  F   F96       1.0  0.90763  0.60694  0.53623  1.0000
  F   F97       1.0  0.14938  0.20370  0.13433  1.0000
  F   F98       1.0  0.14786  0.20380  0.63439  1.0000
  F   F99       1.0  0.15090  0.70655  0.09790  1.0000
  F   F100      1.0  0.15234  0.69367  0.61219  1.0000
  F   F101      1.0  0.40586  0.19425  0.13024  1.0000
  F   F102      1.0  0.40426  0.19504  0.61695  1.0000
  F   F103      1.0  0.40491  0.69297  0.11408  1.0000
  F   F104      1.0  0.40403  0.69174  0.64100  1.0000
  F   F105      1.0  0.65213  0.18524  0.13611  1.0000
  F   F106      1.0  0.64832  0.19472  0.62194  1.0000
  F   F107      1.0  0.64780  0.69828  0.15654  1.0000
  F   F108      1.0  0.64602  0.71014  0.61247  1.0000
  F   F109      1.0  0.90263  0.20488  0.10268  1.0000
  F   F110      1.0  0.90330  0.18801  0.63626  1.0000
  F   F111      1.0  0.90159  0.71057  0.11800  1.0000
  F   F112      1.0  0.90021  0.70943  0.63986  1.0000
  F   F113      1.0  0.09720  0.29784  0.37381  1.0000
  F   F114      1.0  0.10130  0.30204  0.86408  1.0000
  F   F115      1.0  0.10057  0.80594  0.39430  1.0000
  F   F116      1.0  0.09934  0.80796  0.86690  1.0000
  F   F117      1.0  0.34869  0.31271  0.35728  1.0000
  F   F118      1.0  0.34549  0.29440  0.87201  1.0000
  F   F119      1.0  0.34876  0.80079  0.37724  1.0000
  F   F120      1.0  0.34506  0.80631  0.87526  1.0000
  F   F121      1.0  0.59401  0.30928  0.38326  1.0000
  F   F122      1.0  0.59839  0.30921  0.87371  1.0000
  F   F123      1.0  0.59896  0.79172  0.36779  1.0000
  F   F124      1.0  0.60401  0.78749  0.89122  1.0000
  F   F125      1.0  0.85153  0.31154  0.39041  1.0000
  F   F126      1.0  0.84851  0.30364  0.87608  1.0000
  F   F127      1.0  0.85185  0.79015  0.36899  1.0000
  F   F128      1.0  0.83853  0.80793  0.87605  1.0000
  F   F129      1.0  0.06629  0.25382  0.13412  1.0000
  F   F130      1.0  0.06931  0.25619  0.62551  1.0000
  F   F131      1.0  0.06257  0.75345  0.14768  1.0000
  F   F132      1.0  0.06501  0.75927  0.63718  1.0000
  F   F133      1.0  0.32262  0.25101  0.13338  1.0000
  F   F134      1.0  0.32219  0.25162  0.63428  1.0000
  F   F135      1.0  0.32201  0.75888  0.12967  1.0000
  F   F136      1.0  0.32609  0.75685  0.61423  1.0000
  F   F137      1.0  0.57197  0.25544  0.13359  1.0000
  F   F138      1.0  0.56182  0.25405  0.63565  1.0000
  F   F139      1.0  0.56325  0.74618  0.13946  1.0000
  F   F140      1.0  0.55717  0.74457  0.66127  1.0000
  F   F141      1.0  0.81051  0.25053  0.14399  1.0000
  F   F142      1.0  0.81716  0.24472  0.63748  1.0000
  F   F143      1.0  0.81110  0.74811  0.15651  1.0000
  F   F144      1.0  0.81632  0.75809  0.64164  1.0000
  F   F145      1.0  0.12234  0.37676  0.11028  1.0000
  F   F146      1.0  0.12728  0.38530  0.59578  1.0000
  F   F147      1.0  0.12980  0.88258  0.08552  1.0000
  F   F148      1.0  0.12234  0.85393  0.62649  1.0000
  F   F149      1.0  0.37528  0.37846  0.10196  1.0000
  F   F150      1.0  0.37564  0.36916  0.60889  1.0000
  F   F151      1.0  0.37446  0.87280  0.11201  1.0000
  F   F152      1.0  0.37517  0.88843  0.59575  1.0000
  F   F153      1.0  0.62407  0.35713  0.11134  1.0000
  F   F154      1.0  0.62295  0.35902  0.61485  1.0000
  F   F155      1.0  0.62351  0.88050  0.10050  1.0000
  F   F156      1.0  0.62454  0.87733  0.60264  1.0000
  F   F157      1.0  0.87068  0.35484  0.12038  1.0000
  F   F158      1.0  0.87523  0.33896  0.62051  1.0000
  F   F159      1.0  0.87878  0.88163  0.10070  1.0000
  F   F160      1.0  0.87342  0.88730  0.61080  1.0000
  F   F161      1.0  0.18547  0.26268  0.34636  1.0000
  F   F162      1.0  0.18891  0.24486  0.84961  1.0000
  F   F163      1.0  0.19438  0.74848  0.33125  1.0000
  F   F164      1.0  0.18139  0.74856  0.85339  1.0000
  F   F165      1.0  0.43601  0.25362  0.36042  1.0000
  F   F166      1.0  0.42302  0.24815  0.86223  1.0000
  F   F167      1.0  0.42971  0.74374  0.35009  1.0000
  F   F168      1.0  0.42605  0.73992  0.88046  1.0000
  F   F169      1.0  0.68309  0.24268  0.36535  1.0000
  F   F170      1.0  0.68474  0.23755  0.85581  1.0000
  F   F171      1.0  0.67723  0.75025  0.37240  1.0000
  F   F172      1.0  0.69114  0.74338  0.85140  1.0000
  F   F173      1.0  0.94142  0.25732  0.34821  1.0000
  F   F174      1.0  0.93319  0.24073  0.86449  1.0000
  F   F175      1.0  0.93801  0.74583  0.36642  1.0000
  F   F176      1.0  0.92245  0.75306  0.87708  1.0000
  F   F177      1.0  0.12514  0.12624  0.39903  1.0000
  F   F178      1.0  0.12481  0.13047  0.89527  1.0000
  F   F179      1.0  0.12641  0.65860  0.37630  1.0000
  F   F180      1.0  0.12348  0.62919  0.88987  1.0000
  F   F181      1.0  0.37471  0.11416  0.40403  1.0000
  F   F182      1.0  0.37725  0.11856  0.88590  1.0000
  F   F183      1.0  0.36903  0.61560  0.41270  1.0000
  F   F184      1.0  0.37627  0.62488  0.88645  1.0000
  F   F185      1.0  0.62435  0.14511  0.37511  1.0000
  F   F186      1.0  0.62171  0.12187  0.90099  1.0000
  F   F187      1.0  0.62835  0.63086  0.38860  1.0000
  F   F188      1.0  0.62635  0.61936  0.90823  1.0000
  F   F189      1.0  0.87661  0.15758  0.37596  1.0000
  F   F190      1.0  0.87007  0.13128  0.88631  1.0000
  F   F191      1.0  0.87401  0.60721  0.41336  1.0000
  F   F192      1.0  0.87734  0.65083  0.86679  1.0000
  F   F193      1.0  0.01093  0.36510  0.06236  1.0000
  F   F194      1.0  0.00384  0.36741  0.58201  1.0000
  F   F195      1.0  0.01113  0.86445  0.06951  1.0000
  F   F196      1.0  0.00367  0.86828  0.58211  1.0000
  F   F197      1.0  0.25689  0.35691  0.08856  1.0000
  F   F198      1.0  0.26149  0.36137  0.56248  1.0000
  F   F199      1.0  0.25718  0.86517  0.07404  1.0000
  F   F200      1.0  0.25796  0.85962  0.57143  1.0000
  F   F201      1.0  0.50687  0.35225  0.09810  1.0000
  F   F202      1.0  0.51309  0.36718  0.55168  1.0000
  F   F203      1.0  0.50914  0.86097  0.06144  1.0000
  F   F204      1.0  0.50452  0.85536  0.57464  1.0000
  F   F205      1.0  0.75832  0.37765  0.06890  1.0000
  F   F206      1.0  0.76017  0.34773  0.57986  1.0000
  F   F207      1.0  0.75886  0.86429  0.07373  1.0000
  F   F208      1.0  0.75717  0.85471  0.57043  1.0000
  F   F209      1.0  0.07117  0.49024  0.17027  1.0000
  F   F210      1.0  0.06892  0.48497  0.66610  1.0000
  F   F211      1.0  0.06843  0.98736  0.18066  1.0000
  F   F212      1.0  0.07133  0.98661  0.67356  1.0000
  F   F213      1.0  0.31858  0.48726  0.18508  1.0000
  F   F214      1.0  0.31659  0.48156  0.67321  1.0000
  F   F215      1.0  0.31886  0.98781  0.16757  1.0000
  F   F216      1.0  0.31406  0.99474  0.67319  1.0000
  F   F217      1.0  0.57667  0.47662  0.18139  1.0000
  F   F218      1.0  0.57128  0.48196  0.67142  1.0000
  F   F219      1.0  0.56364  0.97779  0.19143  1.0000
  F   F220      1.0  0.56562  0.97770  0.68243  1.0000
  F   F221      1.0  0.82262  0.48466  0.17020  1.0000
  F   F222      1.0  0.82925  0.48898  0.65274  1.0000
  F   F223      1.0  0.81967  0.97935  0.17837  1.0000
  F   F224      1.0  0.80973  0.99036  0.68201  1.0000
  F   F225      1.0  0.24238  0.14356  0.41905  1.0000
  F   F226      1.0  0.24146  0.12516  0.92786  1.0000
  F   F227      1.0  0.24200  0.64597  0.41792  1.0000
  F   F228      1.0  0.24267  0.63129  0.92806  1.0000
  F   F229      1.0  0.49142  0.13827  0.43103  1.0000
  F   F230      1.0  0.49375  0.14362  0.91657  1.0000
  F   F231      1.0  0.48474  0.63681  0.44086  1.0000
  F   F232      1.0  0.49867  0.64592  0.90856  1.0000
  F   F233      1.0  0.73888  0.13075  0.44161  1.0000
  F   F234      1.0  0.74053  0.13003  0.93345  1.0000
  F   F235      1.0  0.74680  0.64425  0.40514  1.0000
  F   F236      1.0  0.74086  0.62889  0.92598  1.0000
  F   F237      1.0  0.98635  0.13344  0.44206  1.0000
  F   F238      1.0  0.98987  0.14729  0.93099  1.0000
  F   F239      1.0  0.99290  0.63624  0.43541  1.0000
  F   F240      1.0  0.99548  0.64417  0.90782  1.0000
  F   F241      1.0  0.18473  0.01536  0.32791  1.0000
  F   F242      1.0  0.17812  0.01878  0.82634  1.0000
  F   F243      1.0  0.17792  0.52493  0.32198  1.0000
  F   F244      1.0  0.17761  0.50441  0.84359  1.0000
  F   F245      1.0  0.43121  0.01311  0.32075  1.0000
  F   F246      1.0  0.42502  0.01250  0.82621  1.0000
  F   F247      1.0  0.42834  0.50860  0.33642  1.0000
  F   F248      1.0  0.42336  0.51414  0.84147  1.0000
  F   F249      1.0  0.67514  0.01429  0.34143  1.0000
  F   F250      1.0  0.67616  0.00866  0.83141  1.0000
  F   F251      1.0  0.68870  0.51092  0.32157  1.0000
  F   F252      1.0  0.68451  0.51174  0.82460  1.0000
  F   F253      1.0  0.93111  0.01877  0.32926  1.0000
  F   F254      1.0  0.92851  0.01847  0.83254  1.0000
  F   F255      1.0  0.93383  0.50076  0.34972  1.0000
  F   F256      1.0  0.93207  0.52152  0.81889  1.0000
  F   F257      1.0  0.00641  0.26663  0.98327  1.0000
  F   F258      1.0  0.00514  0.26386  0.49473  1.0000
  F   F259      1.0  0.99634  0.73951  0.00649  1.0000
  F   F260      1.0  0.00111  0.76865  0.49212  1.0000
  F   F261      1.0  0.25015  0.24979  0.00236  1.0000
  F   F262      1.0  0.25161  0.24469  0.50453  1.0000
  F   F263      1.0  0.25086  0.75199  0.98713  1.0000
  F   F264      1.0  0.24648  0.75049  0.49700  1.0000
  F   F265      1.0  0.50116  0.26129  0.00510  1.0000
  F   F266      1.0  0.49853  0.24412  0.50199  1.0000
  F   F267      1.0  0.50544  0.75445  0.98980  1.0000
  F   F268      1.0  0.49901  0.76046  0.48498  1.0000
  F   F269      1.0  0.75172  0.25978  0.99777  1.0000
  F   F270      1.0  0.74795  0.24293  0.50234  1.0000
  F   F271      1.0  0.74411  0.72434  0.01539  1.0000
  F   F272      1.0  0.74897  0.73735  0.50430  1.0000
  F   F273      1.0  0.13101  0.01762  0.25148  1.0000
  F   F274      1.0  0.12337  0.00674  0.74787  1.0000
  F   F275      1.0  0.13580  0.51267  0.22681  1.0000
  F   F276      1.0  0.12921  0.49774  0.73865  1.0000
  F   F277      1.0  0.37149  0.00022  0.25683  1.0000
  F   F278      1.0  0.37711  0.00469  0.74273  1.0000
  F   F279      1.0  0.37933  0.50505  0.23783  1.0000
  F   F280      1.0  0.37888  0.50440  0.73996  1.0000
  F   F281      1.0  0.62263  0.99156  0.25335  1.0000
  F   F282      1.0  0.62376  0.99855  0.75718  1.0000
  F   F283      1.0  0.62243  0.50772  0.26436  1.0000
  F   F284      1.0  0.63110  0.50105  0.73573  1.0000
  F   F285      1.0  0.88086  0.00531  0.24814  1.0000
  F   F286      1.0  0.87453  0.00858  0.75145  1.0000
  F   F287      1.0  0.88284  0.50420  0.25111  1.0000
  F   F288      1.0  0.87982  0.50956  0.73707  1.0000
  F   F289      1.0  0.04723  0.02485  0.02014  1.0000
  F   F290      1.0  0.04058  0.03419  0.53362  1.0000
  F   F291      1.0  0.04912  0.53068  0.01458  1.0000
  F   F292      1.0  0.04949  0.53342  0.51008  1.0000
  F   F293      1.0  0.29259  0.04059  0.02141  1.0000
  F   F294      1.0  0.28565  0.03023  0.54613  1.0000
  F   F295      1.0  0.29649  0.53345  0.02331  1.0000
  F   F296      1.0  0.28667  0.52941  0.52261  1.0000
  F   F297      1.0  0.54381  0.03217  0.01868  1.0000
  F   F298      1.0  0.53639  0.01792  0.53874  1.0000
  F   F299      1.0  0.54244  0.52918  0.02515  1.0000
  F   F300      1.0  0.54050  0.53423  0.53061  1.0000
  F   F301      1.0  0.78633  0.02806  0.02597  1.0000
  F   F302      1.0  0.79098  0.02018  0.52366  1.0000
  F   F303      1.0  0.79399  0.53505  0.03005  1.0000
  F   F304      1.0  0.78643  0.52842  0.53650  1.0000
  F   F305      1.0  0.23630  0.41614  0.24177  1.0000
  F   F306      1.0  0.23138  0.41744  0.72106  1.0000
  F   F307      1.0  0.23122  0.92699  0.21632  1.0000
  F   F308      1.0  0.23055  0.91006  0.73495  1.0000
  F   F309      1.0  0.48475  0.42602  0.22345  1.0000
  F   F310      1.0  0.48611  0.41834  0.73347  1.0000
  F   F311      1.0  0.48479  0.89437  0.24179  1.0000
  F   F312      1.0  0.48169  0.89364  0.74016  1.0000
  F   F313      1.0  0.73126  0.39890  0.24330  1.0000
  F   F314      1.0  0.73428  0.41038  0.73133  1.0000
  F   F315      1.0  0.73358  0.91158  0.22367  1.0000
  F   F316      1.0  0.72922  0.92384  0.72447  1.0000
  F   F317      1.0  0.98640  0.41882  0.22686  1.0000
  F   F318      1.0  0.98651  0.40296  0.74260  1.0000
  F   F319      1.0  0.98646  0.90863  0.23069  1.0000
  F   F320      1.0  0.98525  0.92103  0.72384  1.0000
  F   F321      1.0  0.21137  0.47388  0.46740  1.0000
  F   F322      1.0  0.21232  0.45556  0.97918  1.0000
  F   F323      1.0  0.20565  0.96571  0.47983  1.0000
  F   F324      1.0  0.21216  0.97053  0.96083  1.0000
  F   F325      1.0  0.46130  0.46268  0.48119  1.0000
  F   F326      1.0  0.46682  0.45992  0.98326  1.0000
  F   F327      1.0  0.45646  0.96450  0.46837  1.0000
  F   F328      1.0  0.45182  0.97575  0.96910  1.0000
  F   F329      1.0  0.70567  0.46066  0.48854  1.0000
  F   F330      1.0  0.70785  0.45777  0.97512  1.0000
  F   F331      1.0  0.70962  0.96935  0.48422  1.0000
  F   F332      1.0  0.70953  0.96424  0.97170  1.0000
  F   F333      1.0  0.95622  0.46470  0.48927  1.0000
  F   F334      1.0  0.96172  0.46977  0.96681  1.0000
  F   F335      1.0  0.95890  0.96528  0.47316  1.0000
  F   F336      1.0  0.96412  0.98282  0.97147  1.0000
  F   F337      1.0  0.01144  0.09136  0.26942  1.0000
  F   F338      1.0  0.01218  0.07684  0.78058  1.0000
  F   F339      1.0  0.01809  0.58152  0.26984  1.0000
  F   F340      1.0  0.01501  0.57657  0.76996  1.0000
  F   F341      1.0  0.26413  0.08524  0.27377  1.0000
  F   F342      1.0  0.26441  0.10884  0.75220  1.0000
  F   F343      1.0  0.26449  0.58995  0.26635  1.0000
  F   F344      1.0  0.26527  0.58917  0.77369  1.0000
  F   F345      1.0  0.51285  0.07205  0.28056  1.0000
  F   F346      1.0  0.51491  0.07673  0.77545  1.0000
  F   F347      1.0  0.51197  0.57904  0.29128  1.0000
  F   F348      1.0  0.51462  0.57493  0.79053  1.0000
  F   F349      1.0  0.76272  0.09158  0.28111  1.0000
  F   F350      1.0  0.76005  0.09115  0.77655  1.0000
  F   F351      1.0  0.76982  0.55762  0.28118  1.0000
  F   F352      1.0  0.76655  0.57319  0.75975  1.0000
  F   F353      1.0  0.09873  0.41019  0.45311  1.0000
  F   F354      1.0  0.09852  0.39831  0.95416  1.0000
  F   F355      1.0  0.10568  0.91571  0.47136  1.0000
  F   F356      1.0  0.10001  0.89554  0.96233  1.0000
  F   F357      1.0  0.35120  0.40582  0.45874  1.0000
  F   F358      1.0  0.34851  0.39355  0.95122  1.0000
  F   F359      1.0  0.35078  0.91999  0.45395  1.0000
  F   F360      1.0  0.35244  0.91440  0.95119  1.0000
  F   F361      1.0  0.60140  0.42974  0.46142  1.0000
  F   F362      1.0  0.60317  0.41446  0.95473  1.0000
  F   F363      1.0  0.59496  0.89255  0.47329  1.0000
  F   F364      1.0  0.59599  0.90273  0.96553  1.0000
  F   F365      1.0  0.84392  0.41480  0.47173  1.0000
  F   F366      1.0  0.85610  0.40592  0.95926  1.0000
  F   F367      1.0  0.85076  0.90707  0.45891  1.0000
  F   F368      1.0  0.85447  0.89996  0.96177  1.0000
  F   F369      1.0  0.04492  0.30371  0.29239  1.0000
  F   F370      1.0  0.05194  0.29680  0.78595  1.0000
  F   F371      1.0  0.05193  0.80926  0.28020  1.0000
  F   F372      1.0  0.04392  0.79398  0.79497  1.0000
  F   F373      1.0  0.29286  0.30319  0.28416  1.0000
  F   F374      1.0  0.28982  0.28873  0.78766  1.0000
  F   F375      1.0  0.29575  0.79616  0.28765  1.0000
  F   F376      1.0  0.30555  0.79640  0.77228  1.0000
  F   F377      1.0  0.54225  0.29575  0.29626  1.0000
  F   F378      1.0  0.54897  0.29304  0.78370  1.0000
  F   F379      1.0  0.55352  0.78899  0.28205  1.0000
  F   F380      1.0  0.54914  0.80738  0.79111  1.0000
  F   F381      1.0  0.79816  0.30263  0.29154  1.0000
  F   F382      1.0  0.79308  0.29418  0.78648  1.0000
  F   F383      1.0  0.79354  0.80544  0.29269  1.0000
  F   F384      1.0  0.79060  0.80000  0.78623  1.0000
