data_image0
_chemical_formula_structural       Hf96F384
_chemical_formula_sum              "Hf96 F384"
_cell_length_a       31.0546
_cell_length_b       15.5261
_cell_length_c       15.517
_cell_angle_alpha    63.342
_cell_angle_beta     63.342
_cell_angle_gamma    80.1625

_space_group_name_H-M_alt    "P 1"
_space_group_IT_number       1

loop_
  _space_group_symop_operation_xyz
  'x, y, z'

loop_
  _atom_site_type_symbol
  _atom_site_label
  _atom_site_symmetry_multiplicity
  _atom_site_fract_x
  _atom_site_fract_y
  _atom_site_fract_z
  _atom_site_occupancy
  Hf  Hf1       1.0  0.19738  0.10893  0.36294  1.0000
  Hf  Hf2       1.0  0.19567  0.10499  0.88658  1.0000
  Hf  Hf3       1.0  0.19680  0.61108  0.36910  1.0000
  Hf  Hf4       1.0  0.19157  0.60931  0.87632  1.0000
  Hf  Hf5       1.0  0.44886  0.10528  0.37824  1.0000
  Hf  Hf6       1.0  0.45042  0.11300  0.86831  1.0000
  Hf  Hf7       1.0  0.44897  0.60527  0.37843  1.0000
  Hf  Hf8       1.0  0.44288  0.61330  0.87556  1.0000
  Hf  Hf9       1.0  0.69333  0.10367  0.38008  1.0000
  Hf  Hf10      1.0  0.69766  0.09928  0.87501  1.0000
  Hf  Hf11      1.0  0.69849  0.59810  0.37862  1.0000
  Hf  Hf12      1.0  0.69730  0.60639  0.87332  1.0000
  Hf  Hf13      1.0  0.94615  0.10620  0.37732  1.0000
  Hf  Hf14      1.0  0.94220  0.10370  0.87690  1.0000
  Hf  Hf15      1.0  0.94740  0.60011  0.37860  1.0000
  Hf  Hf16      1.0  0.94757  0.60622  0.87786  1.0000
  Hf  Hf17      1.0  0.04957  0.39063  0.13362  1.0000
  Hf  Hf18      1.0  0.05689  0.39601  0.62044  1.0000
  Hf  Hf19      1.0  0.05515  0.90215  0.11773  1.0000
  Hf  Hf20      1.0  0.05321  0.90571  0.61409  1.0000
  Hf  Hf21      1.0  0.30574  0.38906  0.11507  1.0000
  Hf  Hf22      1.0  0.30157  0.38127  0.63037  1.0000
  Hf  Hf23      1.0  0.30249  0.89466  0.12475  1.0000
  Hf  Hf24      1.0  0.30190  0.89971  0.61996  1.0000
  Hf  Hf25      1.0  0.55071  0.38788  0.12916  1.0000
  Hf  Hf26      1.0  0.55108  0.39601  0.62981  1.0000
  Hf  Hf27      1.0  0.55509  0.89058  0.12170  1.0000
  Hf  Hf28      1.0  0.55012  0.88321  0.64412  1.0000
  Hf  Hf29      1.0  0.80380  0.38818  0.12174  1.0000
  Hf  Hf30      1.0  0.80531  0.39054  0.61972  1.0000
  Hf  Hf31      1.0  0.80412  0.88782  0.13283  1.0000
  Hf  Hf32      1.0  0.80349  0.88482  0.63541  1.0000
  Hf  Hf33      1.0  0.05855  0.18648  0.40947  1.0000
  Hf  Hf34      1.0  0.05162  0.19306  0.91729  1.0000
  Hf  Hf35      1.0  0.05763  0.68132  0.41564  1.0000
  Hf  Hf36      1.0  0.05451  0.68292  0.91675  1.0000
  Hf  Hf37      1.0  0.30584  0.19114  0.41237  1.0000
  Hf  Hf38      1.0  0.30749  0.18496  0.91860  1.0000
  Hf  Hf39      1.0  0.30712  0.68016  0.41211  1.0000
  Hf  Hf40      1.0  0.30384  0.69142  0.91020  1.0000
  Hf  Hf41      1.0  0.55307  0.18572  0.41667  1.0000
  Hf  Hf42      1.0  0.55580  0.18159  0.91744  1.0000
  Hf  Hf43      1.0  0.55899  0.68695  0.42350  1.0000
  Hf  Hf44      1.0  0.55640  0.67895  0.91506  1.0000
  Hf  Hf45      1.0  0.80467  0.18037  0.41696  1.0000
  Hf  Hf46      1.0  0.80329  0.18555  0.91732  1.0000
  Hf  Hf47      1.0  0.80750  0.68359  0.41509  1.0000
  Hf  Hf48      1.0  0.80901  0.67816  0.91595  1.0000
  Hf  Hf49      1.0  0.15963  0.38671  0.32737  1.0000
  Hf  Hf50      1.0  0.15461  0.39238  0.83050  1.0000
  Hf  Hf51      1.0  0.15505  0.89038  0.32941  1.0000
  Hf  Hf52      1.0  0.16039  0.89342  0.83087  1.0000
  Hf  Hf53      1.0  0.40528  0.38840  0.33616  1.0000
  Hf  Hf54      1.0  0.41014  0.38977  0.82994  1.0000
  Hf  Hf55      1.0  0.41101  0.88913  0.33914  1.0000
  Hf  Hf56      1.0  0.40763  0.89669  0.84080  1.0000
  Hf  Hf57      1.0  0.66105  0.38702  0.33753  1.0000
  Hf  Hf58      1.0  0.66063  0.38887  0.83209  1.0000
  Hf  Hf59      1.0  0.65931  0.88118  0.33862  1.0000
  Hf  Hf60      1.0  0.65518  0.88252  0.83839  1.0000
  Hf  Hf61      1.0  0.90472  0.38840  0.33849  1.0000
  Hf  Hf62      1.0  0.91324  0.39052  0.82964  1.0000
  Hf  Hf63      1.0  0.91445  0.88235  0.33606  1.0000
  Hf  Hf64      1.0  0.90575  0.88641  0.83394  1.0000
  Hf  Hf65      1.0  0.19259  0.32432  0.07722  1.0000
  Hf  Hf66      1.0  0.19473  0.31830  0.58039  1.0000
  Hf  Hf67      1.0  0.19582  0.82128  0.08570  1.0000
  Hf  Hf68      1.0  0.19563  0.81553  0.57531  1.0000
  Hf  Hf69      1.0  0.44451  0.32134  0.07507  1.0000
  Hf  Hf70      1.0  0.44627  0.32707  0.57811  1.0000
  Hf  Hf71      1.0  0.44586  0.81285  0.08477  1.0000
  Hf  Hf72      1.0  0.44006  0.82217  0.59073  1.0000
  Hf  Hf73      1.0  0.69182  0.31901  0.08712  1.0000
  Hf  Hf74      1.0  0.69792  0.31292  0.58834  1.0000
  Hf  Hf75      1.0  0.69345  0.80698  0.08492  1.0000
  Hf  Hf76      1.0  0.69449  0.81043  0.59287  1.0000
  Hf  Hf77      1.0  0.94113  0.32184  0.08855  1.0000
  Hf  Hf78      1.0  0.94682  0.30871  0.58487  1.0000
  Hf  Hf79      1.0  0.94594  0.81498  0.08647  1.0000
  Hf  Hf80      1.0  0.94215  0.81543  0.58961  1.0000
  Hf  Hf81      1.0  0.08841  0.11481  0.16171  1.0000
  Hf  Hf82      1.0  0.09126  0.10918  0.66784  1.0000
  Hf  Hf83      1.0  0.08936  0.61281  0.16127  1.0000
  Hf  Hf84      1.0  0.08660  0.61987  0.66881  1.0000
  Hf  Hf85      1.0  0.34414  0.11198  0.16596  1.0000
  Hf  Hf86      1.0  0.34222  0.11965  0.66208  1.0000
  Hf  Hf87      1.0  0.34013  0.60790  0.16418  1.0000
  Hf  Hf88      1.0  0.33769  0.61277  0.66286  1.0000
  Hf  Hf89      1.0  0.59303  0.11521  0.16775  1.0000
  Hf  Hf90      1.0  0.58957  0.11713  0.66503  1.0000
  Hf  Hf91      1.0  0.59411  0.60178  0.17128  1.0000
  Hf  Hf92      1.0  0.59473  0.61268  0.66462  1.0000
  Hf  Hf93      1.0  0.83866  0.10204  0.18160  1.0000
  Hf  Hf94      1.0  0.84242  0.11165  0.66132  1.0000
  Hf  Hf95      1.0  0.83878  0.60745  0.16985  1.0000
  Hf  Hf96      1.0  0.84615  0.61182  0.66577  1.0000
  F   F1        1.0  0.08198  0.12994  0.30386  1.0000
  F   F2        1.0  0.07990  0.13522  0.79589  1.0000
  F   F3        1.0  0.07754  0.62281  0.30460  1.0000
  F   F4        1.0  0.07881  0.62206  0.80669  1.0000
  F   F5        1.0  0.34285  0.14671  0.28733  1.0000
  F   F6        1.0  0.33354  0.14981  0.79318  1.0000
  F   F7        1.0  0.33608  0.63450  0.28634  1.0000
  F   F8        1.0  0.32503  0.64021  0.78726  1.0000
  F   F9        1.0  0.57777  0.13173  0.30611  1.0000
  F   F10       1.0  0.57626  0.12626  0.80455  1.0000
  F   F11       1.0  0.57709  0.62311  0.31861  1.0000
  F   F12       1.0  0.58116  0.62133  0.81136  1.0000
  F   F13       1.0  0.82260  0.11553  0.31083  1.0000
  F   F14       1.0  0.83440  0.13713  0.78949  1.0000
  F   F15       1.0  0.82438  0.62612  0.30361  1.0000
  F   F16       1.0  0.83721  0.63300  0.79387  1.0000
  F   F17       1.0  0.19511  0.35059  0.42321  1.0000
  F   F18       1.0  0.18951  0.35415  0.93565  1.0000
  F   F19       1.0  0.17958  0.84119  0.43843  1.0000
  F   F20       1.0  0.18724  0.84549  0.93849  1.0000
  F   F21       1.0  0.44441  0.34986  0.44685  1.0000
  F   F22       1.0  0.44597  0.35147  0.93277  1.0000
  F   F23       1.0  0.43264  0.84139  0.45628  1.0000
  F   F24       1.0  0.43401  0.84622  0.95501  1.0000
  F   F25       1.0  0.69107  0.34193  0.45327  1.0000
  F   F26       1.0  0.68026  0.34154  0.95227  1.0000
  F   F27       1.0  0.67750  0.82538  0.46093  1.0000
  F   F28       1.0  0.69059  0.84647  0.93242  1.0000
  F   F29       1.0  0.93851  0.34274  0.44645  1.0000
  F   F30       1.0  0.94316  0.35273  0.94300  1.0000
  F   F31       1.0  0.95451  0.84933  0.43127  1.0000
  F   F32       1.0  0.93345  0.83984  0.95450  1.0000
  F   F33       1.0  0.17415  0.36597  0.19248  1.0000
  F   F34       1.0  0.17449  0.37213  0.69479  1.0000
  F   F35       1.0  0.17638  0.88472  0.18319  1.0000
  F   F36       1.0  0.16981  0.87379  0.68091  1.0000
  F   F37       1.0  0.42085  0.36880  0.19283  1.0000
  F   F38       1.0  0.42455  0.39085  0.69511  1.0000
  F   F39       1.0  0.42209  0.85807  0.20043  1.0000
  F   F40       1.0  0.41920  0.87081  0.70735  1.0000
  F   F41       1.0  0.66822  0.36765  0.20506  1.0000
  F   F42       1.0  0.66896  0.35986  0.70439  1.0000
  F   F43       1.0  0.66939  0.85446  0.20018  1.0000
  F   F44       1.0  0.67003  0.86978  0.70207  1.0000
  F   F45       1.0  0.91180  0.36789  0.20299  1.0000
  F   F46       1.0  0.92227  0.37622  0.68688  1.0000
  F   F47       1.0  0.92386  0.87972  0.19097  1.0000
  F   F48       1.0  0.92290  0.87587  0.69339  1.0000
  F   F49       1.0  0.06622  0.16987  0.04423  1.0000
  F   F50       1.0  0.06595  0.17007  0.54594  1.0000
  F   F51       1.0  0.06862  0.66243  0.04595  1.0000
  F   F52       1.0  0.06208  0.66410  0.55616  1.0000
  F   F53       1.0  0.32473  0.16395  0.03936  1.0000
  F   F54       1.0  0.30707  0.16897  0.56340  1.0000
  F   F55       1.0  0.30073  0.64181  0.05983  1.0000
  F   F56       1.0  0.31169  0.66593  0.55411  1.0000
  F   F57       1.0  0.56984  0.16436  0.05152  1.0000
  F   F58       1.0  0.56685  0.15911  0.54978  1.0000
  F   F59       1.0  0.57061  0.65168  0.05433  1.0000
  F   F60       1.0  0.56525  0.66595  0.55019  1.0000
  F   F61       1.0  0.80559  0.13472  0.06619  1.0000
  F   F62       1.0  0.81442  0.15516  0.54074  1.0000
  F   F63       1.0  0.80973  0.64490  0.06147  1.0000
  F   F64       1.0  0.82298  0.66744  0.54234  1.0000
  F   F65       1.0  0.20442  0.20268  0.21712  1.0000
  F   F66       1.0  0.19888  0.20273  0.71251  1.0000
  F   F67       1.0  0.21111  0.70499  0.20701  1.0000
  F   F68       1.0  0.20642  0.69220  0.70639  1.0000
  F   F69       1.0  0.46197  0.19680  0.21721  1.0000
  F   F70       1.0  0.44555  0.20882  0.71891  1.0000
  F   F71       1.0  0.45606  0.68982  0.22234  1.0000
  F   F72       1.0  0.45722  0.69989  0.70451  1.0000
  F   F73       1.0  0.69441  0.20293  0.21553  1.0000
  F   F74       1.0  0.70624  0.18824  0.71210  1.0000
  F   F75       1.0  0.70184  0.68276  0.21244  1.0000
  F   F76       1.0  0.70151  0.69807  0.71898  1.0000
  F   F77       1.0  0.96325  0.20872  0.20425  1.0000
  F   F78       1.0  0.94932  0.19024  0.72227  1.0000
  F   F79       1.0  0.96279  0.71435  0.20952  1.0000
  F   F80       1.0  0.94717  0.70591  0.71663  1.0000
  F   F81       1.0  0.14850  0.09132  0.04847  1.0000
  F   F82       1.0  0.15041  0.09220  0.53378  1.0000
  F   F83       1.0  0.14842  0.60459  0.03015  1.0000
  F   F84       1.0  0.14750  0.59320  0.52804  1.0000
  F   F85       1.0  0.40339  0.09223  0.03790  1.0000
  F   F86       1.0  0.39580  0.09582  0.53355  1.0000
  F   F87       1.0  0.39107  0.60017  0.02678  1.0000
  F   F88       1.0  0.39425  0.59866  0.53404  1.0000
  F   F89       1.0  0.65844  0.09326  0.03495  1.0000
  F   F90       1.0  0.65353  0.10824  0.52649  1.0000
  F   F91       1.0  0.65702  0.58195  0.04821  1.0000
  F   F92       1.0  0.64957  0.58899  0.55094  1.0000
  F   F93       1.0  0.89069  0.11437  0.04608  1.0000
  F   F94       1.0  0.89802  0.09561  0.53852  1.0000
  F   F95       1.0  0.89909  0.59553  0.05080  1.0000
  F   F96       1.0  0.90675  0.59550  0.53896  1.0000
  F   F97       1.0  0.14754  0.21588  0.11884  1.0000
  F   F98       1.0  0.15203  0.20943  0.61050  1.0000
  F   F99       1.0  0.15510  0.70819  0.11469  1.0000
  F   F100      1.0  0.14950  0.70723  0.62037  1.0000
  F   F101      1.0  0.40247  0.19902  0.12226  1.0000
  F   F102      1.0  0.39945  0.19652  0.62210  1.0000
  F   F103      1.0  0.40694  0.67951  0.12426  1.0000
  F   F104      1.0  0.40762  0.69399  0.62420  1.0000
  F   F105      1.0  0.65204  0.20943  0.11146  1.0000
  F   F106      1.0  0.65325  0.18188  0.63208  1.0000
  F   F107      1.0  0.64528  0.70082  0.12903  1.0000
  F   F108      1.0  0.64484  0.70663  0.63113  1.0000
  F   F109      1.0  0.90148  0.20774  0.13947  1.0000
  F   F110      1.0  0.90585  0.19589  0.62234  1.0000
  F   F111      1.0  0.90243  0.69633  0.14846  1.0000
  F   F112      1.0  0.90515  0.70351  0.61027  1.0000
  F   F113      1.0  0.09746  0.31918  0.36242  1.0000
  F   F114      1.0  0.10022  0.30210  0.86059  1.0000
  F   F115      1.0  0.09705  0.81798  0.36942  1.0000
  F   F116      1.0  0.09966  0.81003  0.89025  1.0000
  F   F117      1.0  0.34197  0.30876  0.37758  1.0000
  F   F118      1.0  0.35329  0.30512  0.84693  1.0000
  F   F119      1.0  0.34163  0.79798  0.37092  1.0000
  F   F120      1.0  0.34650  0.80568  0.90309  1.0000
  F   F121      1.0  0.59545  0.30384  0.37257  1.0000
  F   F122      1.0  0.60172  0.29026  0.86761  1.0000
  F   F123      1.0  0.59954  0.79860  0.38919  1.0000
  F   F124      1.0  0.59858  0.80079  0.86810  1.0000
  F   F125      1.0  0.84612  0.30534  0.37658  1.0000
  F   F126      1.0  0.84610  0.30446  0.87107  1.0000
  F   F127      1.0  0.84945  0.79829  0.35652  1.0000
  F   F128      1.0  0.85122  0.79382  0.86449  1.0000
  F   F129      1.0  0.06269  0.24393  0.14343  1.0000
  F   F130      1.0  0.06209  0.25645  0.64958  1.0000
  F   F131      1.0  0.06491  0.75370  0.13839  1.0000
  F   F132      1.0  0.05545  0.76175  0.65117  1.0000
  F   F133      1.0  0.31981  0.24551  0.14028  1.0000
  F   F134      1.0  0.31331  0.24574  0.64690  1.0000
  F   F135      1.0  0.31801  0.75194  0.11983  1.0000
  F   F136      1.0  0.31205  0.76207  0.64269  1.0000
  F   F137      1.0  0.56187  0.24012  0.15648  1.0000
  F   F138      1.0  0.56781  0.26043  0.63037  1.0000
  F   F139      1.0  0.56242  0.74982  0.14546  1.0000
  F   F140      1.0  0.56776  0.75231  0.63957  1.0000
  F   F141      1.0  0.81793  0.24252  0.14182  1.0000
  F   F142      1.0  0.81885  0.25030  0.62220  1.0000
  F   F143      1.0  0.82190  0.74348  0.13354  1.0000
  F   F144      1.0  0.81831  0.75296  0.63579  1.0000
  F   F145      1.0  0.12093  0.36814  0.11547  1.0000
  F   F146      1.0  0.12717  0.37697  0.60836  1.0000
  F   F147      1.0  0.12148  0.87449  0.11329  1.0000
  F   F148      1.0  0.12384  0.88313  0.59699  1.0000
  F   F149      1.0  0.37975  0.39227  0.08359  1.0000
  F   F150      1.0  0.37424  0.36965  0.61428  1.0000
  F   F151      1.0  0.37530  0.85221  0.11497  1.0000
  F   F152      1.0  0.37652  0.89081  0.60888  1.0000
  F   F153      1.0  0.62559  0.36880  0.11756  1.0000
  F   F154      1.0  0.62320  0.35690  0.61477  1.0000
  F   F155      1.0  0.62299  0.86634  0.10835  1.0000
  F   F156      1.0  0.62532  0.87463  0.61013  1.0000
  F   F157      1.0  0.87572  0.39053  0.09844  1.0000
  F   F158      1.0  0.87626  0.35967  0.60674  1.0000
  F   F159      1.0  0.87219  0.87463  0.11798  1.0000
  F   F160      1.0  0.87570  0.86093  0.61570  1.0000
  F   F161      1.0  0.18715  0.24915  0.35704  1.0000
  F   F162      1.0  0.17781  0.24361  0.87754  1.0000
  F   F163      1.0  0.18747  0.76898  0.33893  1.0000
  F   F164      1.0  0.19357  0.75111  0.84229  1.0000
  F   F165      1.0  0.43635  0.25312  0.36366  1.0000
  F   F166      1.0  0.43632  0.25670  0.85194  1.0000
  F   F167      1.0  0.42412  0.74973  0.37010  1.0000
  F   F168      1.0  0.43676  0.75327  0.85263  1.0000
  F   F169      1.0  0.68796  0.25743  0.35142  1.0000
  F   F170      1.0  0.68577  0.25495  0.85341  1.0000
  F   F171      1.0  0.68433  0.73148  0.35455  1.0000
  F   F172      1.0  0.68531  0.74664  0.86251  1.0000
  F   F173      1.0  0.92529  0.23556  0.37233  1.0000
  F   F174      1.0  0.93636  0.25054  0.85710  1.0000
  F   F175      1.0  0.92448  0.74264  0.37781  1.0000
  F   F176      1.0  0.93265  0.74741  0.87050  1.0000
  F   F177      1.0  0.12155  0.11794  0.40097  1.0000
  F   F178      1.0  0.12727  0.12628  0.89411  1.0000
  F   F179      1.0  0.12906  0.65448  0.36889  1.0000
  F   F180      1.0  0.12451  0.65547  0.87440  1.0000
  F   F181      1.0  0.37402  0.14117  0.40578  1.0000
  F   F182      1.0  0.37510  0.11393  0.90075  1.0000
  F   F183      1.0  0.37514  0.62347  0.39370  1.0000
  F   F184      1.0  0.37605  0.65857  0.86347  1.0000
  F   F185      1.0  0.62628  0.12664  0.38818  1.0000
  F   F186      1.0  0.62319  0.11985  0.91530  1.0000
  F   F187      1.0  0.62540  0.61237  0.39894  1.0000
  F   F188      1.0  0.62982  0.64280  0.88459  1.0000
  F   F189      1.0  0.87099  0.11504  0.38894  1.0000
  F   F190      1.0  0.87052  0.12273  0.90282  1.0000
  F   F191      1.0  0.87413  0.62138  0.39912  1.0000
  F   F192      1.0  0.87439  0.62176  0.91099  1.0000
  F   F193      1.0  0.00092  0.37705  0.07801  1.0000
  F   F194      1.0  0.00624  0.35498  0.57484  1.0000
  F   F195      1.0  0.00816  0.86573  0.07579  1.0000
  F   F196      1.0  0.00425  0.86114  0.56327  1.0000
  F   F197      1.0  0.26058  0.35305  0.06463  1.0000
  F   F198      1.0  0.25549  0.34821  0.57237  1.0000
  F   F199      1.0  0.25884  0.86525  0.07878  1.0000
  F   F200      1.0  0.25658  0.84884  0.57910  1.0000
  F   F201      1.0  0.50842  0.36373  0.06911  1.0000
  F   F202      1.0  0.51193  0.36016  0.55826  1.0000
  F   F203      1.0  0.50749  0.87032  0.07304  1.0000
  F   F204      1.0  0.50610  0.86432  0.57786  1.0000
  F   F205      1.0  0.75853  0.34443  0.08267  1.0000
  F   F206      1.0  0.75800  0.35850  0.57174  1.0000
  F   F207      1.0  0.76179  0.84630  0.07947  1.0000
  F   F208      1.0  0.75914  0.84699  0.58223  1.0000
  F   F209      1.0  0.06544  0.48110  0.17380  1.0000
  F   F210      1.0  0.06994  0.48718  0.67633  1.0000
  F   F211      1.0  0.06956  0.99847  0.15223  1.0000
  F   F212      1.0  0.06657  0.99523  0.67404  1.0000
  F   F213      1.0  0.32365  0.47844  0.17342  1.0000
  F   F214      1.0  0.31895  0.49457  0.66403  1.0000
  F   F215      1.0  0.32359  0.99071  0.17062  1.0000
  F   F216      1.0  0.31182  0.99937  0.65490  1.0000
  F   F217      1.0  0.56831  0.48213  0.17549  1.0000
  F   F218      1.0  0.56966  0.48832  0.66638  1.0000
  F   F219      1.0  0.56742  0.98482  0.16604  1.0000
  F   F220      1.0  0.57201  0.98856  0.67286  1.0000
  F   F221      1.0  0.81992  0.48835  0.17173  1.0000
  F   F222      1.0  0.82799  0.49266  0.67221  1.0000
  F   F223      1.0  0.81698  0.97120  0.20853  1.0000
  F   F224      1.0  0.82158  0.98441  0.67516  1.0000
  F   F225      1.0  0.24857  0.13700  0.39619  1.0000
  F   F226      1.0  0.24051  0.15189  0.92828  1.0000
  F   F227      1.0  0.24482  0.63784  0.40668  1.0000
  F   F228      1.0  0.24274  0.63511  0.93071  1.0000
  F   F229      1.0  0.48830  0.14377  0.43154  1.0000
  F   F230      1.0  0.49623  0.14121  0.91123  1.0000
  F   F231      1.0  0.49272  0.64627  0.42031  1.0000
  F   F232      1.0  0.48770  0.63868  0.92972  1.0000
  F   F233      1.0  0.74078  0.12924  0.43374  1.0000
  F   F234      1.0  0.74674  0.12911  0.92162  1.0000
  F   F235      1.0  0.74286  0.62509  0.43678  1.0000
  F   F236      1.0  0.74392  0.63609  0.91530  1.0000
  F   F237      1.0  0.99378  0.15342  0.40932  1.0000
  F   F238      1.0  0.99045  0.12974  0.92600  1.0000
  F   F239      1.0  0.99458  0.64322  0.41282  1.0000
  F   F240      1.0  0.99008  0.62606  0.93523  1.0000
  F   F241      1.0  0.17695  0.01595  0.32224  1.0000
  F   F242      1.0  0.18814  0.02481  0.81442  1.0000
  F   F243      1.0  0.17533  0.51096  0.34210  1.0000
  F   F244      1.0  0.17114  0.51702  0.82663  1.0000
  F   F245      1.0  0.43076  0.01589  0.33381  1.0000
  F   F246      1.0  0.44012  0.01890  0.81320  1.0000
  F   F247      1.0  0.43278  0.50236  0.32689  1.0000
  F   F248      1.0  0.42009  0.51251  0.84863  1.0000
  F   F249      1.0  0.68474  0.01826  0.31731  1.0000
  F   F250      1.0  0.67633  0.02231  0.82484  1.0000
  F   F251      1.0  0.68708  0.50696  0.32930  1.0000
  F   F252      1.0  0.68241  0.50651  0.83423  1.0000
  F   F253      1.0  0.93891  0.01095  0.32230  1.0000
  F   F254      1.0  0.92046  0.01201  0.82677  1.0000
  F   F255      1.0  0.94129  0.51080  0.31041  1.0000
  F   F256      1.0  0.93367  0.51557  0.82271  1.0000
  F   F257      1.0  0.00599  0.26951  0.98279  1.0000
  F   F258      1.0  0.99647  0.23129  0.51386  1.0000
  F   F259      1.0  0.99917  0.72712  0.01770  1.0000
  F   F260      1.0  0.99876  0.73129  0.50712  1.0000
  F   F261      1.0  0.24775  0.24554  0.00842  1.0000
  F   F262      1.0  0.24106  0.23443  0.49861  1.0000
  F   F263      1.0  0.25054  0.76504  0.98542  1.0000
  F   F264      1.0  0.24567  0.74776  0.48767  1.0000
  F   F265      1.0  0.49940  0.23850  0.00233  1.0000
  F   F266      1.0  0.49607  0.23177  0.52383  1.0000
  F   F267      1.0  0.50092  0.74225  0.00217  1.0000
  F   F268      1.0  0.50176  0.76762  0.49528  1.0000
  F   F269      1.0  0.74586  0.24583  0.00456  1.0000
  F   F270      1.0  0.74989  0.25175  0.50148  1.0000
  F   F271      1.0  0.74896  0.74513  0.00775  1.0000
  F   F272      1.0  0.74753  0.74511  0.51322  1.0000
  F   F273      1.0  0.12529  0.00807  0.24386  1.0000
  F   F274      1.0  0.13153  0.00161  0.73831  1.0000
  F   F275      1.0  0.13457  0.51549  0.22239  1.0000
  F   F276      1.0  0.12088  0.49938  0.75018  1.0000
  F   F277      1.0  0.37464  0.99910  0.24316  1.0000
  F   F278      1.0  0.36441  0.99466  0.76203  1.0000
  F   F279      1.0  0.37708  0.49705  0.24155  1.0000
  F   F280      1.0  0.37255  0.50748  0.75452  1.0000
  F   F281      1.0  0.62863  0.99642  0.24122  1.0000
  F   F282      1.0  0.61806  0.99277  0.75979  1.0000
  F   F283      1.0  0.62441  0.49720  0.26346  1.0000
  F   F284      1.0  0.62379  0.50387  0.75732  1.0000
  F   F285      1.0  0.88155  0.00653  0.25716  1.0000
  F   F286      1.0  0.86702  0.98401  0.76298  1.0000
  F   F287      1.0  0.86785  0.49262  0.27162  1.0000
  F   F288      1.0  0.88444  0.50604  0.74109  1.0000
  F   F289      1.0  0.03875  0.03974  0.02315  1.0000
  F   F290      1.0  0.03620  0.03853  0.52594  1.0000
  F   F291      1.0  0.04423  0.52393  0.02131  1.0000
  F   F292      1.0  0.05306  0.52390  0.50856  1.0000
  F   F293      1.0  0.29118  0.03152  0.02924  1.0000
  F   F294      1.0  0.29327  0.04723  0.50463  1.0000
  F   F295      1.0  0.30365  0.51670  0.00290  1.0000
  F   F296      1.0  0.29506  0.52848  0.51715  1.0000
  F   F297      1.0  0.54140  0.03390  0.01893  1.0000
  F   F298      1.0  0.53529  0.03217  0.53574  1.0000
  F   F299      1.0  0.54505  0.52690  0.01655  1.0000
  F   F300      1.0  0.53634  0.54036  0.52954  1.0000
  F   F301      1.0  0.78822  0.00281  0.02756  1.0000
  F   F302      1.0  0.79040  0.01441  0.53624  1.0000
  F   F303      1.0  0.79202  0.51939  0.02093  1.0000
  F   F304      1.0  0.79590  0.53156  0.52566  1.0000
  F   F305      1.0  0.23824  0.42090  0.20048  1.0000
  F   F306      1.0  0.23149  0.43244  0.71448  1.0000
  F   F307      1.0  0.23765  0.93104  0.21883  1.0000
  F   F308      1.0  0.23396  0.91457  0.71845  1.0000
  F   F309      1.0  0.48800  0.41035  0.22479  1.0000
  F   F310      1.0  0.48465  0.43098  0.72893  1.0000
  F   F311      1.0  0.48597  0.90509  0.23560  1.0000
  F   F312      1.0  0.48565  0.92164  0.72495  1.0000
  F   F313      1.0  0.73733  0.41125  0.21775  1.0000
  F   F314      1.0  0.73999  0.42693  0.71709  1.0000
  F   F315      1.0  0.73459  0.90494  0.23255  1.0000
  F   F316      1.0  0.73779  0.91563  0.72396  1.0000
  F   F317      1.0  0.97816  0.38875  0.23468  1.0000
  F   F318      1.0  0.98431  0.43251  0.70601  1.0000
  F   F319      1.0  0.98768  0.92047  0.23285  1.0000
  F   F320      1.0  0.98843  0.89715  0.72903  1.0000
  F   F321      1.0  0.20878  0.46802  0.46872  1.0000
  F   F322      1.0  0.20066  0.47301  0.98603  1.0000
  F   F323      1.0  0.20489  0.95715  0.46852  1.0000
  F   F324      1.0  0.21085  0.97191  0.97994  1.0000
  F   F325      1.0  0.46172  0.47344  0.47437  1.0000
  F   F326      1.0  0.45518  0.48391  0.98813  1.0000
  F   F327      1.0  0.45561  0.96572  0.48487  1.0000
  F   F328      1.0  0.46240  0.96967  0.96302  1.0000
  F   F329      1.0  0.70624  0.46384  0.49783  1.0000
  F   F330      1.0  0.70906  0.47089  0.97280  1.0000
  F   F331      1.0  0.70464  0.95478  0.48220  1.0000
  F   F332      1.0  0.70918  0.96094  0.98164  1.0000
  F   F333      1.0  0.96149  0.47029  0.47128  1.0000
  F   F334      1.0  0.95927  0.48349  0.97060  1.0000
  F   F335      1.0  0.95858  0.98275  0.47457  1.0000
  F   F336      1.0  0.94937  0.97295  0.97969  1.0000
  F   F337      1.0  0.01943  0.07108  0.27794  1.0000
  F   F338      1.0  0.00879  0.08077  0.78551  1.0000
  F   F339      1.0  0.01523  0.57982  0.26349  1.0000
  F   F340      1.0  0.01428  0.59838  0.77409  1.0000
  F   F341      1.0  0.26739  0.08177  0.26658  1.0000
  F   F342      1.0  0.26569  0.08888  0.78270  1.0000
  F   F343      1.0  0.26765  0.57756  0.26325  1.0000
  F   F344      1.0  0.25965  0.58054  0.78713  1.0000
  F   F345      1.0  0.51838  0.06339  0.28947  1.0000
  F   F346      1.0  0.51609  0.09128  0.76588  1.0000
  F   F347      1.0  0.51489  0.57215  0.28280  1.0000
  F   F348      1.0  0.51760  0.57926  0.77309  1.0000
  F   F349      1.0  0.76108  0.09251  0.27408  1.0000
  F   F350      1.0  0.76647  0.09218  0.76716  1.0000
  F   F351      1.0  0.76485  0.56103  0.28251  1.0000
  F   F352      1.0  0.77031  0.58700  0.76644  1.0000
  F   F353      1.0  0.10452  0.38938  0.47122  1.0000
  F   F354      1.0  0.09530  0.40603  0.96049  1.0000
  F   F355      1.0  0.09675  0.92688  0.45457  1.0000
  F   F356      1.0  0.10445  0.93468  0.95282  1.0000
  F   F357      1.0  0.34841  0.40049  0.45796  1.0000
  F   F358      1.0  0.35227  0.37971  0.96773  1.0000
  F   F359      1.0  0.35227  0.90576  0.46160  1.0000
  F   F360      1.0  0.35581  0.93227  0.95140  1.0000
  F   F361      1.0  0.59930  0.40584  0.45820  1.0000
  F   F362      1.0  0.59916  0.40425  0.95200  1.0000
  F   F363      1.0  0.60373  0.92615  0.45033  1.0000
  F   F364      1.0  0.59340  0.91100  0.95688  1.0000
  F   F365      1.0  0.85320  0.41606  0.46022  1.0000
  F   F366      1.0  0.85747  0.39077  0.96500  1.0000
  F   F367      1.0  0.85399  0.89618  0.45726  1.0000
  F   F368      1.0  0.84749  0.90221  0.95666  1.0000
  F   F369      1.0  0.04134  0.30179  0.29519  1.0000
  F   F370      1.0  0.04589  0.30229  0.78154  1.0000
  F   F371      1.0  0.05239  0.79483  0.27492  1.0000
  F   F372      1.0  0.04775  0.79461  0.80014  1.0000
  F   F373      1.0  0.29611  0.29983  0.28126  1.0000
  F   F374      1.0  0.29197  0.31593  0.77748  1.0000
  F   F375      1.0  0.29147  0.79511  0.27718  1.0000
  F   F376      1.0  0.30608  0.80769  0.78415  1.0000
  F   F377      1.0  0.53984  0.29588  0.29805  1.0000
  F   F378      1.0  0.54285  0.30091  0.78183  1.0000
  F   F379      1.0  0.55247  0.80238  0.28761  1.0000
  F   F380      1.0  0.53228  0.78806  0.80580  1.0000
  F   F381      1.0  0.80560  0.29191  0.27323  1.0000
  F   F382      1.0  0.79771  0.31025  0.77487  1.0000
  F   F383      1.0  0.78288  0.78707  0.29953  1.0000
  F   F384      1.0  0.79787  0.79833  0.79477  1.0000
