data_image0
_chemical_formula_structural       Hf96F384
_chemical_formula_sum              "Hf96 F384"
_cell_length_a       31.0439
_cell_length_b       15.5246
_cell_length_c       15.5166
_cell_angle_alpha    63.342
_cell_angle_beta     63.342
_cell_angle_gamma    80.1625

_space_group_name_H-M_alt    "P 1"
_space_group_IT_number       1

loop_
  _space_group_symop_operation_xyz
  'x, y, z'

loop_
  _atom_site_type_symbol
  _atom_site_label
  _atom_site_symmetry_multiplicity
  _atom_site_fract_x
  _atom_site_fract_y
  _atom_site_fract_z
  _atom_site_occupancy
  Hf  Hf1       1.0  0.19692  0.10462  0.37939  1.0000
  Hf  Hf2       1.0  0.20043  0.10735  0.86879  1.0000
  Hf  Hf3       1.0  0.19256  0.60198  0.37700  1.0000
  Hf  Hf4       1.0  0.19248  0.60931  0.88163  1.0000
  Hf  Hf5       1.0  0.44809  0.11080  0.37976  1.0000
  Hf  Hf6       1.0  0.44769  0.10771  0.87567  1.0000
  Hf  Hf7       1.0  0.44606  0.61334  0.37118  1.0000
  Hf  Hf8       1.0  0.45227  0.61218  0.86482  1.0000
  Hf  Hf9       1.0  0.70147  0.10326  0.35498  1.0000
  Hf  Hf10      1.0  0.69694  0.11767  0.87085  1.0000
  Hf  Hf11      1.0  0.69889  0.60906  0.36852  1.0000
  Hf  Hf12      1.0  0.69501  0.61723  0.87333  1.0000
  Hf  Hf13      1.0  0.94659  0.10718  0.36944  1.0000
  Hf  Hf14      1.0  0.94572  0.10572  0.87627  1.0000
  Hf  Hf15      1.0  0.94395  0.60867  0.37206  1.0000
  Hf  Hf16      1.0  0.94315  0.60567  0.88388  1.0000
  Hf  Hf17      1.0  0.05104  0.38792  0.12816  1.0000
  Hf  Hf18      1.0  0.05049  0.39654  0.63185  1.0000
  Hf  Hf19      1.0  0.05207  0.89436  0.12398  1.0000
  Hf  Hf20      1.0  0.05517  0.88696  0.63181  1.0000
  Hf  Hf21      1.0  0.30319  0.40064  0.12117  1.0000
  Hf  Hf22      1.0  0.30267  0.39960  0.62175  1.0000
  Hf  Hf23      1.0  0.30463  0.90008  0.11817  1.0000
  Hf  Hf24      1.0  0.30437  0.89152  0.62883  1.0000
  Hf  Hf25      1.0  0.55425  0.38719  0.12680  1.0000
  Hf  Hf26      1.0  0.55642  0.39447  0.62014  1.0000
  Hf  Hf27      1.0  0.55557  0.90212  0.10779  1.0000
  Hf  Hf28      1.0  0.55768  0.89622  0.61154  1.0000
  Hf  Hf29      1.0  0.80279  0.39267  0.12876  1.0000
  Hf  Hf30      1.0  0.80046  0.38428  0.63194  1.0000
  Hf  Hf31      1.0  0.80300  0.89025  0.12266  1.0000
  Hf  Hf32      1.0  0.80369  0.88790  0.63034  1.0000
  Hf  Hf33      1.0  0.05312  0.18281  0.41837  1.0000
  Hf  Hf34      1.0  0.05994  0.18390  0.92030  1.0000
  Hf  Hf35      1.0  0.05408  0.69156  0.41972  1.0000
  Hf  Hf36      1.0  0.05466  0.67736  0.92913  1.0000
  Hf  Hf37      1.0  0.30735  0.18628  0.41270  1.0000
  Hf  Hf38      1.0  0.30612  0.19157  0.91430  1.0000
  Hf  Hf39      1.0  0.30784  0.68383  0.41166  1.0000
  Hf  Hf40      1.0  0.30850  0.68619  0.90873  1.0000
  Hf  Hf41      1.0  0.56135  0.18974  0.41177  1.0000
  Hf  Hf42      1.0  0.55825  0.19276  0.91100  1.0000
  Hf  Hf43      1.0  0.55781  0.68464  0.40964  1.0000
  Hf  Hf44      1.0  0.55549  0.67225  0.92731  1.0000
  Hf  Hf45      1.0  0.80656  0.17457  0.41929  1.0000
  Hf  Hf46      1.0  0.80179  0.17871  0.92411  1.0000
  Hf  Hf47      1.0  0.80537  0.68385  0.41436  1.0000
  Hf  Hf48      1.0  0.80576  0.67959  0.92655  1.0000
  Hf  Hf49      1.0  0.15904  0.38763  0.32952  1.0000
  Hf  Hf50      1.0  0.15618  0.39044  0.83794  1.0000
  Hf  Hf51      1.0  0.15885  0.88491  0.33845  1.0000
  Hf  Hf52      1.0  0.16062  0.89475  0.82886  1.0000
  Hf  Hf53      1.0  0.41017  0.39644  0.33413  1.0000
  Hf  Hf54      1.0  0.40898  0.39027  0.83111  1.0000
  Hf  Hf55      1.0  0.40952  0.89194  0.33241  1.0000
  Hf  Hf56      1.0  0.41022  0.89213  0.82544  1.0000
  Hf  Hf57      1.0  0.66195  0.38224  0.33393  1.0000
  Hf  Hf58      1.0  0.65762  0.39702  0.83220  1.0000
  Hf  Hf59      1.0  0.65780  0.88330  0.32894  1.0000
  Hf  Hf60      1.0  0.66096  0.89124  0.82654  1.0000
  Hf  Hf61      1.0  0.90513  0.38744  0.33605  1.0000
  Hf  Hf62      1.0  0.90585  0.38263  0.84148  1.0000
  Hf  Hf63      1.0  0.90645  0.87993  0.33892  1.0000
  Hf  Hf64      1.0  0.90995  0.88768  0.83945  1.0000
  Hf  Hf65      1.0  0.19587  0.32252  0.07581  1.0000
  Hf  Hf66      1.0  0.19084  0.31359  0.59078  1.0000
  Hf  Hf67      1.0  0.19606  0.81523  0.08267  1.0000
  Hf  Hf68      1.0  0.19696  0.81419  0.58279  1.0000
  Hf  Hf69      1.0  0.44546  0.32123  0.08775  1.0000
  Hf  Hf70      1.0  0.44470  0.31755  0.58375  1.0000
  Hf  Hf71      1.0  0.44460  0.81949  0.07219  1.0000
  Hf  Hf72      1.0  0.44570  0.81825  0.57875  1.0000
  Hf  Hf73      1.0  0.69339  0.31444  0.08396  1.0000
  Hf  Hf74      1.0  0.69368  0.31155  0.58527  1.0000
  Hf  Hf75      1.0  0.69512  0.81824  0.07938  1.0000
  Hf  Hf76      1.0  0.69424  0.81362  0.58359  1.0000
  Hf  Hf77      1.0  0.93956  0.31238  0.09431  1.0000
  Hf  Hf78      1.0  0.94401  0.31529  0.58527  1.0000
  Hf  Hf79      1.0  0.94349  0.81148  0.08586  1.0000
  Hf  Hf80      1.0  0.94330  0.80908  0.59571  1.0000
  Hf  Hf81      1.0  0.09634  0.11014  0.16110  1.0000
  Hf  Hf82      1.0  0.09120  0.11725  0.66493  1.0000
  Hf  Hf83      1.0  0.08863  0.61546  0.17168  1.0000
  Hf  Hf84      1.0  0.09378  0.61428  0.66428  1.0000
  Hf  Hf85      1.0  0.34194  0.11291  0.16503  1.0000
  Hf  Hf86      1.0  0.34038  0.11413  0.66424  1.0000
  Hf  Hf87      1.0  0.34060  0.61904  0.16203  1.0000
  Hf  Hf88      1.0  0.34052  0.61110  0.66738  1.0000
  Hf  Hf89      1.0  0.59178  0.10645  0.16663  1.0000
  Hf  Hf90      1.0  0.58928  0.11062  0.66535  1.0000
  Hf  Hf91      1.0  0.58715  0.60723  0.17566  1.0000
  Hf  Hf92      1.0  0.59408  0.61420  0.65832  1.0000
  Hf  Hf93      1.0  0.83975  0.10218  0.16745  1.0000
  Hf  Hf94      1.0  0.83966  0.09879  0.67522  1.0000
  Hf  Hf95      1.0  0.83983  0.60025  0.17886  1.0000
  Hf  Hf96      1.0  0.83465  0.61278  0.67373  1.0000
  F   F1        1.0  0.07791  0.12848  0.30799  1.0000
  F   F2        1.0  0.08411  0.15256  0.78826  1.0000
  F   F3        1.0  0.07612  0.62367  0.31554  1.0000
  F   F4        1.0  0.08083  0.63392  0.81125  1.0000
  F   F5        1.0  0.33236  0.13211  0.30117  1.0000
  F   F6        1.0  0.33065  0.13624  0.79456  1.0000
  F   F7        1.0  0.32682  0.62173  0.29916  1.0000
  F   F8        1.0  0.32950  0.61635  0.80944  1.0000
  F   F9        1.0  0.58575  0.12367  0.30125  1.0000
  F   F10       1.0  0.57570  0.12601  0.81132  1.0000
  F   F11       1.0  0.57000  0.60471  0.31862  1.0000
  F   F12       1.0  0.57212  0.62030  0.81517  1.0000
  F   F13       1.0  0.83029  0.12304  0.30921  1.0000
  F   F14       1.0  0.82553  0.10981  0.82407  1.0000
  F   F15       1.0  0.82618  0.61119  0.32058  1.0000
  F   F16       1.0  0.82363  0.62972  0.80736  1.0000
  F   F17       1.0  0.18129  0.34005  0.44763  1.0000
  F   F18       1.0  0.18843  0.35090  0.93848  1.0000
  F   F19       1.0  0.19318  0.83897  0.43698  1.0000
  F   F20       1.0  0.18394  0.84436  0.94333  1.0000
  F   F21       1.0  0.44566  0.35302  0.43600  1.0000
  F   F22       1.0  0.44032  0.34444  0.94192  1.0000
  F   F23       1.0  0.44532  0.86388  0.42136  1.0000
  F   F24       1.0  0.42346  0.83350  0.95350  1.0000
  F   F25       1.0  0.68067  0.31572  0.45648  1.0000
  F   F26       1.0  0.69133  0.35246  0.93835  1.0000
  F   F27       1.0  0.67757  0.83880  0.44966  1.0000
  F   F28       1.0  0.69037  0.83186  0.93928  1.0000
  F   F29       1.0  0.94401  0.34495  0.44380  1.0000
  F   F30       1.0  0.93064  0.33276  0.96511  1.0000
  F   F31       1.0  0.93666  0.82974  0.45243  1.0000
  F   F32       1.0  0.93464  0.84074  0.95439  1.0000
  F   F33       1.0  0.18176  0.38449  0.18721  1.0000
  F   F34       1.0  0.16692  0.35722  0.71024  1.0000
  F   F35       1.0  0.17405  0.88340  0.18012  1.0000
  F   F36       1.0  0.16998  0.87320  0.70039  1.0000
  F   F37       1.0  0.41816  0.37435  0.20370  1.0000
  F   F38       1.0  0.42158  0.35846  0.69908  1.0000
  F   F39       1.0  0.42107  0.86827  0.18806  1.0000
  F   F40       1.0  0.42782  0.88580  0.68081  1.0000
  F   F41       1.0  0.66791  0.36476  0.20089  1.0000
  F   F42       1.0  0.66840  0.37228  0.69390  1.0000
  F   F43       1.0  0.66812  0.85910  0.20677  1.0000
  F   F44       1.0  0.67031  0.87487  0.69581  1.0000
  F   F45       1.0  0.91291  0.35758  0.21754  1.0000
  F   F46       1.0  0.92273  0.37225  0.69268  1.0000
  F   F47       1.0  0.92593  0.86952  0.19211  1.0000
  F   F48       1.0  0.93430  0.89710  0.67733  1.0000
  F   F49       1.0  0.07045  0.16840  0.04698  1.0000
  F   F50       1.0  0.07103  0.16566  0.55065  1.0000
  F   F51       1.0  0.05846  0.65707  0.06240  1.0000
  F   F52       1.0  0.07238  0.67255  0.54631  1.0000
  F   F53       1.0  0.31428  0.17526  0.05247  1.0000
  F   F54       1.0  0.31204  0.15849  0.54939  1.0000
  F   F55       1.0  0.31250  0.66789  0.04664  1.0000
  F   F56       1.0  0.31728  0.67160  0.55307  1.0000
  F   F57       1.0  0.57676  0.18576  0.03626  1.0000
  F   F58       1.0  0.56053  0.16305  0.55299  1.0000
  F   F59       1.0  0.54636  0.63383  0.07508  1.0000
  F   F60       1.0  0.56346  0.66480  0.54582  1.0000
  F   F61       1.0  0.80713  0.15832  0.06211  1.0000
  F   F62       1.0  0.81318  0.15629  0.55123  1.0000
  F   F63       1.0  0.81503  0.65460  0.05751  1.0000
  F   F64       1.0  0.80306  0.66305  0.55139  1.0000
  F   F65       1.0  0.19456  0.20044  0.20779  1.0000
  F   F66       1.0  0.20958  0.19590  0.70737  1.0000
  F   F67       1.0  0.20424  0.70485  0.21760  1.0000
  F   F68       1.0  0.20146  0.69154  0.71314  1.0000
  F   F69       1.0  0.45587  0.20589  0.20946  1.0000
  F   F70       1.0  0.46122  0.20110  0.72067  1.0000
  F   F71       1.0  0.45897  0.70707  0.20707  1.0000
  F   F72       1.0  0.44906  0.70481  0.70539  1.0000
  F   F73       1.0  0.70263  0.18660  0.20096  1.0000
  F   F74       1.0  0.70922  0.19108  0.71290  1.0000
  F   F75       1.0  0.71010  0.69401  0.20856  1.0000
  F   F76       1.0  0.69738  0.69565  0.70348  1.0000
  F   F77       1.0  0.94765  0.19978  0.22776  1.0000
  F   F78       1.0  0.95994  0.20849  0.71556  1.0000
  F   F79       1.0  0.95438  0.70295  0.21910  1.0000
  F   F80       1.0  0.95597  0.70502  0.71495  1.0000
  F   F81       1.0  0.15035  0.08328  0.03205  1.0000
  F   F82       1.0  0.15757  0.09353  0.53109  1.0000
  F   F83       1.0  0.14810  0.61109  0.04092  1.0000
  F   F84       1.0  0.15606  0.59551  0.53527  1.0000
  F   F85       1.0  0.40144  0.08821  0.05409  1.0000
  F   F86       1.0  0.39884  0.10609  0.52899  1.0000
  F   F87       1.0  0.40088  0.60866  0.03741  1.0000
  F   F88       1.0  0.39555  0.58968  0.53775  1.0000
  F   F89       1.0  0.65012  0.09002  0.04251  1.0000
  F   F90       1.0  0.64561  0.11061  0.53900  1.0000
  F   F91       1.0  0.64426  0.62418  0.03201  1.0000
  F   F92       1.0  0.64117  0.58977  0.52887  1.0000
  F   F93       1.0  0.89511  0.07693  0.04857  1.0000
  F   F94       1.0  0.89060  0.09311  0.55220  1.0000
  F   F95       1.0  0.89741  0.59251  0.04272  1.0000
  F   F96       1.0  0.88778  0.59429  0.53920  1.0000
  F   F97       1.0  0.15592  0.19753  0.09805  1.0000
  F   F98       1.0  0.15545  0.19503  0.62547  1.0000
  F   F99       1.0  0.14756  0.69779  0.13655  1.0000
  F   F100      1.0  0.15393  0.70095  0.61798  1.0000
  F   F101      1.0  0.39999  0.20821  0.11728  1.0000
  F   F102      1.0  0.40402  0.19687  0.62240  1.0000
  F   F103      1.0  0.40048  0.70953  0.12749  1.0000
  F   F104      1.0  0.39574  0.71175  0.61453  1.0000
  F   F105      1.0  0.64850  0.19369  0.10839  1.0000
  F   F106      1.0  0.64777  0.19252  0.64857  1.0000
  F   F107      1.0  0.64571  0.70723  0.14770  1.0000
  F   F108      1.0  0.65642  0.69173  0.60533  1.0000
  F   F109      1.0  0.89506  0.18994  0.12814  1.0000
  F   F110      1.0  0.90111  0.19984  0.63969  1.0000
  F   F111      1.0  0.90219  0.67548  0.13708  1.0000
  F   F112      1.0  0.90064  0.68566  0.64333  1.0000
  F   F113      1.0  0.10048  0.31098  0.36026  1.0000
  F   F114      1.0  0.09977  0.29909  0.87978  1.0000
  F   F115      1.0  0.10393  0.80370  0.36655  1.0000
  F   F116      1.0  0.10499  0.80790  0.88992  1.0000
  F   F117      1.0  0.34912  0.30929  0.38514  1.0000
  F   F118      1.0  0.34761  0.30893  0.86396  1.0000
  F   F119      1.0  0.35183  0.80274  0.37041  1.0000
  F   F120      1.0  0.35210  0.80844  0.86044  1.0000
  F   F121      1.0  0.61247  0.28027  0.37792  1.0000
  F   F122      1.0  0.59586  0.31356  0.86143  1.0000
  F   F123      1.0  0.60133  0.79847  0.38441  1.0000
  F   F124      1.0  0.61078  0.78680  0.89901  1.0000
  F   F125      1.0  0.84665  0.28250  0.37364  1.0000
  F   F126      1.0  0.85030  0.30137  0.86974  1.0000
  F   F127      1.0  0.85058  0.81180  0.36459  1.0000
  F   F128      1.0  0.84675  0.79808  0.87292  1.0000
  F   F129      1.0  0.06781  0.25152  0.14233  1.0000
  F   F130      1.0  0.06606  0.25113  0.64600  1.0000
  F   F131      1.0  0.06264  0.75465  0.15036  1.0000
  F   F132      1.0  0.06743  0.74324  0.65936  1.0000
  F   F133      1.0  0.30702  0.26198  0.14757  1.0000
  F   F134      1.0  0.31757  0.25516  0.63642  1.0000
  F   F135      1.0  0.31424  0.75328  0.13810  1.0000
  F   F136      1.0  0.30417  0.74305  0.66085  1.0000
  F   F137      1.0  0.55193  0.24440  0.17129  1.0000
  F   F138      1.0  0.56493  0.24654  0.64234  1.0000
  F   F139      1.0  0.56174  0.75079  0.15135  1.0000
  F   F140      1.0  0.55707  0.75430  0.65588  1.0000
  F   F141      1.0  0.81155  0.24413  0.15525  1.0000
  F   F142      1.0  0.80425  0.23601  0.67289  1.0000
  F   F143      1.0  0.80763  0.73877  0.14695  1.0000
  F   F144      1.0  0.81612  0.75544  0.63096  1.0000
  F   F145      1.0  0.12221  0.36068  0.12851  1.0000
  F   F146      1.0  0.11669  0.37599  0.62338  1.0000
  F   F147      1.0  0.11870  0.86988  0.11818  1.0000
  F   F148      1.0  0.12378  0.87186  0.60650  1.0000
  F   F149      1.0  0.38304  0.38131  0.09346  1.0000
  F   F150      1.0  0.37116  0.37152  0.60695  1.0000
  F   F151      1.0  0.37496  0.88177  0.09511  1.0000
  F   F152      1.0  0.37299  0.86151  0.60516  1.0000
  F   F153      1.0  0.62344  0.35257  0.10745  1.0000
  F   F154      1.0  0.62567  0.36681  0.59447  1.0000
  F   F155      1.0  0.62369  0.88172  0.09866  1.0000
  F   F156      1.0  0.62641  0.85888  0.60883  1.0000
  F   F157      1.0  0.87509  0.38838  0.10728  1.0000
  F   F158      1.0  0.86973  0.36583  0.61220  1.0000
  F   F159      1.0  0.87470  0.84268  0.12623  1.0000
  F   F160      1.0  0.87262  0.84987  0.63071  1.0000
  F   F161      1.0  0.19080  0.25206  0.33564  1.0000
  F   F162      1.0  0.18553  0.25124  0.85858  1.0000
  F   F163      1.0  0.18134  0.74908  0.35979  1.0000
  F   F164      1.0  0.19417  0.75338  0.83986  1.0000
  F   F165      1.0  0.43629  0.26029  0.35587  1.0000
  F   F166      1.0  0.42826  0.24978  0.86991  1.0000
  F   F167      1.0  0.43023  0.74583  0.37078  1.0000
  F   F168      1.0  0.44137  0.75279  0.84301  1.0000
  F   F169      1.0  0.69805  0.23859  0.33780  1.0000
  F   F170      1.0  0.68900  0.25296  0.84716  1.0000
  F   F171      1.0  0.69184  0.74012  0.35475  1.0000
  F   F172      1.0  0.69885  0.75349  0.83055  1.0000
  F   F173      1.0  0.92620  0.23963  0.39295  1.0000
  F   F174      1.0  0.92708  0.24436  0.88205  1.0000
  F   F175      1.0  0.92727  0.74205  0.36776  1.0000
  F   F176      1.0  0.92924  0.74243  0.87035  1.0000
  F   F177      1.0  0.12395  0.13475  0.39556  1.0000
  F   F178      1.0  0.13233  0.14078  0.88061  1.0000
  F   F179      1.0  0.12323  0.63151  0.39567  1.0000
  F   F180      1.0  0.12068  0.62015  0.91832  1.0000
  F   F181      1.0  0.37687  0.13937  0.38541  1.0000
  F   F182      1.0  0.37432  0.12758  0.90520  1.0000
  F   F183      1.0  0.37919  0.64649  0.37147  1.0000
  F   F184      1.0  0.37889  0.64057  0.88893  1.0000
  F   F185      1.0  0.62690  0.10681  0.40235  1.0000
  F   F186      1.0  0.62695  0.15776  0.88087  1.0000
  F   F187      1.0  0.62798  0.65545  0.35824  1.0000
  F   F188      1.0  0.63023  0.63873  0.87957  1.0000
  F   F189      1.0  0.87391  0.10038  0.41037  1.0000
  F   F190      1.0  0.87045  0.12892  0.89675  1.0000
  F   F191      1.0  0.87502  0.64907  0.37595  1.0000
  F   F192      1.0  0.87599  0.61881  0.89445  1.0000
  F   F193      1.0  0.00357  0.34952  0.08151  1.0000
  F   F194      1.0  0.00606  0.37170  0.56370  1.0000
  F   F195      1.0  0.01041  0.86170  0.05470  1.0000
  F   F196      1.0  0.01036  0.85977  0.56327  1.0000
  F   F197      1.0  0.26356  0.36901  0.05885  1.0000
  F   F198      1.0  0.25177  0.36122  0.59390  1.0000
  F   F199      1.0  0.26000  0.86955  0.06973  1.0000
  F   F200      1.0  0.25639  0.86088  0.58007  1.0000
  F   F201      1.0  0.50618  0.36610  0.07027  1.0000
  F   F202      1.0  0.50527  0.35566  0.59133  1.0000
  F   F203      1.0  0.51278  0.85619  0.07181  1.0000
  F   F204      1.0  0.50969  0.86411  0.56341  1.0000
  F   F205      1.0  0.75203  0.36642  0.07409  1.0000
  F   F206      1.0  0.75573  0.36242  0.57586  1.0000
  F   F207      1.0  0.75443  0.87527  0.07198  1.0000
  F   F208      1.0  0.75227  0.85757  0.58904  1.0000
  F   F209      1.0  0.06857  0.48566  0.16642  1.0000
  F   F210      1.0  0.06431  0.49452  0.67516  1.0000
  F   F211      1.0  0.06851  0.98602  0.17547  1.0000
  F   F212      1.0  0.07184  0.99067  0.67192  1.0000
  F   F213      1.0  0.32336  0.49962  0.15094  1.0000
  F   F214      1.0  0.30927  0.49107  0.67530  1.0000
  F   F215      1.0  0.31278  0.98928  0.17804  1.0000
  F   F216      1.0  0.31809  0.99262  0.66571  1.0000
  F   F217      1.0  0.57025  0.48302  0.17072  1.0000
  F   F218      1.0  0.56841  0.48255  0.68124  1.0000
  F   F219      1.0  0.56538  0.00106  0.15341  1.0000
  F   F220      1.0  0.57337  0.98766  0.65599  1.0000
  F   F221      1.0  0.81174  0.48275  0.19363  1.0000
  F   F222      1.0  0.81101  0.48781  0.67716  1.0000
  F   F223      1.0  0.81944  0.97263  0.17417  1.0000
  F   F224      1.0  0.81999  0.97576  0.67948  1.0000
  F   F225      1.0  0.24565  0.14119  0.42255  1.0000
  F   F226      1.0  0.24613  0.14798  0.90260  1.0000
  F   F227      1.0  0.24280  0.63688  0.41649  1.0000
  F   F228      1.0  0.24417  0.63979  0.91736  1.0000
  F   F229      1.0  0.49561  0.15304  0.40594  1.0000
  F   F230      1.0  0.49187  0.13887  0.91934  1.0000
  F   F231      1.0  0.49359  0.64101  0.41493  1.0000
  F   F232      1.0  0.49063  0.62389  0.93504  1.0000
  F   F233      1.0  0.74126  0.12980  0.42802  1.0000
  F   F234      1.0  0.73952  0.13373  0.93810  1.0000
  F   F235      1.0  0.73893  0.63022  0.44379  1.0000
  F   F236      1.0  0.74104  0.62916  0.93463  1.0000
  F   F237      1.0  0.99225  0.12079  0.43630  1.0000
  F   F238      1.0  0.98987  0.14222  0.91491  1.0000
  F   F239      1.0  0.98726  0.64078  0.42282  1.0000
  F   F240      1.0  0.99090  0.65098  0.91364  1.0000
  F   F241      1.0  0.18269  0.00409  0.34148  1.0000
  F   F242      1.0  0.18316  0.02128  0.82026  1.0000
  F   F243      1.0  0.18171  0.51583  0.30929  1.0000
  F   F244      1.0  0.17296  0.52243  0.82761  1.0000
  F   F245      1.0  0.42928  0.01807  0.33510  1.0000
  F   F246      1.0  0.43071  0.01359  0.81497  1.0000
  F   F247      1.0  0.43818  0.52601  0.31677  1.0000
  F   F248      1.0  0.42581  0.51771  0.82099  1.0000
  F   F249      1.0  0.68732  0.01036  0.29304  1.0000
  F   F250      1.0  0.67284  0.02471  0.82681  1.0000
  F   F251      1.0  0.68247  0.51612  0.32473  1.0000
  F   F252      1.0  0.67608  0.51495  0.83865  1.0000
  F   F253      1.0  0.93306  0.00677  0.32294  1.0000
  F   F254      1.0  0.93450  0.01699  0.80886  1.0000
  F   F255      1.0  0.92692  0.51213  0.33201  1.0000
  F   F256      1.0  0.93186  0.50620  0.83015  1.0000
  F   F257      1.0  0.99439  0.22644  0.02272  1.0000
  F   F258      1.0  0.99803  0.22129  0.52739  1.0000
  F   F259      1.0  0.99364  0.74027  0.00544  1.0000
  F   F260      1.0  0.99576  0.74284  0.50962  1.0000
  F   F261      1.0  0.24890  0.25424  0.99684  1.0000
  F   F262      1.0  0.25006  0.25750  0.49890  1.0000
  F   F263      1.0  0.25121  0.76040  0.99419  1.0000
  F   F264      1.0  0.25296  0.75872  0.49269  1.0000
  F   F265      1.0  0.50473  0.24275  0.99721  1.0000
  F   F266      1.0  0.51190  0.28112  0.48289  1.0000
  F   F267      1.0  0.50105  0.75460  0.99293  1.0000
  F   F268      1.0  0.49315  0.73388  0.51592  1.0000
  F   F269      1.0  0.74546  0.24829  0.00432  1.0000
  F   F270      1.0  0.75000  0.24796  0.49542  1.0000
  F   F271      1.0  0.75291  0.76034  0.99377  1.0000
  F   F272      1.0  0.75211  0.78033  0.47011  1.0000
  F   F273      1.0  0.12345  0.99907  0.25679  1.0000
  F   F274      1.0  0.12078  0.01330  0.75707  1.0000
  F   F275      1.0  0.12438  0.50168  0.24323  1.0000
  F   F276      1.0  0.13445  0.50418  0.73838  1.0000
  F   F277      1.0  0.37449  0.99788  0.25778  1.0000
  F   F278      1.0  0.38021  0.00870  0.73406  1.0000
  F   F279      1.0  0.37925  0.51389  0.24485  1.0000
  F   F280      1.0  0.38262  0.50281  0.72758  1.0000
  F   F281      1.0  0.61328  0.97858  0.26205  1.0000
  F   F282      1.0  0.61895  0.99187  0.74199  1.0000
  F   F283      1.0  0.63730  0.50519  0.22931  1.0000
  F   F284      1.0  0.63224  0.51780  0.74006  1.0000
  F   F285      1.0  0.87325  0.99247  0.24740  1.0000
  F   F286      1.0  0.87081  0.99344  0.77122  1.0000
  F   F287      1.0  0.87270  0.48461  0.26009  1.0000
  F   F288      1.0  0.87249  0.49895  0.75003  1.0000
  F   F289      1.0  0.04179  0.03738  0.02243  1.0000
  F   F290      1.0  0.04633  0.02065  0.52570  1.0000
  F   F291      1.0  0.04288  0.52101  0.03090  1.0000
  F   F292      1.0  0.02990  0.54712  0.53911  1.0000
  F   F293      1.0  0.28906  0.05299  0.02435  1.0000
  F   F294      1.0  0.29362  0.02831  0.51298  1.0000
  F   F295      1.0  0.29083  0.54322  0.01013  1.0000
  F   F296      1.0  0.29678  0.53438  0.50835  1.0000
  F   F297      1.0  0.54402  0.03805  0.00988  1.0000
  F   F298      1.0  0.53703  0.03101  0.52577  1.0000
  F   F299      1.0  0.55013  0.52074  0.01665  1.0000
  F   F300      1.0  0.54536  0.52992  0.51539  1.0000
  F   F301      1.0  0.79140  0.01655  0.02429  1.0000
  F   F302      1.0  0.79369  0.02197  0.53243  1.0000
  F   F303      1.0  0.79384  0.52095  0.02152  1.0000
  F   F304      1.0  0.80184  0.52181  0.51612  1.0000
  F   F305      1.0  0.23938  0.41803  0.23339  1.0000
  F   F306      1.0  0.23304  0.41174  0.73842  1.0000
  F   F307      1.0  0.23310  0.90897  0.22830  1.0000
  F   F308      1.0  0.23914  0.92458  0.72017  1.0000
  F   F309      1.0  0.48682  0.41738  0.22072  1.0000
  F   F310      1.0  0.48419  0.42527  0.71139  1.0000
  F   F311      1.0  0.48647  0.91449  0.22303  1.0000
  F   F312      1.0  0.49543  0.90557  0.72893  1.0000
  F   F313      1.0  0.72984  0.41981  0.22845  1.0000
  F   F314      1.0  0.73244  0.42166  0.72502  1.0000
  F   F315      1.0  0.73732  0.89371  0.22916  1.0000
  F   F316      1.0  0.73799  0.91727  0.72965  1.0000
  F   F317      1.0  0.98328  0.39938  0.23295  1.0000
  F   F318      1.0  0.98217  0.38423  0.74926  1.0000
  F   F319      1.0  0.98319  0.90991  0.22661  1.0000
  F   F320      1.0  0.98904  0.89012  0.74421  1.0000
  F   F321      1.0  0.20265  0.46181  0.47884  1.0000
  F   F322      1.0  0.20221  0.47276  0.98626  1.0000
  F   F323      1.0  0.21427  0.95933  0.47957  1.0000
  F   F324      1.0  0.21003  0.96568  0.96068  1.0000
  F   F325      1.0  0.45308  0.47376  0.48249  1.0000
  F   F326      1.0  0.45949  0.47058  0.97673  1.0000
  F   F327      1.0  0.45779  0.98084  0.47989  1.0000
  F   F328      1.0  0.45506  0.96591  0.96652  1.0000
  F   F329      1.0  0.70346  0.45950  0.48118  1.0000
  F   F330      1.0  0.69361  0.47526  0.99062  1.0000
  F   F331      1.0  0.69878  0.96607  0.47742  1.0000
  F   F332      1.0  0.70308  0.96746  0.98537  1.0000
  F   F333      1.0  0.94792  0.46953  0.49332  1.0000
  F   F334      1.0  0.95671  0.46466  0.98143  1.0000
  F   F335      1.0  0.95240  0.96977  0.47768  1.0000
  F   F336      1.0  0.95540  0.96162  0.97829  1.0000
  F   F337      1.0  0.01589  0.08840  0.25923  1.0000
  F   F338      1.0  0.01682  0.07980  0.77314  1.0000
  F   F339      1.0  0.01732  0.58253  0.26659  1.0000
  F   F340      1.0  0.02103  0.58729  0.76977  1.0000
  F   F341      1.0  0.26567  0.10434  0.26854  1.0000
  F   F342      1.0  0.27052  0.08518  0.76906  1.0000
  F   F343      1.0  0.26263  0.58983  0.26780  1.0000
  F   F344      1.0  0.26165  0.58437  0.77901  1.0000
  F   F345      1.0  0.51603  0.07130  0.28254  1.0000
  F   F346      1.0  0.51666  0.06971  0.77845  1.0000
  F   F347      1.0  0.51682  0.58465  0.25967  1.0000
  F   F348      1.0  0.51599  0.58445  0.76474  1.0000
  F   F349      1.0  0.76736  0.06323  0.27627  1.0000
  F   F350      1.0  0.76260  0.06688  0.78469  1.0000
  F   F351      1.0  0.76766  0.55970  0.30467  1.0000
  F   F352      1.0  0.76379  0.60084  0.76356  1.0000
  F   F353      1.0  0.09989  0.40880  0.46832  1.0000
  F   F354      1.0  0.09523  0.40048  0.97098  1.0000
  F   F355      1.0  0.09955  0.88353  0.47302  1.0000
  F   F356      1.0  0.10359  0.92155  0.96391  1.0000
  F   F357      1.0  0.35472  0.42627  0.44752  1.0000
  F   F358      1.0  0.35216  0.41570  0.96173  1.0000
  F   F359      1.0  0.35363  0.90102  0.45746  1.0000
  F   F360      1.0  0.34665  0.92141  0.94670  1.0000
  F   F361      1.0  0.60104  0.41811  0.43702  1.0000
  F   F362      1.0  0.59888  0.38857  0.96622  1.0000
  F   F363      1.0  0.60282  0.91648  0.45369  1.0000
  F   F364      1.0  0.60011  0.91734  0.95280  1.0000
  F   F365      1.0  0.85036  0.39251  0.46203  1.0000
  F   F366      1.0  0.85389  0.39055  0.97827  1.0000
  F   F367      1.0  0.85553  0.89801  0.47119  1.0000
  F   F368      1.0  0.85690  0.89653  0.97652  1.0000
  F   F369      1.0  0.04312  0.28991  0.29008  1.0000
  F   F370      1.0  0.04757  0.30031  0.80113  1.0000
  F   F371      1.0  0.04339  0.80091  0.29457  1.0000
  F   F372      1.0  0.05252  0.80855  0.80005  1.0000
  F   F373      1.0  0.30022  0.30565  0.27482  1.0000
  F   F374      1.0  0.29860  0.30631  0.77750  1.0000
  F   F375      1.0  0.30213  0.79665  0.27559  1.0000
  F   F376      1.0  0.29428  0.80875  0.78577  1.0000
  F   F377      1.0  0.55256  0.29519  0.29232  1.0000
  F   F378      1.0  0.54327  0.30813  0.77592  1.0000
  F   F379      1.0  0.54429  0.79820  0.29612  1.0000
  F   F380      1.0  0.56539  0.78562  0.79465  1.0000
  F   F381      1.0  0.79141  0.30486  0.28301  1.0000
  F   F382      1.0  0.79254  0.31079  0.80564  1.0000
  F   F383      1.0  0.79562  0.78733  0.28653  1.0000
  F   F384      1.0  0.79715  0.79337  0.78311  1.0000
