data_image0
_chemical_formula_structural       Hf96F384
_chemical_formula_sum              "Hf96 F384"
_cell_length_a       31.0362
_cell_length_b       15.5185
_cell_length_c       15.5069
_cell_angle_alpha    63.342
_cell_angle_beta     63.342
_cell_angle_gamma    80.1625

_space_group_name_H-M_alt    "P 1"
_space_group_IT_number       1

loop_
  _space_group_symop_operation_xyz
  'x, y, z'

loop_
  _atom_site_type_symbol
  _atom_site_label
  _atom_site_symmetry_multiplicity
  _atom_site_fract_x
  _atom_site_fract_y
  _atom_site_fract_z
  _atom_site_occupancy
  Hf  Hf1       1.0  0.19647  0.11772  0.37233  1.0000
  Hf  Hf2       1.0  0.20096  0.11045  0.86440  1.0000
  Hf  Hf3       1.0  0.19459  0.61702  0.36887  1.0000
  Hf  Hf4       1.0  0.19809  0.61700  0.86935  1.0000
  Hf  Hf5       1.0  0.44711  0.10772  0.37528  1.0000
  Hf  Hf6       1.0  0.44965  0.10586  0.86366  1.0000
  Hf  Hf7       1.0  0.44361  0.60603  0.38114  1.0000
  Hf  Hf8       1.0  0.44449  0.60149  0.88667  1.0000
  Hf  Hf9       1.0  0.69710  0.09870  0.38159  1.0000
  Hf  Hf10      1.0  0.69547  0.10475  0.87695  1.0000
  Hf  Hf11      1.0  0.69643  0.60253  0.37377  1.0000
  Hf  Hf12      1.0  0.70085  0.60184  0.87426  1.0000
  Hf  Hf13      1.0  0.94574  0.10564  0.37729  1.0000
  Hf  Hf14      1.0  0.94262  0.10214  0.88135  1.0000
  Hf  Hf15      1.0  0.94529  0.60505  0.37479  1.0000
  Hf  Hf16      1.0  0.95075  0.61045  0.86882  1.0000
  Hf  Hf17      1.0  0.05543  0.40007  0.11691  1.0000
  Hf  Hf18      1.0  0.05346  0.41041  0.62482  1.0000
  Hf  Hf19      1.0  0.05377  0.89220  0.12010  1.0000
  Hf  Hf20      1.0  0.05331  0.90126  0.62198  1.0000
  Hf  Hf21      1.0  0.30382  0.39988  0.12329  1.0000
  Hf  Hf22      1.0  0.30287  0.39792  0.62346  1.0000
  Hf  Hf23      1.0  0.30569  0.90401  0.12161  1.0000
  Hf  Hf24      1.0  0.30677  0.89223  0.61514  1.0000
  Hf  Hf25      1.0  0.55362  0.38919  0.13019  1.0000
  Hf  Hf26      1.0  0.55430  0.39636  0.61726  1.0000
  Hf  Hf27      1.0  0.55455  0.88757  0.12171  1.0000
  Hf  Hf28      1.0  0.55488  0.88578  0.62635  1.0000
  Hf  Hf29      1.0  0.79895  0.38537  0.13777  1.0000
  Hf  Hf30      1.0  0.80580  0.39181  0.63085  1.0000
  Hf  Hf31      1.0  0.80196  0.88971  0.12536  1.0000
  Hf  Hf32      1.0  0.80516  0.88226  0.62905  1.0000
  Hf  Hf33      1.0  0.05540  0.19478  0.40760  1.0000
  Hf  Hf34      1.0  0.05392  0.18044  0.92296  1.0000
  Hf  Hf35      1.0  0.05279  0.69294  0.41153  1.0000
  Hf  Hf36      1.0  0.05499  0.68233  0.91973  1.0000
  Hf  Hf37      1.0  0.30286  0.18588  0.41918  1.0000
  Hf  Hf38      1.0  0.30472  0.17900  0.92183  1.0000
  Hf  Hf39      1.0  0.30257  0.67765  0.42634  1.0000
  Hf  Hf40      1.0  0.30670  0.68983  0.91550  1.0000
  Hf  Hf41      1.0  0.55650  0.17571  0.42296  1.0000
  Hf  Hf42      1.0  0.55331  0.17801  0.92398  1.0000
  Hf  Hf43      1.0  0.55601  0.67812  0.41591  1.0000
  Hf  Hf44      1.0  0.55842  0.66883  0.92224  1.0000
  Hf  Hf45      1.0  0.80626  0.18254  0.42047  1.0000
  Hf  Hf46      1.0  0.80212  0.18314  0.92799  1.0000
  Hf  Hf47      1.0  0.80487  0.68598  0.41400  1.0000
  Hf  Hf48      1.0  0.80990  0.67842  0.91515  1.0000
  Hf  Hf49      1.0  0.15666  0.39682  0.33183  1.0000
  Hf  Hf50      1.0  0.15266  0.39012  0.83960  1.0000
  Hf  Hf51      1.0  0.16186  0.89103  0.32630  1.0000
  Hf  Hf52      1.0  0.16272  0.89013  0.82444  1.0000
  Hf  Hf53      1.0  0.40623  0.39354  0.33193  1.0000
  Hf  Hf54      1.0  0.40905  0.38354  0.83216  1.0000
  Hf  Hf55      1.0  0.40910  0.88939  0.32355  1.0000
  Hf  Hf56      1.0  0.41346  0.89228  0.82514  1.0000
  Hf  Hf57      1.0  0.65574  0.37322  0.34386  1.0000
  Hf  Hf58      1.0  0.65624  0.38404  0.84654  1.0000
  Hf  Hf59      1.0  0.65624  0.88031  0.33647  1.0000
  Hf  Hf60      1.0  0.65965  0.88220  0.83313  1.0000
  Hf  Hf61      1.0  0.90483  0.38957  0.33604  1.0000
  Hf  Hf62      1.0  0.91159  0.38369  0.83830  1.0000
  Hf  Hf63      1.0  0.90927  0.88891  0.32981  1.0000
  Hf  Hf64      1.0  0.91180  0.88843  0.82495  1.0000
  Hf  Hf65      1.0  0.19236  0.32149  0.08635  1.0000
  Hf  Hf66      1.0  0.19038  0.32044  0.58464  1.0000
  Hf  Hf67      1.0  0.19691  0.82462  0.07841  1.0000
  Hf  Hf68      1.0  0.19106  0.81509  0.58729  1.0000
  Hf  Hf69      1.0  0.44331  0.32055  0.08473  1.0000
  Hf  Hf70      1.0  0.44672  0.32188  0.57175  1.0000
  Hf  Hf71      1.0  0.44453  0.81313  0.08376  1.0000
  Hf  Hf72      1.0  0.44429  0.82484  0.57875  1.0000
  Hf  Hf73      1.0  0.69124  0.30733  0.09675  1.0000
  Hf  Hf74      1.0  0.69446  0.31802  0.58425  1.0000
  Hf  Hf75      1.0  0.69702  0.81663  0.08272  1.0000
  Hf  Hf76      1.0  0.69336  0.81033  0.58524  1.0000
  Hf  Hf77      1.0  0.94223  0.31255  0.08231  1.0000
  Hf  Hf78      1.0  0.94367  0.32855  0.58231  1.0000
  Hf  Hf79      1.0  0.94350  0.80898  0.08974  1.0000
  Hf  Hf80      1.0  0.94533  0.81749  0.57746  1.0000
  Hf  Hf81      1.0  0.09390  0.11390  0.15948  1.0000
  Hf  Hf82      1.0  0.08792  0.11707  0.67042  1.0000
  Hf  Hf83      1.0  0.09652  0.61663  0.16280  1.0000
  Hf  Hf84      1.0  0.09183  0.61311  0.66753  1.0000
  Hf  Hf85      1.0  0.34301  0.12098  0.16370  1.0000
  Hf  Hf86      1.0  0.34330  0.11625  0.66464  1.0000
  Hf  Hf87      1.0  0.33996  0.61586  0.16968  1.0000
  Hf  Hf88      1.0  0.34130  0.60924  0.66467  1.0000
  Hf  Hf89      1.0  0.59248  0.10461  0.17115  1.0000
  Hf  Hf90      1.0  0.59371  0.10113  0.67092  1.0000
  Hf  Hf91      1.0  0.59340  0.60101  0.16715  1.0000
  Hf  Hf92      1.0  0.58815  0.60625  0.66898  1.0000
  Hf  Hf93      1.0  0.83942  0.11342  0.17209  1.0000
  Hf  Hf94      1.0  0.84133  0.11322  0.66707  1.0000
  Hf  Hf95      1.0  0.84040  0.61221  0.16651  1.0000
  Hf  Hf96      1.0  0.84467  0.60399  0.66756  1.0000
  F   F1        1.0  0.07993  0.12432  0.29595  1.0000
  F   F2        1.0  0.07263  0.12106  0.81132  1.0000
  F   F3        1.0  0.07443  0.63283  0.30102  1.0000
  F   F4        1.0  0.08143  0.63215  0.80157  1.0000
  F   F5        1.0  0.32923  0.13901  0.30431  1.0000
  F   F6        1.0  0.33461  0.14468  0.79778  1.0000
  F   F7        1.0  0.32721  0.62323  0.30990  1.0000
  F   F8        1.0  0.34282  0.62742  0.79139  1.0000
  F   F9        1.0  0.57506  0.11088  0.30801  1.0000
  F   F10       1.0  0.58641  0.11638  0.81447  1.0000
  F   F11       1.0  0.57716  0.61154  0.30684  1.0000
  F   F12       1.0  0.57780  0.62538  0.80564  1.0000
  F   F13       1.0  0.83198  0.14192  0.30932  1.0000
  F   F14       1.0  0.82862  0.12985  0.80775  1.0000
  F   F15       1.0  0.82915  0.63400  0.29759  1.0000
  F   F16       1.0  0.83429  0.64071  0.79229  1.0000
  F   F17       1.0  0.17782  0.33725  0.45710  1.0000
  F   F18       1.0  0.17275  0.33927  0.95859  1.0000
  F   F19       1.0  0.19034  0.83596  0.44702  1.0000
  F   F20       1.0  0.18488  0.84723  0.94779  1.0000
  F   F21       1.0  0.43574  0.34495  0.44416  1.0000
  F   F22       1.0  0.43674  0.34842  0.94212  1.0000
  F   F23       1.0  0.43496  0.84485  0.44294  1.0000
  F   F24       1.0  0.43893  0.83634  0.94197  1.0000
  F   F25       1.0  0.68214  0.35337  0.44677  1.0000
  F   F26       1.0  0.67735  0.33950  0.96294  1.0000
  F   F27       1.0  0.68122  0.83347  0.45973  1.0000
  F   F28       1.0  0.68840  0.83730  0.95055  1.0000
  F   F29       1.0  0.93164  0.34345  0.44467  1.0000
  F   F30       1.0  0.94693  0.35271  0.92792  1.0000
  F   F31       1.0  0.94213  0.83770  0.43505  1.0000
  F   F32       1.0  0.93556  0.83384  0.94656  1.0000
  F   F33       1.0  0.16618  0.39049  0.18962  1.0000
  F   F34       1.0  0.16750  0.37842  0.69117  1.0000
  F   F35       1.0  0.17678  0.87138  0.19887  1.0000
  F   F36       1.0  0.16222  0.86314  0.70396  1.0000
  F   F37       1.0  0.42411  0.37446  0.19652  1.0000
  F   F38       1.0  0.42825  0.37265  0.68379  1.0000
  F   F39       1.0  0.42232  0.88648  0.18527  1.0000
  F   F40       1.0  0.42678  0.88502  0.68771  1.0000
  F   F41       1.0  0.66084  0.32130  0.23452  1.0000
  F   F42       1.0  0.66908  0.36805  0.70182  1.0000
  F   F43       1.0  0.66543  0.85178  0.20548  1.0000
  F   F44       1.0  0.66072  0.84955  0.72196  1.0000
  F   F45       1.0  0.91561  0.36779  0.19451  1.0000
  F   F46       1.0  0.91730  0.36844  0.70615  1.0000
  F   F47       1.0  0.92147  0.87407  0.18883  1.0000
  F   F48       1.0  0.92550  0.88745  0.68731  1.0000
  F   F49       1.0  0.06303  0.16500  0.05459  1.0000
  F   F50       1.0  0.06414  0.17578  0.54552  1.0000
  F   F51       1.0  0.05888  0.66449  0.05323  1.0000
  F   F52       1.0  0.06745  0.67643  0.54688  1.0000
  F   F53       1.0  0.31714  0.15628  0.05080  1.0000
  F   F54       1.0  0.31178  0.15401  0.56164  1.0000
  F   F55       1.0  0.31901  0.67893  0.03961  1.0000
  F   F56       1.0  0.32115  0.67583  0.54276  1.0000
  F   F57       1.0  0.56255  0.15053  0.06630  1.0000
  F   F58       1.0  0.56445  0.14628  0.55962  1.0000
  F   F59       1.0  0.56837  0.65169  0.04874  1.0000
  F   F60       1.0  0.56727  0.66210  0.54465  1.0000
  F   F61       1.0  0.80869  0.15129  0.06411  1.0000
  F   F62       1.0  0.81704  0.16019  0.55474  1.0000
  F   F63       1.0  0.81266  0.63814  0.05964  1.0000
  F   F64       1.0  0.81332  0.65536  0.54929  1.0000
  F   F65       1.0  0.20686  0.20582  0.20287  1.0000
  F   F66       1.0  0.20804  0.18950  0.70837  1.0000
  F   F67       1.0  0.20545  0.70653  0.21419  1.0000
  F   F68       1.0  0.20201  0.70805  0.71135  1.0000
  F   F69       1.0  0.44299  0.20273  0.22793  1.0000
  F   F70       1.0  0.45310  0.19492  0.71371  1.0000
  F   F71       1.0  0.44120  0.70971  0.22508  1.0000
  F   F72       1.0  0.45441  0.70960  0.69970  1.0000
  F   F73       1.0  0.70575  0.18592  0.21768  1.0000
  F   F74       1.0  0.69361  0.18614  0.70375  1.0000
  F   F75       1.0  0.70333  0.69557  0.21346  1.0000
  F   F76       1.0  0.70450  0.69810  0.71604  1.0000
  F   F77       1.0  0.94659  0.19048  0.21179  1.0000
  F   F78       1.0  0.95794  0.20403  0.70279  1.0000
  F   F79       1.0  0.95222  0.70377  0.21070  1.0000
  F   F80       1.0  0.95620  0.71014  0.71002  1.0000
  F   F81       1.0  0.15410  0.11009  0.03979  1.0000
  F   F82       1.0  0.14770  0.10415  0.53107  1.0000
  F   F83       1.0  0.15178  0.59252  0.03913  1.0000
  F   F84       1.0  0.14710  0.59267  0.53913  1.0000
  F   F85       1.0  0.40271  0.10046  0.03542  1.0000
  F   F86       1.0  0.39381  0.08376  0.55259  1.0000
  F   F87       1.0  0.40114  0.61012  0.03097  1.0000
  F   F88       1.0  0.40139  0.58553  0.52957  1.0000
  F   F89       1.0  0.64904  0.09835  0.03689  1.0000
  F   F90       1.0  0.64538  0.07422  0.53419  1.0000
  F   F91       1.0  0.64805  0.59078  0.03810  1.0000
  F   F92       1.0  0.65045  0.59091  0.53733  1.0000
  F   F93       1.0  0.89868  0.07933  0.04165  1.0000
  F   F94       1.0  0.90338  0.09521  0.53904  1.0000
  F   F95       1.0  0.89763  0.59976  0.03873  1.0000
  F   F96       1.0  0.90172  0.58573  0.53674  1.0000
  F   F97       1.0  0.15636  0.20546  0.12522  1.0000
  F   F98       1.0  0.14754  0.18837  0.63370  1.0000
  F   F99       1.0  0.15637  0.68077  0.13627  1.0000
  F   F100      1.0  0.15412  0.70336  0.61416  1.0000
  F   F101      1.0  0.39651  0.20459  0.13003  1.0000
  F   F102      1.0  0.40575  0.20198  0.61068  1.0000
  F   F103      1.0  0.40033  0.69355  0.12451  1.0000
  F   F104      1.0  0.39886  0.69942  0.60519  1.0000
  F   F105      1.0  0.65538  0.18780  0.13501  1.0000
  F   F106      1.0  0.64289  0.19977  0.59720  1.0000
  F   F107      1.0  0.64733  0.69525  0.13499  1.0000
  F   F108      1.0  0.65042  0.67201  0.64001  1.0000
  F   F109      1.0  0.89820  0.20234  0.10797  1.0000
  F   F110      1.0  0.90352  0.20356  0.62355  1.0000
  F   F111      1.0  0.90941  0.69537  0.12057  1.0000
  F   F112      1.0  0.89937  0.70047  0.61918  1.0000
  F   F113      1.0  0.10055  0.31659  0.37759  1.0000
  F   F114      1.0  0.09634  0.30987  0.87688  1.0000
  F   F115      1.0  0.08972  0.81416  0.36714  1.0000
  F   F116      1.0  0.10217  0.79944  0.87881  1.0000
  F   F117      1.0  0.34456  0.31058  0.38970  1.0000
  F   F118      1.0  0.34901  0.30435  0.86474  1.0000
  F   F119      1.0  0.35369  0.80834  0.37612  1.0000
  F   F120      1.0  0.35000  0.80930  0.85943  1.0000
  F   F121      1.0  0.59173  0.30337  0.39722  1.0000
  F   F122      1.0  0.59759  0.30130  0.88634  1.0000
  F   F123      1.0  0.59559  0.80568  0.37794  1.0000
  F   F124      1.0  0.59268  0.79487  0.88417  1.0000
  F   F125      1.0  0.84583  0.31275  0.37149  1.0000
  F   F126      1.0  0.84968  0.29949  0.88898  1.0000
  F   F127      1.0  0.84465  0.80031  0.37284  1.0000
  F   F128      1.0  0.84676  0.79870  0.87313  1.0000
  F   F129      1.0  0.06716  0.26797  0.12332  1.0000
  F   F130      1.0  0.06562  0.26552  0.64425  1.0000
  F   F131      1.0  0.07326  0.75694  0.13170  1.0000
  F   F132      1.0  0.06509  0.75015  0.64510  1.0000
  F   F133      1.0  0.30990  0.25191  0.14901  1.0000
  F   F134      1.0  0.31019  0.25314  0.64740  1.0000
  F   F135      1.0  0.31168  0.76768  0.15177  1.0000
  F   F136      1.0  0.31422  0.75209  0.64397  1.0000
  F   F137      1.0  0.57932  0.25459  0.12299  1.0000
  F   F138      1.0  0.55683  0.25139  0.66161  1.0000
  F   F139      1.0  0.56689  0.76089  0.12238  1.0000
  F   F140      1.0  0.55886  0.74800  0.63940  1.0000
  F   F141      1.0  0.81002  0.23808  0.15566  1.0000
  F   F142      1.0  0.82672  0.25932  0.62708  1.0000
  F   F143      1.0  0.81848  0.74845  0.13046  1.0000
  F   F144      1.0  0.82269  0.74715  0.62534  1.0000
  F   F145      1.0  0.12380  0.38203  0.10116  1.0000
  F   F146      1.0  0.12203  0.37878  0.61052  1.0000
  F   F147      1.0  0.12793  0.86097  0.12114  1.0000
  F   F148      1.0  0.12092  0.88040  0.60458  1.0000
  F   F149      1.0  0.37302  0.38505  0.09489  1.0000
  F   F150      1.0  0.37571  0.37312  0.61119  1.0000
  F   F151      1.0  0.37634  0.87322  0.10665  1.0000
  F   F152      1.0  0.37468  0.86059  0.62224  1.0000
  F   F153      1.0  0.62506  0.38627  0.10812  1.0000
  F   F154      1.0  0.62193  0.36159  0.61685  1.0000
  F   F155      1.0  0.62324  0.89773  0.09538  1.0000
  F   F156      1.0  0.62296  0.84816  0.62361  1.0000
  F   F157      1.0  0.87338  0.36489  0.10222  1.0000
  F   F158      1.0  0.87934  0.38169  0.59658  1.0000
  F   F159      1.0  0.87437  0.86419  0.12065  1.0000
  F   F160      1.0  0.88290  0.88491  0.59247  1.0000
  F   F161      1.0  0.18807  0.25950  0.34463  1.0000
  F   F162      1.0  0.18264  0.25265  0.85591  1.0000
  F   F163      1.0  0.17149  0.74701  0.37840  1.0000
  F   F164      1.0  0.19350  0.74877  0.85883  1.0000
  F   F165      1.0  0.43550  0.24850  0.36958  1.0000
  F   F166      1.0  0.44267  0.25166  0.84417  1.0000
  F   F167      1.0  0.43871  0.74969  0.35548  1.0000
  F   F168      1.0  0.43574  0.75337  0.85149  1.0000
  F   F169      1.0  0.68289  0.23815  0.37799  1.0000
  F   F170      1.0  0.69246  0.24375  0.84976  1.0000
  F   F171      1.0  0.68708  0.74252  0.35830  1.0000
  F   F172      1.0  0.67498  0.73952  0.87596  1.0000
  F   F173      1.0  0.92709  0.24300  0.36257  1.0000
  F   F174      1.0  0.93425  0.24468  0.86504  1.0000
  F   F175      1.0  0.93698  0.74861  0.34798  1.0000
  F   F176      1.0  0.93145  0.74631  0.85972  1.0000
  F   F177      1.0  0.12362  0.14914  0.37500  1.0000
  F   F178      1.0  0.12430  0.12961  0.89844  1.0000
  F   F179      1.0  0.12221  0.64054  0.38967  1.0000
  F   F180      1.0  0.12909  0.63944  0.88802  1.0000
  F   F181      1.0  0.37325  0.13057  0.39849  1.0000
  F   F182      1.0  0.37824  0.12561  0.88565  1.0000
  F   F183      1.0  0.37102  0.63601  0.40035  1.0000
  F   F184      1.0  0.37512  0.62201  0.90523  1.0000
  F   F185      1.0  0.62488  0.13687  0.38387  1.0000
  F   F186      1.0  0.62581  0.13592  0.89345  1.0000
  F   F187      1.0  0.62681  0.63889  0.37596  1.0000
  F   F188      1.0  0.62870  0.61020  0.89312  1.0000
  F   F189      1.0  0.87221  0.11533  0.41446  1.0000
  F   F190      1.0  0.87287  0.13798  0.89340  1.0000
  F   F191      1.0  0.87750  0.63306  0.38515  1.0000
  F   F192      1.0  0.87532  0.62067  0.89846  1.0000
  F   F193      1.0  0.00211  0.35069  0.07149  1.0000
  F   F194      1.0  0.00532  0.35998  0.59059  1.0000
  F   F195      1.0  0.00866  0.85934  0.07320  1.0000
  F   F196      1.0  0.01050  0.86792  0.56686  1.0000
  F   F197      1.0  0.25673  0.37625  0.06969  1.0000
  F   F198      1.0  0.25172  0.36404  0.58051  1.0000
  F   F199      1.0  0.25879  0.86200  0.07321  1.0000
  F   F200      1.0  0.25475  0.86879  0.56516  1.0000
  F   F201      1.0  0.50674  0.34868  0.08001  1.0000
  F   F202      1.0  0.50943  0.36431  0.55938  1.0000
  F   F203      1.0  0.50352  0.86944  0.05865  1.0000
  F   F204      1.0  0.50849  0.87017  0.56192  1.0000
  F   F205      1.0  0.75880  0.36394  0.07368  1.0000
  F   F206      1.0  0.75708  0.34977  0.57954  1.0000
  F   F207      1.0  0.75398  0.85392  0.07732  1.0000
  F   F208      1.0  0.75923  0.85014  0.57875  1.0000
  F   F209      1.0  0.06468  0.48584  0.17169  1.0000
  F   F210      1.0  0.06239  0.48161  0.69564  1.0000
  F   F211      1.0  0.07594  0.99557  0.15708  1.0000
  F   F212      1.0  0.07404  0.00252  0.65287  1.0000
  F   F213      1.0  0.32257  0.49450  0.16999  1.0000
  F   F214      1.0  0.32112  0.49162  0.65193  1.0000
  F   F215      1.0  0.32295  0.99159  0.16772  1.0000
  F   F216      1.0  0.32051  0.98052  0.67113  1.0000
  F   F217      1.0  0.56318  0.47267  0.20281  1.0000
  F   F218      1.0  0.57115  0.48773  0.66515  1.0000
  F   F219      1.0  0.56341  0.97825  0.19751  1.0000
  F   F220      1.0  0.57047  0.96853  0.68558  1.0000
  F   F221      1.0  0.81760  0.47429  0.18240  1.0000
  F   F222      1.0  0.82428  0.48204  0.67061  1.0000
  F   F223      1.0  0.81433  0.97714  0.17490  1.0000
  F   F224      1.0  0.81196  0.98203  0.69458  1.0000
  F   F225      1.0  0.24047  0.15060  0.42418  1.0000
  F   F226      1.0  0.24336  0.13456  0.91905  1.0000
  F   F227      1.0  0.23655  0.65380  0.42151  1.0000
  F   F228      1.0  0.24472  0.62515  0.92761  1.0000
  F   F229      1.0  0.49568  0.13034  0.43020  1.0000
  F   F230      1.0  0.49457  0.12312  0.92728  1.0000
  F   F231      1.0  0.49570  0.63246  0.42733  1.0000
  F   F232      1.0  0.48994  0.62819  0.93445  1.0000
  F   F233      1.0  0.74390  0.12312  0.42640  1.0000
  F   F234      1.0  0.74071  0.14678  0.92708  1.0000
  F   F235      1.0  0.74606  0.63536  0.42522  1.0000
  F   F236      1.0  0.74706  0.65051  0.90546  1.0000
  F   F237      1.0  0.99435  0.13831  0.42701  1.0000
  F   F238      1.0  0.99274  0.12308  0.92687  1.0000
  F   F239      1.0  0.99210  0.63578  0.42626  1.0000
  F   F240      1.0  0.98910  0.64380  0.93326  1.0000
  F   F241      1.0  0.18193  0.03251  0.32278  1.0000
  F   F242      1.0  0.18571  0.01301  0.82368  1.0000
  F   F243      1.0  0.18055  0.52397  0.30537  1.0000
  F   F244      1.0  0.17496  0.51712  0.83227  1.0000
  F   F245      1.0  0.43181  0.01740  0.32340  1.0000
  F   F246      1.0  0.43467  0.01771  0.80494  1.0000
  F   F247      1.0  0.43157  0.51835  0.32183  1.0000
  F   F248      1.0  0.43186  0.51795  0.82216  1.0000
  F   F249      1.0  0.68555  0.00540  0.33845  1.0000
  F   F250      1.0  0.68133  0.00544  0.83671  1.0000
  F   F251      1.0  0.68102  0.51095  0.33085  1.0000
  F   F252      1.0  0.68299  0.51337  0.81906  1.0000
  F   F253      1.0  0.92985  0.01279  0.32317  1.0000
  F   F254      1.0  0.92958  0.02424  0.81236  1.0000
  F   F255      1.0  0.92766  0.51917  0.32227  1.0000
  F   F256      1.0  0.93554  0.51645  0.82370  1.0000
  F   F257      1.0  0.99277  0.22061  0.01996  1.0000
  F   F258      1.0  0.00659  0.26529  0.48536  1.0000
  F   F259      1.0  0.00266  0.76238  0.99425  1.0000
  F   F260      1.0  0.99677  0.73400  0.51773  1.0000
  F   F261      1.0  0.25386  0.27209  0.98201  1.0000
  F   F262      1.0  0.25076  0.26349  0.49225  1.0000
  F   F263      1.0  0.24594  0.74260  0.00425  1.0000
  F   F264      1.0  0.25097  0.72995  0.52228  1.0000
  F   F265      1.0  0.49190  0.22945  0.02149  1.0000
  F   F266      1.0  0.50102  0.23895  0.49516  1.0000
  F   F267      1.0  0.49433  0.72236  0.02148  1.0000
  F   F268      1.0  0.49733  0.75006  0.49666  1.0000
  F   F269      1.0  0.74773  0.26088  0.99554  1.0000
  F   F270      1.0  0.74553  0.25459  0.49650  1.0000
  F   F271      1.0  0.75427  0.74612  0.99631  1.0000
  F   F272      1.0  0.74774  0.74380  0.49589  1.0000
  F   F273      1.0  0.12521  0.99769  0.24461  1.0000
  F   F274      1.0  0.12901  0.00782  0.73758  1.0000
  F   F275      1.0  0.11147  0.49281  0.26699  1.0000
  F   F276      1.0  0.13053  0.51113  0.73258  1.0000
  F   F277      1.0  0.37247  0.00447  0.24564  1.0000
  F   F278      1.0  0.36764  0.99397  0.77061  1.0000
  F   F279      1.0  0.37683  0.49909  0.24062  1.0000
  F   F280      1.0  0.37182  0.48233  0.75348  1.0000
  F   F281      1.0  0.63076  0.99761  0.24876  1.0000
  F   F282      1.0  0.63332  0.01041  0.73649  1.0000
  F   F283      1.0  0.63307  0.49475  0.23274  1.0000
  F   F284      1.0  0.61300  0.48887  0.77302  1.0000
  F   F285      1.0  0.87394  0.00413  0.24629  1.0000
  F   F286      1.0  0.87040  0.99092  0.75888  1.0000
  F   F287      1.0  0.87330  0.50724  0.25088  1.0000
  F   F288      1.0  0.87669  0.50362  0.75288  1.0000
  F   F289      1.0  0.04567  0.03176  0.01578  1.0000
  F   F290      1.0  0.05086  0.03687  0.51479  1.0000
  F   F291      1.0  0.03935  0.53286  0.02911  1.0000
  F   F292      1.0  0.05060  0.54411  0.51943  1.0000
  F   F293      1.0  0.28202  0.03911  0.03418  1.0000
  F   F294      1.0  0.28520  0.04109  0.52130  1.0000
  F   F295      1.0  0.29605  0.53544  0.03203  1.0000
  F   F296      1.0  0.28615  0.53413  0.51575  1.0000
  F   F297      1.0  0.54275  0.02859  0.02194  1.0000
  F   F298      1.0  0.54978  0.01898  0.51956  1.0000
  F   F299      1.0  0.53680  0.51782  0.02833  1.0000
  F   F300      1.0  0.54352  0.53632  0.51477  1.0000
  F   F301      1.0  0.79386  0.02643  0.01923  1.0000
  F   F302      1.0  0.79280  0.02109  0.53142  1.0000
  F   F303      1.0  0.79348  0.52010  0.03410  1.0000
  F   F304      1.0  0.79696  0.52459  0.52075  1.0000
  F   F305      1.0  0.23768  0.41069  0.22862  1.0000
  F   F306      1.0  0.23012  0.41905  0.72441  1.0000
  F   F307      1.0  0.23831  0.92365  0.23354  1.0000
  F   F308      1.0  0.23559  0.90683  0.71240  1.0000
  F   F309      1.0  0.48426  0.40800  0.23699  1.0000
  F   F310      1.0  0.48446  0.41944  0.71633  1.0000
  F   F311      1.0  0.49025  0.90966  0.22929  1.0000
  F   F312      1.0  0.48748  0.90905  0.72588  1.0000
  F   F313      1.0  0.72683  0.40495  0.23248  1.0000
  F   F314      1.0  0.73719  0.42053  0.72414  1.0000
  F   F315      1.0  0.72998  0.91885  0.20435  1.0000
  F   F316      1.0  0.73564  0.89760  0.71894  1.0000
  F   F317      1.0  0.97861  0.39947  0.23781  1.0000
  F   F318      1.0  0.98401  0.40554  0.73008  1.0000
  F   F319      1.0  0.98561  0.92341  0.20952  1.0000
  F   F320      1.0  0.98531  0.91709  0.73306  1.0000
  F   F321      1.0  0.20705  0.46898  0.45377  1.0000
  F   F322      1.0  0.20757  0.46894  0.97188  1.0000
  F   F323      1.0  0.20430  0.97311  0.47905  1.0000
  F   F324      1.0  0.20377  0.98162  0.97846  1.0000
  F   F325      1.0  0.45575  0.46731  0.47495  1.0000
  F   F326      1.0  0.45482  0.45967  0.98976  1.0000
  F   F327      1.0  0.45578  0.97261  0.48425  1.0000
  F   F328      1.0  0.45251  0.96720  0.96304  1.0000
  F   F329      1.0  0.71010  0.46905  0.46787  1.0000
  F   F330      1.0  0.70944  0.46561  0.98112  1.0000
  F   F331      1.0  0.70418  0.95764  0.50688  1.0000
  F   F332      1.0  0.71271  0.97009  0.97288  1.0000
  F   F333      1.0  0.96265  0.47651  0.46503  1.0000
  F   F334      1.0  0.95934  0.47006  0.97203  1.0000
  F   F335      1.0  0.96214  0.96606  0.46553  1.0000
  F   F336      1.0  0.94889  0.96099  0.96678  1.0000
  F   F337      1.0  0.01241  0.09925  0.26366  1.0000
  F   F338      1.0  0.01204  0.07143  0.77770  1.0000
  F   F339      1.0  0.01277  0.58963  0.26923  1.0000
  F   F340      1.0  0.01451  0.58343  0.76940  1.0000
  F   F341      1.0  0.26867  0.08886  0.28218  1.0000
  F   F342      1.0  0.27066  0.07898  0.77132  1.0000
  F   F343      1.0  0.26289  0.58682  0.27651  1.0000
  F   F344      1.0  0.26727  0.58492  0.76734  1.0000
  F   F345      1.0  0.51421  0.09908  0.25970  1.0000
  F   F346      1.0  0.52011  0.07125  0.77792  1.0000
  F   F347      1.0  0.51309  0.60194  0.25895  1.0000
  F   F348      1.0  0.51672  0.58555  0.77270  1.0000
  F   F349      1.0  0.76855  0.07551  0.28187  1.0000
  F   F350      1.0  0.76683  0.12803  0.74677  1.0000
  F   F351      1.0  0.76612  0.59270  0.26562  1.0000
  F   F352      1.0  0.76860  0.58951  0.77134  1.0000
  F   F353      1.0  0.10508  0.43322  0.45729  1.0000
  F   F354      1.0  0.09444  0.42813  0.95663  1.0000
  F   F355      1.0  0.10471  0.90679  0.45182  1.0000
  F   F356      1.0  0.10623  0.91364  0.96884  1.0000
  F   F357      1.0  0.35276  0.41527  0.46316  1.0000
  F   F358      1.0  0.35104  0.40196  0.95950  1.0000
  F   F359      1.0  0.35269  0.90989  0.45760  1.0000
  F   F360      1.0  0.34907  0.91715  0.96419  1.0000
  F   F361      1.0  0.60359  0.42150  0.46437  1.0000
  F   F362      1.0  0.59745  0.41756  0.96932  1.0000
  F   F363      1.0  0.60508  0.90628  0.46341  1.0000
  F   F364      1.0  0.60059  0.91350  0.95118  1.0000
  F   F365      1.0  0.84373  0.40205  0.45930  1.0000
  F   F366      1.0  0.85668  0.41800  0.94856  1.0000
  F   F367      1.0  0.85582  0.89234  0.45448  1.0000
  F   F368      1.0  0.85238  0.90976  0.95828  1.0000
  F   F369      1.0  0.05243  0.30535  0.27826  1.0000
  F   F370      1.0  0.03686  0.28794  0.81174  1.0000
  F   F371      1.0  0.03916  0.80651  0.28556  1.0000
  F   F372      1.0  0.04380  0.79715  0.78562  1.0000
  F   F373      1.0  0.30159  0.30941  0.27948  1.0000
  F   F374      1.0  0.29696  0.30443  0.78746  1.0000
  F   F375      1.0  0.30044  0.79195  0.29587  1.0000
  F   F376      1.0  0.29458  0.79108  0.79097  1.0000
  F   F377      1.0  0.55639  0.28320  0.28229  1.0000
  F   F378      1.0  0.54556  0.29377  0.80392  1.0000
  F   F379      1.0  0.55081  0.79233  0.28231  1.0000
  F   F380      1.0  0.54788  0.79440  0.78854  1.0000
  F   F381      1.0  0.79794  0.29563  0.29205  1.0000
  F   F382      1.0  0.80206  0.29651  0.79617  1.0000
  F   F383      1.0  0.79564  0.79470  0.28184  1.0000
  F   F384      1.0  0.79917  0.79950  0.78121  1.0000
