data_image0
_chemical_formula_structural       Hf96F384
_chemical_formula_sum              "Hf96 F384"
_cell_length_a       31.0064
_cell_length_b       15.5049
_cell_length_c       15.4981
_cell_angle_alpha    63.342
_cell_angle_beta     63.342
_cell_angle_gamma    80.1625

_space_group_name_H-M_alt    "P 1"
_space_group_IT_number       1

loop_
  _space_group_symop_operation_xyz
  'x, y, z'

loop_
  _atom_site_type_symbol
  _atom_site_label
  _atom_site_symmetry_multiplicity
  _atom_site_fract_x
  _atom_site_fract_y
  _atom_site_fract_z
  _atom_site_occupancy
  Hf  Hf1       1.0  0.19773  0.10033  0.37649  1.0000
  Hf  Hf2       1.0  0.19597  0.11286  0.86803  1.0000
  Hf  Hf3       1.0  0.19497  0.61455  0.37290  1.0000
  Hf  Hf4       1.0  0.19782  0.61062  0.87416  1.0000
  Hf  Hf5       1.0  0.44663  0.10543  0.37678  1.0000
  Hf  Hf6       1.0  0.44501  0.10489  0.87987  1.0000
  Hf  Hf7       1.0  0.44608  0.60682  0.37135  1.0000
  Hf  Hf8       1.0  0.44240  0.60717  0.88239  1.0000
  Hf  Hf9       1.0  0.69907  0.10306  0.37941  1.0000
  Hf  Hf10      1.0  0.69752  0.10667  0.87572  1.0000
  Hf  Hf11      1.0  0.69391  0.60800  0.38164  1.0000
  Hf  Hf12      1.0  0.69444  0.60718  0.87493  1.0000
  Hf  Hf13      1.0  0.94895  0.10742  0.37113  1.0000
  Hf  Hf14      1.0  0.94828  0.10244  0.87913  1.0000
  Hf  Hf15      1.0  0.94554  0.60309  0.38144  1.0000
  Hf  Hf16      1.0  0.94851  0.60897  0.86927  1.0000
  Hf  Hf17      1.0  0.05470  0.40423  0.11972  1.0000
  Hf  Hf18      1.0  0.05379  0.38969  0.62283  1.0000
  Hf  Hf19      1.0  0.05202  0.89690  0.12472  1.0000
  Hf  Hf20      1.0  0.05266  0.89582  0.62514  1.0000
  Hf  Hf21      1.0  0.30407  0.38875  0.12506  1.0000
  Hf  Hf22      1.0  0.30688  0.39539  0.61919  1.0000
  Hf  Hf23      1.0  0.30636  0.89903  0.11393  1.0000
  Hf  Hf24      1.0  0.30225  0.89594  0.62189  1.0000
  Hf  Hf25      1.0  0.55418  0.38192  0.13352  1.0000
  Hf  Hf26      1.0  0.55379  0.39001  0.62791  1.0000
  Hf  Hf27      1.0  0.55130  0.88859  0.13388  1.0000
  Hf  Hf28      1.0  0.55343  0.88960  0.61936  1.0000
  Hf  Hf29      1.0  0.80302  0.39105  0.11925  1.0000
  Hf  Hf30      1.0  0.80354  0.38736  0.62172  1.0000
  Hf  Hf31      1.0  0.80219  0.89197  0.12504  1.0000
  Hf  Hf32      1.0  0.80239  0.88955  0.63098  1.0000
  Hf  Hf33      1.0  0.05816  0.19274  0.40710  1.0000
  Hf  Hf34      1.0  0.05442  0.18722  0.91481  1.0000
  Hf  Hf35      1.0  0.05192  0.68269  0.42497  1.0000
  Hf  Hf36      1.0  0.05894  0.69005  0.91078  1.0000
  Hf  Hf37      1.0  0.30259  0.18879  0.41059  1.0000
  Hf  Hf38      1.0  0.30549  0.18267  0.91562  1.0000
  Hf  Hf39      1.0  0.30466  0.68882  0.41255  1.0000
  Hf  Hf40      1.0  0.30505  0.68672  0.91588  1.0000
  Hf  Hf41      1.0  0.55596  0.17791  0.42468  1.0000
  Hf  Hf42      1.0  0.55850  0.17964  0.92004  1.0000
  Hf  Hf43      1.0  0.55374  0.67286  0.42623  1.0000
  Hf  Hf44      1.0  0.55440  0.67901  0.91837  1.0000
  Hf  Hf45      1.0  0.80768  0.18164  0.41560  1.0000
  Hf  Hf46      1.0  0.81129  0.18317  0.90932  1.0000
  Hf  Hf47      1.0  0.80443  0.67729  0.41267  1.0000
  Hf  Hf48      1.0  0.80334  0.68095  0.91677  1.0000
  Hf  Hf49      1.0  0.15880  0.39495  0.32652  1.0000
  Hf  Hf50      1.0  0.15909  0.39213  0.83099  1.0000
  Hf  Hf51      1.0  0.15596  0.88882  0.33822  1.0000
  Hf  Hf52      1.0  0.15643  0.89375  0.83339  1.0000
  Hf  Hf53      1.0  0.40983  0.38884  0.32906  1.0000
  Hf  Hf54      1.0  0.41057  0.38537  0.83660  1.0000
  Hf  Hf55      1.0  0.40629  0.88554  0.34147  1.0000
  Hf  Hf56      1.0  0.41230  0.88793  0.83143  1.0000
  Hf  Hf57      1.0  0.65884  0.37945  0.33928  1.0000
  Hf  Hf58      1.0  0.65808  0.39043  0.83354  1.0000
  Hf  Hf59      1.0  0.65982  0.88953  0.33423  1.0000
  Hf  Hf60      1.0  0.65452  0.89005  0.83899  1.0000
  Hf  Hf61      1.0  0.91081  0.39250  0.33020  1.0000
  Hf  Hf62      1.0  0.91153  0.39045  0.82785  1.0000
  Hf  Hf63      1.0  0.90585  0.88493  0.33655  1.0000
  Hf  Hf64      1.0  0.90732  0.88883  0.83522  1.0000
  Hf  Hf65      1.0  0.19671  0.32389  0.08068  1.0000
  Hf  Hf66      1.0  0.19391  0.31822  0.58126  1.0000
  Hf  Hf67      1.0  0.19095  0.81943  0.08901  1.0000
  Hf  Hf68      1.0  0.19226  0.81549  0.58702  1.0000
  Hf  Hf69      1.0  0.44598  0.31971  0.08200  1.0000
  Hf  Hf70      1.0  0.44425  0.31483  0.58152  1.0000
  Hf  Hf71      1.0  0.44483  0.81301  0.08796  1.0000
  Hf  Hf72      1.0  0.44405  0.81892  0.57919  1.0000
  Hf  Hf73      1.0  0.69379  0.30693  0.08417  1.0000
  Hf  Hf74      1.0  0.69374  0.30784  0.58750  1.0000
  Hf  Hf75      1.0  0.69336  0.81563  0.08720  1.0000
  Hf  Hf76      1.0  0.69410  0.81307  0.59071  1.0000
  Hf  Hf77      1.0  0.94279  0.31957  0.08252  1.0000
  Hf  Hf78      1.0  0.94272  0.31016  0.59489  1.0000
  Hf  Hf79      1.0  0.94237  0.80961  0.08663  1.0000
  Hf  Hf80      1.0  0.94346  0.81700  0.58701  1.0000
  Hf  Hf81      1.0  0.09693  0.12233  0.15681  1.0000
  Hf  Hf82      1.0  0.09328  0.12135  0.65861  1.0000
  Hf  Hf83      1.0  0.09197  0.62075  0.16321  1.0000
  Hf  Hf84      1.0  0.09041  0.61428  0.66896  1.0000
  Hf  Hf85      1.0  0.34429  0.11804  0.15720  1.0000
  Hf  Hf86      1.0  0.33845  0.10883  0.66532  1.0000
  Hf  Hf87      1.0  0.34138  0.60828  0.17473  1.0000
  Hf  Hf88      1.0  0.34104  0.61192  0.66819  1.0000
  Hf  Hf89      1.0  0.59064  0.10626  0.16998  1.0000
  Hf  Hf90      1.0  0.59189  0.11057  0.66510  1.0000
  Hf  Hf91      1.0  0.58784  0.60578  0.17534  1.0000
  Hf  Hf92      1.0  0.59186  0.61020  0.66926  1.0000
  Hf  Hf93      1.0  0.84333  0.11526  0.16239  1.0000
  Hf  Hf94      1.0  0.83765  0.10791  0.66985  1.0000
  Hf  Hf95      1.0  0.83970  0.61201  0.16445  1.0000
  Hf  Hf96      1.0  0.83932  0.61176  0.66370  1.0000
  F   F1        1.0  0.08156  0.11998  0.30533  1.0000
  F   F2        1.0  0.08111  0.13262  0.79415  1.0000
  F   F3        1.0  0.07911  0.63133  0.30317  1.0000
  F   F4        1.0  0.07419  0.61260  0.81616  1.0000
  F   F5        1.0  0.32997  0.13793  0.29830  1.0000
  F   F6        1.0  0.33407  0.14388  0.78718  1.0000
  F   F7        1.0  0.32955  0.61546  0.30478  1.0000
  F   F8        1.0  0.32594  0.63570  0.80590  1.0000
  F   F9        1.0  0.57962  0.12253  0.30347  1.0000
  F   F10       1.0  0.57635  0.12668  0.80826  1.0000
  F   F11       1.0  0.58361  0.62278  0.30915  1.0000
  F   F12       1.0  0.58180  0.63147  0.80164  1.0000
  F   F13       1.0  0.83042  0.12827  0.30048  1.0000
  F   F14       1.0  0.82858  0.12625  0.80517  1.0000
  F   F15       1.0  0.83109  0.64899  0.28719  1.0000
  F   F16       1.0  0.83066  0.62971  0.80610  1.0000
  F   F17       1.0  0.19631  0.35244  0.43305  1.0000
  F   F18       1.0  0.18040  0.34608  0.95022  1.0000
  F   F19       1.0  0.18375  0.85080  0.45108  1.0000
  F   F20       1.0  0.19169  0.84540  0.93035  1.0000
  F   F21       1.0  0.43616  0.35026  0.43469  1.0000
  F   F22       1.0  0.44194  0.34388  0.93997  1.0000
  F   F23       1.0  0.43169  0.83210  0.45911  1.0000
  F   F24       1.0  0.43230  0.85032  0.94928  1.0000
  F   F25       1.0  0.69124  0.35126  0.44135  1.0000
  F   F26       1.0  0.69461  0.33908  0.93801  1.0000
  F   F27       1.0  0.68508  0.83732  0.45190  1.0000
  F   F28       1.0  0.68414  0.84524  0.94806  1.0000
  F   F29       1.0  0.93439  0.33300  0.45142  1.0000
  F   F30       1.0  0.94225  0.34840  0.93749  1.0000
  F   F31       1.0  0.94085  0.84392  0.43673  1.0000
  F   F32       1.0  0.93447  0.83701  0.95319  1.0000
  F   F33       1.0  0.17031  0.36552  0.19918  1.0000
  F   F34       1.0  0.17381  0.37813  0.68926  1.0000
  F   F35       1.0  0.16700  0.87649  0.20212  1.0000
  F   F36       1.0  0.16988  0.85223  0.70659  1.0000
  F   F37       1.0  0.41988  0.37398  0.20203  1.0000
  F   F38       1.0  0.41857  0.37372  0.69779  1.0000
  F   F39       1.0  0.42540  0.86630  0.19896  1.0000
  F   F40       1.0  0.42188  0.88836  0.68609  1.0000
  F   F41       1.0  0.67571  0.36897  0.19632  1.0000
  F   F42       1.0  0.67207  0.36784  0.69214  1.0000
  F   F43       1.0  0.66861  0.85663  0.20494  1.0000
  F   F44       1.0  0.66929  0.86758  0.69752  1.0000
  F   F45       1.0  0.91648  0.37562  0.20089  1.0000
  F   F46       1.0  0.92551  0.37513  0.69257  1.0000
  F   F47       1.0  0.91814  0.86527  0.19878  1.0000
  F   F48       1.0  0.92269  0.88337  0.68951  1.0000
  F   F49       1.0  0.05990  0.16118  0.04988  1.0000
  F   F50       1.0  0.06822  0.16790  0.54296  1.0000
  F   F51       1.0  0.06058  0.66404  0.05441  1.0000
  F   F52       1.0  0.06358  0.65756  0.55582  1.0000
  F   F53       1.0  0.31188  0.16169  0.05108  1.0000
  F   F54       1.0  0.32044  0.15516  0.54231  1.0000
  F   F55       1.0  0.30708  0.66308  0.06379  1.0000
  F   F56       1.0  0.31591  0.65784  0.54671  1.0000
  F   F57       1.0  0.56857  0.15247  0.05014  1.0000
  F   F58       1.0  0.56507  0.16442  0.55190  1.0000
  F   F59       1.0  0.56121  0.65748  0.05904  1.0000
  F   F60       1.0  0.55860  0.63870  0.57363  1.0000
  F   F61       1.0  0.82085  0.16201  0.04569  1.0000
  F   F62       1.0  0.79925  0.14940  0.57044  1.0000
  F   F63       1.0  0.80622  0.65455  0.05568  1.0000
  F   F64       1.0  0.82546  0.66992  0.53636  1.0000
  F   F65       1.0  0.21168  0.20686  0.20847  1.0000
  F   F66       1.0  0.19768  0.20658  0.71539  1.0000
  F   F67       1.0  0.20487  0.71066  0.20144  1.0000
  F   F68       1.0  0.21073  0.69960  0.71987  1.0000
  F   F69       1.0  0.46193  0.19552  0.20274  1.0000
  F   F70       1.0  0.45543  0.20192  0.71575  1.0000
  F   F71       1.0  0.46806  0.69484  0.19879  1.0000
  F   F72       1.0  0.44674  0.70873  0.72142  1.0000
  F   F73       1.0  0.70874  0.19428  0.20349  1.0000
  F   F74       1.0  0.70344  0.18995  0.71816  1.0000
  F   F75       1.0  0.70135  0.69981  0.22317  1.0000
  F   F76       1.0  0.70236  0.69941  0.71752  1.0000
  F   F77       1.0  0.94715  0.20481  0.20794  1.0000
  F   F78       1.0  0.95664  0.20152  0.71459  1.0000
  F   F79       1.0  0.95257  0.70277  0.22544  1.0000
  F   F80       1.0  0.96032  0.71807  0.70694  1.0000
  F   F81       1.0  0.14743  0.10202  0.03466  1.0000
  F   F82       1.0  0.15180  0.09023  0.53005  1.0000
  F   F83       1.0  0.14462  0.60376  0.03118  1.0000
  F   F84       1.0  0.14853  0.62818  0.52707  1.0000
  F   F85       1.0  0.39847  0.08320  0.04381  1.0000
  F   F86       1.0  0.40187  0.09515  0.53403  1.0000
  F   F87       1.0  0.39806  0.61071  0.02713  1.0000
  F   F88       1.0  0.39858  0.59936  0.52909  1.0000
  F   F89       1.0  0.64769  0.07752  0.05202  1.0000
  F   F90       1.0  0.64903  0.08966  0.53227  1.0000
  F   F91       1.0  0.64581  0.60239  0.04732  1.0000
  F   F92       1.0  0.65291  0.58209  0.54945  1.0000
  F   F93       1.0  0.90315  0.09032  0.04154  1.0000
  F   F94       1.0  0.89396  0.09170  0.54437  1.0000
  F   F95       1.0  0.89388  0.60709  0.04080  1.0000
  F   F96       1.0  0.90145  0.57861  0.55341  1.0000
  F   F97       1.0  0.15495  0.20182  0.12368  1.0000
  F   F98       1.0  0.15549  0.20134  0.60311  1.0000
  F   F99       1.0  0.14883  0.71161  0.12485  1.0000
  F   F100      1.0  0.15259  0.69302  0.65014  1.0000
  F   F101      1.0  0.40722  0.18900  0.11865  1.0000
  F   F102      1.0  0.40132  0.20613  0.62236  1.0000
  F   F103      1.0  0.40766  0.68460  0.13360  1.0000
  F   F104      1.0  0.40019  0.69988  0.63049  1.0000
  F   F105      1.0  0.65250  0.18316  0.12192  1.0000
  F   F106      1.0  0.65074  0.19787  0.61296  1.0000
  F   F107      1.0  0.64916  0.71274  0.13012  1.0000
  F   F108      1.0  0.64948  0.69391  0.62545  1.0000
  F   F109      1.0  0.90316  0.20673  0.10882  1.0000
  F   F110      1.0  0.90657  0.18653  0.63414  1.0000
  F   F111      1.0  0.90659  0.68939  0.14051  1.0000
  F   F112      1.0  0.90370  0.69790  0.63601  1.0000
  F   F113      1.0  0.09837  0.31768  0.36621  1.0000
  F   F114      1.0  0.09931  0.30084  0.86776  1.0000
  F   F115      1.0  0.09941  0.80067  0.37082  1.0000
  F   F116      1.0  0.10120  0.80368  0.89126  1.0000
  F   F117      1.0  0.35281  0.30253  0.36847  1.0000
  F   F118      1.0  0.34908  0.30654  0.88453  1.0000
  F   F119      1.0  0.34631  0.80317  0.38146  1.0000
  F   F120      1.0  0.35221  0.79879  0.86381  1.0000
  F   F121      1.0  0.59787  0.30285  0.38512  1.0000
  F   F122      1.0  0.59967  0.30327  0.86836  1.0000
  F   F123      1.0  0.60180  0.80555  0.38931  1.0000
  F   F124      1.0  0.60001  0.79646  0.86469  1.0000
  F   F125      1.0  0.85453  0.30015  0.38931  1.0000
  F   F126      1.0  0.85689  0.29394  0.85700  1.0000
  F   F127      1.0  0.84626  0.80612  0.36993  1.0000
  F   F128      1.0  0.84296  0.80076  0.88044  1.0000
  F   F129      1.0  0.07019  0.25909  0.13564  1.0000
  F   F130      1.0  0.07163  0.26029  0.61656  1.0000
  F   F131      1.0  0.05570  0.75256  0.15767  1.0000
  F   F132      1.0  0.06556  0.74960  0.65208  1.0000
  F   F133      1.0  0.32245  0.24890  0.13343  1.0000
  F   F134      1.0  0.31332  0.24661  0.63625  1.0000
  F   F135      1.0  0.31866  0.75089  0.14133  1.0000
  F   F136      1.0  0.31482  0.75463  0.64164  1.0000
  F   F137      1.0  0.55885  0.24296  0.15483  1.0000
  F   F138      1.0  0.55707  0.24229  0.65714  1.0000
  F   F139      1.0  0.56195  0.74474  0.16157  1.0000
  F   F140      1.0  0.56176  0.75350  0.63643  1.0000
  F   F141      1.0  0.80674  0.24596  0.14943  1.0000
  F   F142      1.0  0.82590  0.24937  0.62647  1.0000
  F   F143      1.0  0.80834  0.74564  0.14198  1.0000
  F   F144      1.0  0.81541  0.74511  0.65179  1.0000
  F   F145      1.0  0.12885  0.38087  0.10987  1.0000
  F   F146      1.0  0.12316  0.36667  0.61094  1.0000
  F   F147      1.0  0.12099  0.86837  0.12070  1.0000
  F   F148      1.0  0.12770  0.88180  0.60039  1.0000
  F   F149      1.0  0.37449  0.35258  0.12036  1.0000
  F   F150      1.0  0.37518  0.37616  0.59990  1.0000
  F   F151      1.0  0.37530  0.85392  0.12209  1.0000
  F   F152      1.0  0.37724  0.88435  0.59784  1.0000
  F   F153      1.0  0.62451  0.33738  0.13597  1.0000
  F   F154      1.0  0.62482  0.36875  0.60347  1.0000
  F   F155      1.0  0.62053  0.87092  0.10949  1.0000
  F   F156      1.0  0.62257  0.87019  0.60539  1.0000
  F   F157      1.0  0.87382  0.36826  0.10242  1.0000
  F   F158      1.0  0.87708  0.36755  0.60488  1.0000
  F   F159      1.0  0.86978  0.85424  0.11892  1.0000
  F   F160      1.0  0.87517  0.87792  0.60944  1.0000
  F   F161      1.0  0.18427  0.25958  0.35867  1.0000
  F   F162      1.0  0.17114  0.25423  0.87222  1.0000
  F   F163      1.0  0.18598  0.75766  0.34921  1.0000
  F   F164      1.0  0.19107  0.74665  0.85720  1.0000
  F   F165      1.0  0.44048  0.25239  0.34999  1.0000
  F   F166      1.0  0.43654  0.24470  0.86528  1.0000
  F   F167      1.0  0.43979  0.75043  0.35243  1.0000
  F   F168      1.0  0.44278  0.75824  0.84636  1.0000
  F   F169      1.0  0.68881  0.24399  0.36008  1.0000
  F   F170      1.0  0.68244  0.24807  0.86635  1.0000
  F   F171      1.0  0.69346  0.74743  0.36125  1.0000
  F   F172      1.0  0.68647  0.74484  0.86168  1.0000
  F   F173      1.0  0.94454  0.24396  0.34343  1.0000
  F   F174      1.0  0.94043  0.25494  0.85517  1.0000
  F   F175      1.0  0.93010  0.74115  0.37674  1.0000
  F   F176      1.0  0.93115  0.75300  0.86259  1.0000
  F   F177      1.0  0.13197  0.14427  0.36873  1.0000
  F   F178      1.0  0.12277  0.12683  0.89138  1.0000
  F   F179      1.0  0.12904  0.62892  0.38728  1.0000
  F   F180      1.0  0.12804  0.64898  0.87007  1.0000
  F   F181      1.0  0.38106  0.13287  0.38240  1.0000
  F   F182      1.0  0.37137  0.12302  0.89785  1.0000
  F   F183      1.0  0.37648  0.63778  0.37693  1.0000
  F   F184      1.0  0.37173  0.61934  0.89346  1.0000
  F   F185      1.0  0.62796  0.14385  0.38094  1.0000
  F   F186      1.0  0.62804  0.12593  0.88934  1.0000
  F   F187      1.0  0.62504  0.64241  0.40121  1.0000
  F   F188      1.0  0.62284  0.62594  0.90107  1.0000
  F   F189      1.0  0.87491  0.13767  0.39007  1.0000
  F   F190      1.0  0.87803  0.11339  0.89554  1.0000
  F   F191      1.0  0.87306  0.61117  0.40410  1.0000
  F   F192      1.0  0.88125  0.61920  0.89096  1.0000
  F   F193      1.0  0.00600  0.36512  0.07522  1.0000
  F   F194      1.0  0.00981  0.36941  0.56450  1.0000
  F   F195      1.0  0.00255  0.85824  0.08346  1.0000
  F   F196      1.0  0.00806  0.87353  0.56798  1.0000
  F   F197      1.0  0.26260  0.35682  0.06700  1.0000
  F   F198      1.0  0.26084  0.35510  0.57698  1.0000
  F   F199      1.0  0.25713  0.86698  0.06195  1.0000
  F   F200      1.0  0.25728  0.86345  0.57646  1.0000
  F   F201      1.0  0.50449  0.36149  0.07400  1.0000
  F   F202      1.0  0.51056  0.37102  0.56753  1.0000
  F   F203      1.0  0.50838  0.86033  0.07978  1.0000
  F   F204      1.0  0.50562  0.84996  0.57622  1.0000
  F   F205      1.0  0.75770  0.36184  0.05873  1.0000
  F   F206      1.0  0.75854  0.34416  0.58364  1.0000
  F   F207      1.0  0.75880  0.86582  0.06353  1.0000
  F   F208      1.0  0.75646  0.84977  0.58094  1.0000
  F   F209      1.0  0.07412  0.49151  0.16216  1.0000
  F   F210      1.0  0.07402  0.49363  0.66526  1.0000
  F   F211      1.0  0.06789  0.98723  0.17232  1.0000
  F   F212      1.0  0.06620  0.98373  0.68634  1.0000
  F   F213      1.0  0.32555  0.49447  0.14936  1.0000
  F   F214      1.0  0.31632  0.49430  0.67490  1.0000
  F   F215      1.0  0.32688  0.98944  0.14921  1.0000
  F   F216      1.0  0.31529  0.98160  0.67553  1.0000
  F   F217      1.0  0.57087  0.47815  0.17261  1.0000
  F   F218      1.0  0.56714  0.48156  0.68753  1.0000
  F   F219      1.0  0.56599  0.97138  0.19177  1.0000
  F   F220      1.0  0.56876  0.98939  0.67381  1.0000
  F   F221      1.0  0.81936  0.48554  0.16345  1.0000
  F   F222      1.0  0.81916  0.48439  0.65830  1.0000
  F   F223      1.0  0.82367  0.98929  0.16041  1.0000
  F   F224      1.0  0.81828  0.97195  0.69420  1.0000
  F   F225      1.0  0.24376  0.14753  0.40804  1.0000
  F   F226      1.0  0.24024  0.15281  0.91426  1.0000
  F   F227      1.0  0.24533  0.63549  0.42651  1.0000
  F   F228      1.0  0.23905  0.64458  0.93828  1.0000
  F   F229      1.0  0.49173  0.13561  0.42956  1.0000
  F   F230      1.0  0.49665  0.13598  0.92684  1.0000
  F   F231      1.0  0.49268  0.64625  0.41666  1.0000
  F   F232      1.0  0.49174  0.63636  0.92590  1.0000
  F   F233      1.0  0.74585  0.13634  0.42529  1.0000
  F   F234      1.0  0.74302  0.13890  0.92419  1.0000
  F   F235      1.0  0.74524  0.63504  0.41273  1.0000
  F   F236      1.0  0.74483  0.64305  0.90981  1.0000
  F   F237      1.0  0.99699  0.13417  0.42504  1.0000
  F   F238      1.0  0.99341  0.13186  0.92634  1.0000
  F   F239      1.0  0.98727  0.62884  0.44589  1.0000
  F   F240      1.0  0.98819  0.63748  0.92888  1.0000
  F   F241      1.0  0.17952  0.01003  0.32679  1.0000
  F   F242      1.0  0.18122  0.02137  0.82521  1.0000
  F   F243      1.0  0.18827  0.51994  0.31543  1.0000
  F   F244      1.0  0.18043  0.52052  0.82052  1.0000
  F   F245      1.0  0.43380  0.01038  0.32404  1.0000
  F   F246      1.0  0.43310  0.01702  0.81592  1.0000
  F   F247      1.0  0.43185  0.52018  0.31534  1.0000
  F   F248      1.0  0.43688  0.51252  0.82029  1.0000
  F   F249      1.0  0.68441  0.01631  0.32956  1.0000
  F   F250      1.0  0.68071  0.00969  0.82109  1.0000
  F   F251      1.0  0.67527  0.51532  0.33039  1.0000
  F   F252      1.0  0.67425  0.51541  0.82681  1.0000
  F   F253      1.0  0.93015  0.02321  0.32523  1.0000
  F   F254      1.0  0.93468  0.00919  0.82128  1.0000
  F   F255      1.0  0.93499  0.51037  0.32508  1.0000
  F   F256      1.0  0.94255  0.51716  0.79623  1.0000
  F   F257      1.0  0.99805  0.25618  0.99251  1.0000
  F   F258      1.0  0.00228  0.25050  0.48918  1.0000
  F   F259      1.0  0.99909  0.75697  0.98617  1.0000
  F   F260      1.0  0.00316  0.75291  0.50583  1.0000
  F   F261      1.0  0.24685  0.25105  0.00023  1.0000
  F   F262      1.0  0.24996  0.25167  0.50024  1.0000
  F   F263      1.0  0.25244  0.76146  0.99157  1.0000
  F   F264      1.0  0.24561  0.74799  0.50276  1.0000
  F   F265      1.0  0.50298  0.24861  0.00648  1.0000
  F   F266      1.0  0.50034  0.24235  0.50751  1.0000
  F   F267      1.0  0.49776  0.75238  0.99397  1.0000
  F   F268      1.0  0.50070  0.75046  0.50069  1.0000
  F   F269      1.0  0.75193  0.23163  0.00070  1.0000
  F   F270      1.0  0.75114  0.26231  0.48506  1.0000
  F   F271      1.0  0.74307  0.73584  0.00759  1.0000
  F   F272      1.0  0.74596  0.73523  0.50989  1.0000
  F   F273      1.0  0.12568  0.00556  0.25034  1.0000
  F   F274      1.0  0.13317  0.01394  0.73531  1.0000
  F   F275      1.0  0.12655  0.50711  0.24165  1.0000
  F   F276      1.0  0.12729  0.50073  0.74570  1.0000
  F   F277      1.0  0.37305  0.99942  0.25751  1.0000
  F   F278      1.0  0.37208  0.00825  0.74855  1.0000
  F   F279      1.0  0.37492  0.49405  0.24415  1.0000
  F   F280      1.0  0.37446  0.50853  0.74833  1.0000
  F   F281      1.0  0.62509  0.99354  0.25536  1.0000
  F   F282      1.0  0.62687  0.00237  0.74333  1.0000
  F   F283      1.0  0.62334  0.49431  0.25047  1.0000
  F   F284      1.0  0.61791  0.49245  0.76602  1.0000
  F   F285      1.0  0.87221  0.99161  0.24903  1.0000
  F   F286      1.0  0.86841  0.00100  0.75749  1.0000
  F   F287      1.0  0.86737  0.50323  0.26419  1.0000
  F   F288      1.0  0.86942  0.49714  0.75045  1.0000
  F   F289      1.0  0.04451  0.02656  0.01320  1.0000
  F   F290      1.0  0.04167  0.03211  0.53619  1.0000
  F   F291      1.0  0.04278  0.54222  0.01226  1.0000
  F   F292      1.0  0.04479  0.53397  0.52518  1.0000
  F   F293      1.0  0.28984  0.03441  0.01273  1.0000
  F   F294      1.0  0.29445  0.03965  0.50525  1.0000
  F   F295      1.0  0.29440  0.52088  0.02349  1.0000
  F   F296      1.0  0.29276  0.53082  0.51994  1.0000
  F   F297      1.0  0.54688  0.02444  0.02617  1.0000
  F   F298      1.0  0.54157  0.03065  0.52675  1.0000
  F   F299      1.0  0.54895  0.53203  0.01473  1.0000
  F   F300      1.0  0.53738  0.52144  0.52511  1.0000
  F   F301      1.0  0.79689  0.03474  0.01659  1.0000
  F   F302      1.0  0.80151  0.02435  0.51636  1.0000
  F   F303      1.0  0.79184  0.51592  0.01885  1.0000
  F   F304      1.0  0.78658  0.53484  0.52382  1.0000
  F   F305      1.0  0.23309  0.42467  0.21513  1.0000
  F   F306      1.0  0.23484  0.41892  0.72442  1.0000
  F   F307      1.0  0.23771  0.90475  0.23099  1.0000
  F   F308      1.0  0.22919  0.92378  0.72517  1.0000
  F   F309      1.0  0.48582  0.42195  0.21773  1.0000
  F   F310      1.0  0.48731  0.41799  0.72722  1.0000
  F   F311      1.0  0.48097  0.91732  0.23067  1.0000
  F   F312      1.0  0.48488  0.92714  0.71541  1.0000
  F   F313      1.0  0.73998  0.40022  0.23361  1.0000
  F   F314      1.0  0.73135  0.42343  0.72343  1.0000
  F   F315      1.0  0.73185  0.93120  0.20889  1.0000
  F   F316      1.0  0.73503  0.92387  0.71336  1.0000
  F   F317      1.0  0.98361  0.43466  0.21603  1.0000
  F   F318      1.0  0.98923  0.41642  0.71577  1.0000
  F   F319      1.0  0.98083  0.92563  0.22432  1.0000
  F   F320      1.0  0.98237  0.91020  0.73039  1.0000
  F   F321      1.0  0.20125  0.47764  0.48704  1.0000
  F   F322      1.0  0.20731  0.47597  0.98302  1.0000
  F   F323      1.0  0.21295  0.97036  0.46656  1.0000
  F   F324      1.0  0.19894  0.97932  0.98303  1.0000
  F   F325      1.0  0.45535  0.46420  0.48190  1.0000
  F   F326      1.0  0.45190  0.46651  0.99383  1.0000
  F   F327      1.0  0.46509  0.96853  0.46568  1.0000
  F   F328      1.0  0.45470  0.96370  0.99144  1.0000
  F   F329      1.0  0.71069  0.46624  0.48444  1.0000
  F   F330      1.0  0.69562  0.47280  0.98411  1.0000
  F   F331      1.0  0.70394  0.96321  0.48886  1.0000
  F   F332      1.0  0.70483  0.96985  0.97607  1.0000
  F   F333      1.0  0.96073  0.45913  0.48492  1.0000
  F   F334      1.0  0.95073  0.46959  0.98930  1.0000
  F   F335      1.0  0.96220  0.96973  0.46714  1.0000
  F   F336      1.0  0.95363  0.96478  0.98648  1.0000
  F   F337      1.0  0.01963  0.09517  0.26254  1.0000
  F   F338      1.0  0.01812  0.09405  0.76241  1.0000
  F   F339      1.0  0.01769  0.58604  0.27091  1.0000
  F   F340      1.0  0.01337  0.58223  0.77083  1.0000
  F   F341      1.0  0.26666  0.07358  0.27584  1.0000
  F   F342      1.0  0.26265  0.09061  0.76277  1.0000
  F   F343      1.0  0.26213  0.59009  0.27222  1.0000
  F   F344      1.0  0.26794  0.58105  0.77478  1.0000
  F   F345      1.0  0.51856  0.07578  0.26785  1.0000
  F   F346      1.0  0.51195  0.07679  0.78446  1.0000
  F   F347      1.0  0.51790  0.56585  0.28996  1.0000
  F   F348      1.0  0.51492  0.58760  0.77934  1.0000
  F   F349      1.0  0.76762  0.07349  0.28408  1.0000
  F   F350      1.0  0.76415  0.08530  0.77729  1.0000
  F   F351      1.0  0.76786  0.57818  0.28188  1.0000
  F   F352      1.0  0.76653  0.58445  0.76149  1.0000
  F   F353      1.0  0.10292  0.41572  0.45911  1.0000
  F   F354      1.0  0.09937  0.41092  0.96687  1.0000
  F   F355      1.0  0.09962  0.89178  0.46774  1.0000
  F   F356      1.0  0.09888  0.90707  0.97053  1.0000
  F   F357      1.0  0.35196  0.41082  0.45077  1.0000
  F   F358      1.0  0.35910  0.40968  0.95802  1.0000
  F   F359      1.0  0.35122  0.91180  0.46489  1.0000
  F   F360      1.0  0.34868  0.91200  0.95658  1.0000
  F   F361      1.0  0.60388  0.40537  0.46971  1.0000
  F   F362      1.0  0.60495  0.38916  0.97798  1.0000
  F   F363      1.0  0.60169  0.92507  0.45489  1.0000
  F   F364      1.0  0.60003  0.89547  0.96384  1.0000
  F   F365      1.0  0.85028  0.40555  0.46680  1.0000
  F   F366      1.0  0.85279  0.39730  0.95011  1.0000
  F   F367      1.0  0.85204  0.88918  0.47107  1.0000
  F   F368      1.0  0.85221  0.91036  0.96294  1.0000
  F   F369      1.0  0.04551  0.30198  0.28298  1.0000
  F   F370      1.0  0.04399  0.30160  0.77257  1.0000
  F   F371      1.0  0.04111  0.79948  0.29163  1.0000
  F   F372      1.0  0.04976  0.80324  0.79003  1.0000
  F   F373      1.0  0.28925  0.31053  0.28737  1.0000
  F   F374      1.0  0.29959  0.30193  0.78839  1.0000
  F   F375      1.0  0.29567  0.79855  0.28774  1.0000
  F   F376      1.0  0.29235  0.80288  0.78221  1.0000
  F   F377      1.0  0.54474  0.29676  0.30281  1.0000
  F   F378      1.0  0.54630  0.30831  0.79133  1.0000
  F   F379      1.0  0.55216  0.79058  0.29709  1.0000
  F   F380      1.0  0.54126  0.79510  0.79024  1.0000
  F   F381      1.0  0.80461  0.28849  0.28507  1.0000
  F   F382      1.0  0.79706  0.30183  0.78085  1.0000
  F   F383      1.0  0.78621  0.80812  0.29242  1.0000
  F   F384      1.0  0.78978  0.79955  0.79487  1.0000
