data_image0
_chemical_formula_structural       Hf96F384
_chemical_formula_sum              "Hf96 F384"
_cell_length_a       31.0155
_cell_length_b       15.5076
_cell_length_c       15.5012
_cell_angle_alpha    63.342
_cell_angle_beta     63.342
_cell_angle_gamma    80.1625

_space_group_name_H-M_alt    "P 1"
_space_group_IT_number       1

loop_
  _space_group_symop_operation_xyz
  'x, y, z'

loop_
  _atom_site_type_symbol
  _atom_site_label
  _atom_site_symmetry_multiplicity
  _atom_site_fract_x
  _atom_site_fract_y
  _atom_site_fract_z
  _atom_site_occupancy
  Hf  Hf1       1.0  0.19613  0.11124  0.37168  1.0000
  Hf  Hf2       1.0  0.19785  0.11428  0.86811  1.0000
  Hf  Hf3       1.0  0.19870  0.60765  0.37357  1.0000
  Hf  Hf4       1.0  0.19841  0.61282  0.87298  1.0000
  Hf  Hf5       1.0  0.44355  0.10471  0.37935  1.0000
  Hf  Hf6       1.0  0.44506  0.10545  0.87587  1.0000
  Hf  Hf7       1.0  0.44870  0.60095  0.36967  1.0000
  Hf  Hf8       1.0  0.45145  0.60722  0.86197  1.0000
  Hf  Hf9       1.0  0.69146  0.10356  0.38319  1.0000
  Hf  Hf10      1.0  0.69799  0.10442  0.87504  1.0000
  Hf  Hf11      1.0  0.70163  0.61651  0.36138  1.0000
  Hf  Hf12      1.0  0.69424  0.59907  0.88361  1.0000
  Hf  Hf13      1.0  0.94169  0.10087  0.38333  1.0000
  Hf  Hf14      1.0  0.94577  0.10238  0.87782  1.0000
  Hf  Hf15      1.0  0.94433  0.60940  0.37897  1.0000
  Hf  Hf16      1.0  0.94573  0.60684  0.87378  1.0000
  Hf  Hf17      1.0  0.05586  0.39745  0.12183  1.0000
  Hf  Hf18      1.0  0.05524  0.39706  0.61638  1.0000
  Hf  Hf19      1.0  0.05604  0.89477  0.12094  1.0000
  Hf  Hf20      1.0  0.04971  0.88899  0.63125  1.0000
  Hf  Hf21      1.0  0.31117  0.38647  0.12226  1.0000
  Hf  Hf22      1.0  0.30400  0.39104  0.62670  1.0000
  Hf  Hf23      1.0  0.30134  0.89256  0.13082  1.0000
  Hf  Hf24      1.0  0.30277  0.88957  0.63230  1.0000
  Hf  Hf25      1.0  0.55488  0.39664  0.11777  1.0000
  Hf  Hf26      1.0  0.55451  0.39120  0.62305  1.0000
  Hf  Hf27      1.0  0.55285  0.89624  0.12425  1.0000
  Hf  Hf28      1.0  0.55137  0.89594  0.62780  1.0000
  Hf  Hf29      1.0  0.80181  0.38833  0.13263  1.0000
  Hf  Hf30      1.0  0.80201  0.39883  0.61911  1.0000
  Hf  Hf31      1.0  0.80393  0.89997  0.12079  1.0000
  Hf  Hf32      1.0  0.80152  0.88808  0.62137  1.0000
  Hf  Hf33      1.0  0.05101  0.17557  0.41965  1.0000
  Hf  Hf34      1.0  0.05690  0.18841  0.91160  1.0000
  Hf  Hf35      1.0  0.05596  0.69086  0.40832  1.0000
  Hf  Hf36      1.0  0.05532  0.68324  0.91419  1.0000
  Hf  Hf37      1.0  0.30476  0.17463  0.41823  1.0000
  Hf  Hf38      1.0  0.30447  0.18471  0.91578  1.0000
  Hf  Hf39      1.0  0.30187  0.68095  0.42189  1.0000
  Hf  Hf40      1.0  0.30870  0.68012  0.91741  1.0000
  Hf  Hf41      1.0  0.55021  0.17927  0.42809  1.0000
  Hf  Hf42      1.0  0.55645  0.17977  0.92189  1.0000
  Hf  Hf43      1.0  0.55773  0.68085  0.41769  1.0000
  Hf  Hf44      1.0  0.55662  0.68055  0.91898  1.0000
  Hf  Hf45      1.0  0.80540  0.18668  0.41360  1.0000
  Hf  Hf46      1.0  0.80851  0.18276  0.91617  1.0000
  Hf  Hf47      1.0  0.80738  0.68442  0.41872  1.0000
  Hf  Hf48      1.0  0.80399  0.67713  0.92480  1.0000
  Hf  Hf49      1.0  0.15446  0.38889  0.33524  1.0000
  Hf  Hf50      1.0  0.15884  0.39421  0.82916  1.0000
  Hf  Hf51      1.0  0.15740  0.88300  0.34002  1.0000
  Hf  Hf52      1.0  0.16067  0.88747  0.83450  1.0000
  Hf  Hf53      1.0  0.40786  0.38702  0.33834  1.0000
  Hf  Hf54      1.0  0.41110  0.38748  0.82529  1.0000
  Hf  Hf55      1.0  0.40427  0.88403  0.34103  1.0000
  Hf  Hf56      1.0  0.40825  0.88139  0.84122  1.0000
  Hf  Hf57      1.0  0.65942  0.38921  0.33361  1.0000
  Hf  Hf58      1.0  0.65907  0.38065  0.83707  1.0000
  Hf  Hf59      1.0  0.65646  0.89242  0.33503  1.0000
  Hf  Hf60      1.0  0.66289  0.88836  0.82983  1.0000
  Hf  Hf61      1.0  0.90937  0.38563  0.33938  1.0000
  Hf  Hf62      1.0  0.91098  0.38780  0.83116  1.0000
  Hf  Hf63      1.0  0.90959  0.89067  0.33302  1.0000
  Hf  Hf64      1.0  0.90440  0.88430  0.83676  1.0000
  Hf  Hf65      1.0  0.19291  0.32118  0.08340  1.0000
  Hf  Hf66      1.0  0.19765  0.31775  0.57086  1.0000
  Hf  Hf67      1.0  0.19495  0.81934  0.08362  1.0000
  Hf  Hf68      1.0  0.19402  0.82004  0.58259  1.0000
  Hf  Hf69      1.0  0.44743  0.31856  0.08088  1.0000
  Hf  Hf70      1.0  0.44395  0.31278  0.58829  1.0000
  Hf  Hf71      1.0  0.44539  0.81723  0.08218  1.0000
  Hf  Hf72      1.0  0.44406  0.81082  0.58591  1.0000
  Hf  Hf73      1.0  0.69386  0.31280  0.08725  1.0000
  Hf  Hf74      1.0  0.69524  0.32559  0.58038  1.0000
  Hf  Hf75      1.0  0.69463  0.82181  0.08254  1.0000
  Hf  Hf76      1.0  0.69137  0.80971  0.58880  1.0000
  Hf  Hf77      1.0  0.94375  0.31438  0.08579  1.0000
  Hf  Hf78      1.0  0.94458  0.31446  0.58275  1.0000
  Hf  Hf79      1.0  0.94074  0.81756  0.08730  1.0000
  Hf  Hf80      1.0  0.94370  0.82004  0.58033  1.0000
  Hf  Hf81      1.0  0.08952  0.11309  0.16758  1.0000
  Hf  Hf82      1.0  0.08966  0.11288  0.66063  1.0000
  Hf  Hf83      1.0  0.08947  0.61136  0.16176  1.0000
  Hf  Hf84      1.0  0.09223  0.61262  0.66533  1.0000
  Hf  Hf85      1.0  0.34220  0.11049  0.16463  1.0000
  Hf  Hf86      1.0  0.34267  0.11088  0.66731  1.0000
  Hf  Hf87      1.0  0.34868  0.61608  0.16076  1.0000
  Hf  Hf88      1.0  0.34223  0.61868  0.65725  1.0000
  Hf  Hf89      1.0  0.59138  0.11668  0.17012  1.0000
  Hf  Hf90      1.0  0.59227  0.10904  0.67389  1.0000
  Hf  Hf91      1.0  0.59266  0.61322  0.16318  1.0000
  Hf  Hf92      1.0  0.59474  0.60775  0.66562  1.0000
  Hf  Hf93      1.0  0.83993  0.10603  0.16875  1.0000
  Hf  Hf94      1.0  0.83943  0.10767  0.67005  1.0000
  Hf  Hf95      1.0  0.84508  0.61325  0.16767  1.0000
  Hf  Hf96      1.0  0.84072  0.61395  0.67107  1.0000
  F   F1        1.0  0.06731  0.12884  0.30838  1.0000
  F   F2        1.0  0.07885  0.12449  0.80400  1.0000
  F   F3        1.0  0.08074  0.63463  0.29264  1.0000
  F   F4        1.0  0.07762  0.62951  0.80173  1.0000
  F   F5        1.0  0.32603  0.12086  0.30727  1.0000
  F   F6        1.0  0.32598  0.12735  0.80684  1.0000
  F   F7        1.0  0.33244  0.64743  0.28907  1.0000
  F   F8        1.0  0.32573  0.62520  0.80841  1.0000
  F   F9        1.0  0.57023  0.10697  0.31914  1.0000
  F   F10       1.0  0.57871  0.12775  0.81288  1.0000
  F   F11       1.0  0.58018  0.62407  0.29485  1.0000
  F   F12       1.0  0.57843  0.63144  0.80569  1.0000
  F   F13       1.0  0.83060  0.14283  0.29219  1.0000
  F   F14       1.0  0.82905  0.11916  0.80902  1.0000
  F   F15       1.0  0.83265  0.63218  0.29915  1.0000
  F   F16       1.0  0.82755  0.61759  0.81410  1.0000
  F   F17       1.0  0.18480  0.34463  0.43940  1.0000
  F   F18       1.0  0.17681  0.33176  0.95926  1.0000
  F   F19       1.0  0.18493  0.83784  0.44880  1.0000
  F   F20       1.0  0.19643  0.84834  0.93596  1.0000
  F   F21       1.0  0.42834  0.33099  0.46128  1.0000
  F   F22       1.0  0.43357  0.34083  0.94201  1.0000
  F   F23       1.0  0.42741  0.84077  0.45445  1.0000
  F   F24       1.0  0.43327  0.83719  0.95539  1.0000
  F   F25       1.0  0.68311  0.34028  0.45308  1.0000
  F   F26       1.0  0.69007  0.32554  0.94649  1.0000
  F   F27       1.0  0.68053  0.82976  0.45411  1.0000
  F   F28       1.0  0.68496  0.84245  0.94442  1.0000
  F   F29       1.0  0.93420  0.33153  0.45441  1.0000
  F   F30       1.0  0.94129  0.34781  0.94460  1.0000
  F   F31       1.0  0.93872  0.84607  0.44526  1.0000
  F   F32       1.0  0.93385  0.84546  0.94399  1.0000
  F   F33       1.0  0.16866  0.38799  0.19596  1.0000
  F   F34       1.0  0.17599  0.36786  0.69026  1.0000
  F   F35       1.0  0.16465  0.84915  0.20723  1.0000
  F   F36       1.0  0.17013  0.87795  0.70089  1.0000
  F   F37       1.0  0.42553  0.38282  0.19432  1.0000
  F   F38       1.0  0.42390  0.38689  0.68312  1.0000
  F   F39       1.0  0.42738  0.89428  0.19253  1.0000
  F   F40       1.0  0.42146  0.85892  0.71012  1.0000
  F   F41       1.0  0.66967  0.37571  0.19356  1.0000
  F   F42       1.0  0.67170  0.37544  0.69493  1.0000
  F   F43       1.0  0.66532  0.86880  0.19756  1.0000
  F   F44       1.0  0.67189  0.88162  0.68756  1.0000
  F   F45       1.0  0.91972  0.38142  0.18748  1.0000
  F   F46       1.0  0.92597  0.36158  0.69787  1.0000
  F   F47       1.0  0.91946  0.88576  0.19599  1.0000
  F   F48       1.0  0.91186  0.86170  0.70029  1.0000
  F   F49       1.0  0.06704  0.15793  0.05054  1.0000
  F   F50       1.0  0.06345  0.16002  0.54968  1.0000
  F   F51       1.0  0.05785  0.66084  0.05066  1.0000
  F   F52       1.0  0.07090  0.66323  0.53573  1.0000
  F   F53       1.0  0.30980  0.15576  0.05699  1.0000
  F   F54       1.0  0.31380  0.15244  0.55238  1.0000
  F   F55       1.0  0.32062  0.64606  0.06110  1.0000
  F   F56       1.0  0.31514  0.66280  0.54845  1.0000
  F   F57       1.0  0.56573  0.16292  0.05341  1.0000
  F   F58       1.0  0.55861  0.15634  0.57269  1.0000
  F   F59       1.0  0.56161  0.65291  0.05352  1.0000
  F   F60       1.0  0.56053  0.66221  0.54590  1.0000
  F   F61       1.0  0.81530  0.16290  0.05665  1.0000
  F   F62       1.0  0.80944  0.15271  0.56246  1.0000
  F   F63       1.0  0.81445  0.66398  0.05786  1.0000
  F   F64       1.0  0.81108  0.65316  0.56221  1.0000
  F   F65       1.0  0.20533  0.21857  0.20544  1.0000
  F   F66       1.0  0.20743  0.20119  0.70516  1.0000
  F   F67       1.0  0.20945  0.70265  0.20557  1.0000
  F   F68       1.0  0.19768  0.70609  0.71984  1.0000
  F   F69       1.0  0.45033  0.20226  0.21582  1.0000
  F   F70       1.0  0.45953  0.19630  0.71509  1.0000
  F   F71       1.0  0.45919  0.70684  0.20256  1.0000
  F   F72       1.0  0.46367  0.70303  0.69629  1.0000
  F   F73       1.0  0.70692  0.20579  0.21488  1.0000
  F   F74       1.0  0.70451  0.20557  0.70370  1.0000
  F   F75       1.0  0.70755  0.70323  0.20756  1.0000
  F   F76       1.0  0.68774  0.70090  0.72274  1.0000
  F   F77       1.0  0.94806  0.20090  0.22169  1.0000
  F   F78       1.0  0.96324  0.20547  0.69842  1.0000
  F   F79       1.0  0.94545  0.70389  0.22134  1.0000
  F   F80       1.0  0.95552  0.70431  0.70495  1.0000
  F   F81       1.0  0.15193  0.10811  0.02741  1.0000
  F   F82       1.0  0.15030  0.09150  0.53465  1.0000
  F   F83       1.0  0.14603  0.58821  0.04109  1.0000
  F   F84       1.0  0.15985  0.57969  0.53418  1.0000
  F   F85       1.0  0.39601  0.12018  0.02647  1.0000
  F   F86       1.0  0.39826  0.09938  0.53388  1.0000
  F   F87       1.0  0.40623  0.59844  0.03841  1.0000
  F   F88       1.0  0.40738  0.60429  0.52767  1.0000
  F   F89       1.0  0.64796  0.10629  0.03578  1.0000
  F   F90       1.0  0.64804  0.10316  0.54239  1.0000
  F   F91       1.0  0.65061  0.60661  0.02979  1.0000
  F   F92       1.0  0.64588  0.60082  0.52984  1.0000
  F   F93       1.0  0.89554  0.07418  0.04083  1.0000
  F   F94       1.0  0.89333  0.09804  0.53985  1.0000
  F   F95       1.0  0.89446  0.59190  0.03256  1.0000
  F   F96       1.0  0.90268  0.60351  0.53811  1.0000
  F   F97       1.0  0.14243  0.20426  0.13847  1.0000
  F   F98       1.0  0.15285  0.19518  0.61767  1.0000
  F   F99       1.0  0.15360  0.70939  0.11155  1.0000
  F   F100      1.0  0.15384  0.68911  0.61666  1.0000
  F   F101      1.0  0.39995  0.21763  0.12288  1.0000
  F   F102      1.0  0.40369  0.19339  0.63770  1.0000
  F   F103      1.0  0.40756  0.69254  0.12557  1.0000
  F   F104      1.0  0.39871  0.69018  0.63946  1.0000
  F   F105      1.0  0.64785  0.19965  0.14407  1.0000
  F   F106      1.0  0.64840  0.20028  0.63078  1.0000
  F   F107      1.0  0.65030  0.71457  0.12691  1.0000
  F   F108      1.0  0.65128  0.68130  0.62693  1.0000
  F   F109      1.0  0.90064  0.20080  0.11893  1.0000
  F   F110      1.0  0.89952  0.19563  0.62827  1.0000
  F   F111      1.0  0.90275  0.70292  0.11307  1.0000
  F   F112      1.0  0.89823  0.69973  0.63454  1.0000
  F   F113      1.0  0.10008  0.29862  0.36369  1.0000
  F   F114      1.0  0.10039  0.30787  0.87856  1.0000
  F   F115      1.0  0.09574  0.81173  0.37824  1.0000
  F   F116      1.0  0.09685  0.79506  0.87182  1.0000
  F   F117      1.0  0.35013  0.29769  0.37612  1.0000
  F   F118      1.0  0.34663  0.30046  0.87271  1.0000
  F   F119      1.0  0.34636  0.79724  0.35971  1.0000
  F   F120      1.0  0.34901  0.79539  0.88296  1.0000
  F   F121      1.0  0.60236  0.29698  0.38523  1.0000
  F   F122      1.0  0.60209  0.30274  0.87556  1.0000
  F   F123      1.0  0.59538  0.81793  0.38394  1.0000
  F   F124      1.0  0.60759  0.79736  0.85762  1.0000
  F   F125      1.0  0.84486  0.30807  0.37612  1.0000
  F   F126      1.0  0.85041  0.30987  0.87148  1.0000
  F   F127      1.0  0.84551  0.80079  0.37347  1.0000
  F   F128      1.0  0.84754  0.80187  0.87791  1.0000
  F   F129      1.0  0.06092  0.25073  0.14432  1.0000
  F   F130      1.0  0.06329  0.25272  0.64318  1.0000
  F   F131      1.0  0.07346  0.75829  0.12080  1.0000
  F   F132      1.0  0.05921  0.74871  0.64717  1.0000
  F   F133      1.0  0.31641  0.24128  0.14655  1.0000
  F   F134      1.0  0.31917  0.24956  0.63535  1.0000
  F   F135      1.0  0.32193  0.76014  0.12529  1.0000
  F   F136      1.0  0.31717  0.75628  0.63777  1.0000
  F   F137      1.0  0.56118  0.25039  0.15556  1.0000
  F   F138      1.0  0.55558  0.24875  0.66218  1.0000
  F   F139      1.0  0.57041  0.75220  0.13009  1.0000
  F   F140      1.0  0.57191  0.75045  0.62302  1.0000
  F   F141      1.0  0.80880  0.25263  0.15491  1.0000
  F   F142      1.0  0.81786  0.25248  0.62406  1.0000
  F   F143      1.0  0.81378  0.75693  0.14564  1.0000
  F   F144      1.0  0.80903  0.74701  0.64557  1.0000
  F   F145      1.0  0.12573  0.37906  0.10718  1.0000
  F   F146      1.0  0.12681  0.38200  0.59271  1.0000
  F   F147      1.0  0.12848  0.88085  0.08718  1.0000
  F   F148      1.0  0.12014  0.85684  0.62240  1.0000
  F   F149      1.0  0.37909  0.37238  0.10304  1.0000
  F   F150      1.0  0.37598  0.37150  0.60618  1.0000
  F   F151      1.0  0.37609  0.86627  0.12088  1.0000
  F   F152      1.0  0.37645  0.87733  0.61335  1.0000
  F   F153      1.0  0.62593  0.37392  0.09734  1.0000
  F   F154      1.0  0.62387  0.36548  0.61239  1.0000
  F   F155      1.0  0.62741  0.89897  0.07556  1.0000
  F   F156      1.0  0.62299  0.85448  0.62525  1.0000
  F   F157      1.0  0.86771  0.35479  0.12021  1.0000
  F   F158      1.0  0.87232  0.37326  0.60250  1.0000
  F   F159      1.0  0.87421  0.87890  0.10543  1.0000
  F   F160      1.0  0.87432  0.88355  0.58856  1.0000
  F   F161      1.0  0.18037  0.25127  0.36000  1.0000
  F   F162      1.0  0.19053  0.26034  0.84088  1.0000
  F   F163      1.0  0.18873  0.75562  0.35053  1.0000
  F   F164      1.0  0.18478  0.74776  0.85829  1.0000
  F   F165      1.0  0.43560  0.24875  0.36397  1.0000
  F   F166      1.0  0.44185  0.24639  0.85125  1.0000
  F   F167      1.0  0.42598  0.75012  0.36075  1.0000
  F   F168      1.0  0.43984  0.74430  0.85382  1.0000
  F   F169      1.0  0.67984  0.24539  0.36755  1.0000
  F   F170      1.0  0.68763  0.24492  0.84976  1.0000
  F   F171      1.0  0.68087  0.75162  0.35089  1.0000
  F   F172      1.0  0.69205  0.74723  0.85543  1.0000
  F   F173      1.0  0.92994  0.24653  0.37107  1.0000
  F   F174      1.0  0.94527  0.24559  0.85481  1.0000
  F   F175      1.0  0.93766  0.75799  0.35446  1.0000
  F   F176      1.0  0.93305  0.74435  0.85736  1.0000
  F   F177      1.0  0.11927  0.12258  0.39102  1.0000
  F   F178      1.0  0.12765  0.15137  0.87313  1.0000
  F   F179      1.0  0.13094  0.65358  0.37296  1.0000
  F   F180      1.0  0.12259  0.62462  0.89371  1.0000
  F   F181      1.0  0.37578  0.13623  0.38372  1.0000
  F   F182      1.0  0.37348  0.13627  0.87602  1.0000
  F   F183      1.0  0.37831  0.61914  0.38883  1.0000
  F   F184      1.0  0.37894  0.61520  0.90424  1.0000
  F   F185      1.0  0.61870  0.11799  0.40870  1.0000
  F   F186      1.0  0.62624  0.12046  0.90083  1.0000
  F   F187      1.0  0.63112  0.63754  0.37299  1.0000
  F   F188      1.0  0.61888  0.59927  0.92705  1.0000
  F   F189      1.0  0.86963  0.11886  0.40085  1.0000
  F   F190      1.0  0.87894  0.14318  0.87904  1.0000
  F   F191      1.0  0.87770  0.63628  0.38844  1.0000
  F   F192      1.0  0.87548  0.62899  0.88597  1.0000
  F   F193      1.0  0.00633  0.36171  0.06480  1.0000
  F   F194      1.0  0.00590  0.36320  0.57799  1.0000
  F   F195      1.0  0.00571  0.85632  0.07749  1.0000
  F   F196      1.0  0.00732  0.86775  0.57215  1.0000
  F   F197      1.0  0.25851  0.36262  0.07487  1.0000
  F   F198      1.0  0.26040  0.36452  0.55929  1.0000
  F   F199      1.0  0.25378  0.87594  0.07776  1.0000
  F   F200      1.0  0.25566  0.85247  0.58321  1.0000
  F   F201      1.0  0.50868  0.36530  0.06958  1.0000
  F   F202      1.0  0.51157  0.36974  0.55549  1.0000
  F   F203      1.0  0.50379  0.87062  0.08244  1.0000
  F   F204      1.0  0.50617  0.86143  0.57936  1.0000
  F   F205      1.0  0.75866  0.36580  0.07727  1.0000
  F   F206      1.0  0.76021  0.37350  0.55966  1.0000
  F   F207      1.0  0.75684  0.87290  0.07305  1.0000
  F   F208      1.0  0.75313  0.86104  0.57561  1.0000
  F   F209      1.0  0.06666  0.48115  0.18425  1.0000
  F   F210      1.0  0.07054  0.48507  0.68442  1.0000
  F   F211      1.0  0.06734  0.98442  0.18119  1.0000
  F   F212      1.0  0.07138  0.98389  0.66910  1.0000
  F   F213      1.0  0.32727  0.48312  0.15908  1.0000
  F   F214      1.0  0.31887  0.49144  0.66470  1.0000
  F   F215      1.0  0.32390  0.98161  0.16964  1.0000
  F   F216      1.0  0.32049  0.98459  0.67598  1.0000
  F   F217      1.0  0.57646  0.47758  0.17585  1.0000
  F   F218      1.0  0.56947  0.49236  0.65486  1.0000
  F   F219      1.0  0.57406  0.99310  0.17753  1.0000
  F   F220      1.0  0.57358  0.98430  0.68218  1.0000
  F   F221      1.0  0.82703  0.47216  0.18145  1.0000
  F   F222      1.0  0.81936  0.48731  0.67433  1.0000
  F   F223      1.0  0.81695  0.97166  0.20068  1.0000
  F   F224      1.0  0.81445  0.97602  0.69210  1.0000
  F   F225      1.0  0.24075  0.13270  0.43022  1.0000
  F   F226      1.0  0.23878  0.14134  0.93632  1.0000
  F   F227      1.0  0.24132  0.64507  0.42451  1.0000
  F   F228      1.0  0.24209  0.63945  0.93435  1.0000
  F   F229      1.0  0.49340  0.13739  0.42050  1.0000
  F   F230      1.0  0.48928  0.12770  0.93331  1.0000
  F   F231      1.0  0.49529  0.65823  0.40074  1.0000
  F   F232      1.0  0.48959  0.64262  0.93440  1.0000
  F   F233      1.0  0.73932  0.13758  0.43335  1.0000
  F   F234      1.0  0.74117  0.14318  0.92501  1.0000
  F   F235      1.0  0.74203  0.64368  0.41640  1.0000
  F   F236      1.0  0.73500  0.62766  0.94862  1.0000
  F   F237      1.0  0.98054  0.13359  0.44949  1.0000
  F   F238      1.0  0.99480  0.12869  0.92842  1.0000
  F   F239      1.0  0.99525  0.63885  0.42710  1.0000
  F   F240      1.0  0.98991  0.63719  0.93739  1.0000
  F   F241      1.0  0.17795  0.02697  0.32240  1.0000
  F   F242      1.0  0.17922  0.02080  0.82338  1.0000
  F   F243      1.0  0.17707  0.51792  0.33400  1.0000
  F   F244      1.0  0.18423  0.52116  0.82045  1.0000
  F   F245      1.0  0.43276  0.00801  0.33060  1.0000
  F   F246      1.0  0.42689  0.01102  0.82428  1.0000
  F   F247      1.0  0.43344  0.51683  0.31322  1.0000
  F   F248      1.0  0.43676  0.51262  0.79706  1.0000
  F   F249      1.0  0.67940  0.02001  0.32695  1.0000
  F   F250      1.0  0.68523  0.01295  0.82499  1.0000
  F   F251      1.0  0.68589  0.51363  0.33088  1.0000
  F   F252      1.0  0.68156  0.51410  0.82454  1.0000
  F   F253      1.0  0.93172  0.01754  0.31542  1.0000
  F   F254      1.0  0.92733  0.02398  0.81813  1.0000
  F   F255      1.0  0.93407  0.51071  0.32743  1.0000
  F   F256      1.0  0.92834  0.51024  0.82764  1.0000
  F   F257      1.0  0.99750  0.23635  0.00444  1.0000
  F   F258      1.0  0.00424  0.26238  0.48878  1.0000
  F   F259      1.0  0.99542  0.75176  0.00748  1.0000
  F   F260      1.0  0.00138  0.75662  0.49551  1.0000
  F   F261      1.0  0.24948  0.26855  0.98652  1.0000
  F   F262      1.0  0.24954  0.24622  0.49185  1.0000
  F   F263      1.0  0.25375  0.73058  0.01116  1.0000
  F   F264      1.0  0.24909  0.75636  0.49777  1.0000
  F   F265      1.0  0.50127  0.25491  0.00473  1.0000
  F   F266      1.0  0.49851  0.24506  0.50563  1.0000
  F   F267      1.0  0.50420  0.77771  0.98279  1.0000
  F   F268      1.0  0.50041  0.76779  0.48478  1.0000
  F   F269      1.0  0.75530  0.26181  0.99736  1.0000
  F   F270      1.0  0.74962  0.24637  0.50629  1.0000
  F   F271      1.0  0.75171  0.76174  0.99056  1.0000
  F   F272      1.0  0.74828  0.74531  0.50060  1.0000
  F   F273      1.0  0.12549  0.99508  0.25833  1.0000
  F   F274      1.0  0.12650  0.00155  0.74158  1.0000
  F   F275      1.0  0.11709  0.49815  0.26273  1.0000
  F   F276      1.0  0.12959  0.50561  0.73845  1.0000
  F   F277      1.0  0.37755  0.01099  0.24455  1.0000
  F   F278      1.0  0.37779  0.99989  0.74424  1.0000
  F   F279      1.0  0.36713  0.49409  0.26094  1.0000
  F   F280      1.0  0.37149  0.50427  0.74452  1.0000
  F   F281      1.0  0.63345  0.01326  0.23788  1.0000
  F   F282      1.0  0.62462  0.99576  0.75185  1.0000
  F   F283      1.0  0.62902  0.50719  0.24742  1.0000
  F   F284      1.0  0.62361  0.49570  0.75654  1.0000
  F   F285      1.0  0.86680  0.99774  0.27205  1.0000
  F   F286      1.0  0.87214  0.99106  0.75587  1.0000
  F   F287      1.0  0.88062  0.51026  0.24058  1.0000
  F   F288      1.0  0.87187  0.49335  0.74900  1.0000
  F   F289      1.0  0.04821  0.02257  0.01479  1.0000
  F   F290      1.0  0.03699  0.02962  0.52079  1.0000
  F   F291      1.0  0.03794  0.52558  0.02496  1.0000
  F   F292      1.0  0.04987  0.53075  0.51020  1.0000
  F   F293      1.0  0.29254  0.03378  0.02085  1.0000
  F   F294      1.0  0.29516  0.01934  0.51990  1.0000
  F   F295      1.0  0.29203  0.53992  0.01916  1.0000
  F   F296      1.0  0.28938  0.52896  0.52267  1.0000
  F   F297      1.0  0.54189  0.02671  0.02037  1.0000
  F   F298      1.0  0.52817  0.03196  0.54887  1.0000
  F   F299      1.0  0.53619  0.52937  0.03599  1.0000
  F   F300      1.0  0.53609  0.53572  0.51994  1.0000
  F   F301      1.0  0.79199  0.04154  0.03640  1.0000
  F   F302      1.0  0.78632  0.02441  0.53249  1.0000
  F   F303      1.0  0.79352  0.52894  0.03378  1.0000
  F   F304      1.0  0.79277  0.53405  0.52384  1.0000
  F   F305      1.0  0.24377  0.40334  0.23080  1.0000
  F   F306      1.0  0.23558  0.41849  0.72383  1.0000
  F   F307      1.0  0.23299  0.92810  0.21848  1.0000
  F   F308      1.0  0.24120  0.91509  0.73427  1.0000
  F   F309      1.0  0.48837  0.39388  0.23887  1.0000
  F   F310      1.0  0.48882  0.39700  0.72646  1.0000
  F   F311      1.0  0.48668  0.89833  0.24963  1.0000
  F   F312      1.0  0.48827  0.91062  0.73328  1.0000
  F   F313      1.0  0.73479  0.42098  0.22514  1.0000
  F   F314      1.0  0.73370  0.41623  0.72971  1.0000
  F   F315      1.0  0.72952  0.92260  0.22627  1.0000
  F   F316      1.0  0.73606  0.91974  0.72377  1.0000
  F   F317      1.0  0.98135  0.39685  0.24627  1.0000
  F   F318      1.0  0.98720  0.41544  0.72855  1.0000
  F   F319      1.0  0.98861  0.91598  0.22274  1.0000
  F   F320      1.0  0.97783  0.90796  0.72909  1.0000
  F   F321      1.0  0.21167  0.46337  0.47535  1.0000
  F   F322      1.0  0.21159  0.47023  0.96510  1.0000
  F   F323      1.0  0.20669  0.96406  0.47954  1.0000
  F   F324      1.0  0.20272  0.97633  0.98191  1.0000
  F   F325      1.0  0.44912  0.46030  0.47476  1.0000
  F   F326      1.0  0.46275  0.46812  0.96785  1.0000
  F   F327      1.0  0.46344  0.95872  0.47777  1.0000
  F   F328      1.0  0.44970  0.97203  0.98483  1.0000
  F   F329      1.0  0.70247  0.48032  0.48401  1.0000
  F   F330      1.0  0.71208  0.45525  0.97601  1.0000
  F   F331      1.0  0.70156  0.96449  0.47276  1.0000
  F   F332      1.0  0.71007  0.97245  0.97444  1.0000
  F   F333      1.0  0.95863  0.47103  0.46672  1.0000
  F   F334      1.0  0.95315  0.47482  0.98170  1.0000
  F   F335      1.0  0.95638  0.96764  0.48412  1.0000
  F   F336      1.0  0.95664  0.97202  0.98169  1.0000
  F   F337      1.0  0.00950  0.09410  0.26411  1.0000
  F   F338      1.0  0.01880  0.07402  0.77947  1.0000
  F   F339      1.0  0.01502  0.60449  0.26176  1.0000
  F   F340      1.0  0.01530  0.59123  0.76738  1.0000
  F   F341      1.0  0.26116  0.07770  0.27455  1.0000
  F   F342      1.0  0.26627  0.07821  0.76611  1.0000
  F   F343      1.0  0.26588  0.57575  0.28165  1.0000
  F   F344      1.0  0.26712  0.59263  0.74972  1.0000
  F   F345      1.0  0.50938  0.09319  0.26403  1.0000
  F   F346      1.0  0.51260  0.07752  0.78563  1.0000
  F   F347      1.0  0.51416  0.56718  0.27763  1.0000
  F   F348      1.0  0.51834  0.58285  0.76511  1.0000
  F   F349      1.0  0.76740  0.08867  0.28476  1.0000
  F   F350      1.0  0.76703  0.09621  0.77219  1.0000
  F   F351      1.0  0.77349  0.58678  0.27107  1.0000
  F   F352      1.0  0.76345  0.58310  0.77762  1.0000
  F   F353      1.0  0.09578  0.39856  0.46270  1.0000
  F   F354      1.0  0.09944  0.42364  0.96339  1.0000
  F   F355      1.0  0.10673  0.91285  0.46689  1.0000
  F   F356      1.0  0.10228  0.90353  0.95228  1.0000
  F   F357      1.0  0.34911  0.41172  0.46459  1.0000
  F   F358      1.0  0.35437  0.41297  0.95206  1.0000
  F   F359      1.0  0.34616  0.89649  0.46580  1.0000
  F   F360      1.0  0.35262  0.91212  0.96040  1.0000
  F   F361      1.0  0.60509  0.40405  0.46654  1.0000
  F   F362      1.0  0.60369  0.41951  0.94804  1.0000
  F   F363      1.0  0.60054  0.92303  0.45925  1.0000
  F   F364      1.0  0.60151  0.90962  0.95072  1.0000
  F   F365      1.0  0.84891  0.40822  0.46403  1.0000
  F   F366      1.0  0.85121  0.40780  0.95700  1.0000
  F   F367      1.0  0.84895  0.89086  0.45896  1.0000
  F   F368      1.0  0.84845  0.92408  0.95772  1.0000
  F   F369      1.0  0.04720  0.29904  0.28188  1.0000
  F   F370      1.0  0.04366  0.29917  0.78667  1.0000
  F   F371      1.0  0.04947  0.80069  0.27907  1.0000
  F   F372      1.0  0.03859  0.79393  0.79212  1.0000
  F   F373      1.0  0.30277  0.29229  0.28488  1.0000
  F   F374      1.0  0.29837  0.30295  0.78218  1.0000
  F   F375      1.0  0.29034  0.81409  0.28369  1.0000
  F   F376      1.0  0.29696  0.80882  0.78694  1.0000
  F   F377      1.0  0.55340  0.29569  0.29563  1.0000
  F   F378      1.0  0.54979  0.29691  0.79798  1.0000
  F   F379      1.0  0.55698  0.79458  0.27859  1.0000
  F   F380      1.0  0.54686  0.79857  0.78416  1.0000
  F   F381      1.0  0.78969  0.29616  0.30259  1.0000
  F   F382      1.0  0.79977  0.28958  0.78167  1.0000
  F   F383      1.0  0.79461  0.79734  0.29289  1.0000
  F   F384      1.0  0.79770  0.78540  0.78501  1.0000
