data_image0
_chemical_formula_structural       Hf96F384
_chemical_formula_sum              "Hf96 F384"
_cell_length_a       31.063
_cell_length_b       15.5228
_cell_length_c       15.5155
_cell_angle_alpha    63.342
_cell_angle_beta     63.342
_cell_angle_gamma    80.1625

_space_group_name_H-M_alt    "P 1"
_space_group_IT_number       1

loop_
  _space_group_symop_operation_xyz
  'x, y, z'

loop_
  _atom_site_type_symbol
  _atom_site_label
  _atom_site_symmetry_multiplicity
  _atom_site_fract_x
  _atom_site_fract_y
  _atom_site_fract_z
  _atom_site_occupancy
  Hf  Hf1       1.0  0.20212  0.11250  0.36447  1.0000
  Hf  Hf2       1.0  0.19451  0.10794  0.88140  1.0000
  Hf  Hf3       1.0  0.20166  0.61071  0.37087  1.0000
  Hf  Hf4       1.0  0.19372  0.60648  0.87245  1.0000
  Hf  Hf5       1.0  0.44653  0.10434  0.37725  1.0000
  Hf  Hf6       1.0  0.44227  0.09796  0.88451  1.0000
  Hf  Hf7       1.0  0.44089  0.60573  0.38183  1.0000
  Hf  Hf8       1.0  0.44784  0.60285  0.87684  1.0000
  Hf  Hf9       1.0  0.69563  0.10980  0.36549  1.0000
  Hf  Hf10      1.0  0.69391  0.10468  0.87889  1.0000
  Hf  Hf11      1.0  0.69568  0.60342  0.38288  1.0000
  Hf  Hf12      1.0  0.70282  0.61419  0.86430  1.0000
  Hf  Hf13      1.0  0.94670  0.11337  0.36683  1.0000
  Hf  Hf14      1.0  0.94504  0.10654  0.87520  1.0000
  Hf  Hf15      1.0  0.94186  0.60319  0.38259  1.0000
  Hf  Hf16      1.0  0.94392  0.61152  0.87568  1.0000
  Hf  Hf17      1.0  0.05281  0.39288  0.12703  1.0000
  Hf  Hf18      1.0  0.05547  0.38956  0.63087  1.0000
  Hf  Hf19      1.0  0.05635  0.88281  0.13179  1.0000
  Hf  Hf20      1.0  0.05506  0.89602  0.61854  1.0000
  Hf  Hf21      1.0  0.30309  0.38150  0.13847  1.0000
  Hf  Hf22      1.0  0.30049  0.39368  0.63119  1.0000
  Hf  Hf23      1.0  0.30342  0.89581  0.12039  1.0000
  Hf  Hf24      1.0  0.30902  0.88885  0.62340  1.0000
  Hf  Hf25      1.0  0.55354  0.40093  0.12918  1.0000
  Hf  Hf26      1.0  0.55170  0.37440  0.63014  1.0000
  Hf  Hf27      1.0  0.55198  0.89693  0.13316  1.0000
  Hf  Hf28      1.0  0.55608  0.90030  0.61118  1.0000
  Hf  Hf29      1.0  0.80495  0.40164  0.12123  1.0000
  Hf  Hf30      1.0  0.80117  0.39595  0.61900  1.0000
  Hf  Hf31      1.0  0.80293  0.88935  0.12600  1.0000
  Hf  Hf32      1.0  0.80517  0.89499  0.61995  1.0000
  Hf  Hf33      1.0  0.05696  0.17626  0.41517  1.0000
  Hf  Hf34      1.0  0.05433  0.17674  0.92711  1.0000
  Hf  Hf35      1.0  0.05600  0.68559  0.41684  1.0000
  Hf  Hf36      1.0  0.05346  0.68224  0.91445  1.0000
  Hf  Hf37      1.0  0.30696  0.17386  0.42395  1.0000
  Hf  Hf38      1.0  0.30732  0.18009  0.92011  1.0000
  Hf  Hf39      1.0  0.30522  0.68376  0.42007  1.0000
  Hf  Hf40      1.0  0.30571  0.67244  0.92207  1.0000
  Hf  Hf41      1.0  0.55477  0.18501  0.41891  1.0000
  Hf  Hf42      1.0  0.55183  0.17931  0.91742  1.0000
  Hf  Hf43      1.0  0.55052  0.67446  0.42947  1.0000
  Hf  Hf44      1.0  0.56093  0.68943  0.90349  1.0000
  Hf  Hf45      1.0  0.80687  0.18531  0.41291  1.0000
  Hf  Hf46      1.0  0.81021  0.18922  0.91124  1.0000
  Hf  Hf47      1.0  0.80676  0.68651  0.41537  1.0000
  Hf  Hf48      1.0  0.80825  0.68917  0.91047  1.0000
  Hf  Hf49      1.0  0.16005  0.38537  0.33034  1.0000
  Hf  Hf50      1.0  0.15425  0.38704  0.83622  1.0000
  Hf  Hf51      1.0  0.15830  0.89214  0.32629  1.0000
  Hf  Hf52      1.0  0.15862  0.89240  0.83102  1.0000
  Hf  Hf53      1.0  0.40277  0.38009  0.34681  1.0000
  Hf  Hf54      1.0  0.40809  0.38647  0.83784  1.0000
  Hf  Hf55      1.0  0.40533  0.88925  0.34404  1.0000
  Hf  Hf56      1.0  0.40850  0.88665  0.83269  1.0000
  Hf  Hf57      1.0  0.66008  0.38662  0.33372  1.0000
  Hf  Hf58      1.0  0.66056  0.38946  0.82932  1.0000
  Hf  Hf59      1.0  0.65438  0.88270  0.34116  1.0000
  Hf  Hf60      1.0  0.65970  0.88772  0.83267  1.0000
  Hf  Hf61      1.0  0.90681  0.39794  0.32967  1.0000
  Hf  Hf62      1.0  0.91125  0.38711  0.82537  1.0000
  Hf  Hf63      1.0  0.91336  0.89407  0.32325  1.0000
  Hf  Hf64      1.0  0.90881  0.88820  0.83021  1.0000
  Hf  Hf65      1.0  0.19850  0.31998  0.07337  1.0000
  Hf  Hf66      1.0  0.19435  0.31860  0.58083  1.0000
  Hf  Hf67      1.0  0.19622  0.81227  0.08046  1.0000
  Hf  Hf68      1.0  0.19143  0.82004  0.58350  1.0000
  Hf  Hf69      1.0  0.44390  0.31467  0.08900  1.0000
  Hf  Hf70      1.0  0.44402  0.31427  0.58497  1.0000
  Hf  Hf71      1.0  0.44558  0.81160  0.09123  1.0000
  Hf  Hf72      1.0  0.44556  0.81798  0.58521  1.0000
  Hf  Hf73      1.0  0.69885  0.32636  0.07284  1.0000
  Hf  Hf74      1.0  0.69240  0.31597  0.59186  1.0000
  Hf  Hf75      1.0  0.69437  0.81500  0.08847  1.0000
  Hf  Hf76      1.0  0.69236  0.81671  0.58000  1.0000
  Hf  Hf77      1.0  0.94335  0.32531  0.08130  1.0000
  Hf  Hf78      1.0  0.94675  0.32099  0.57591  1.0000
  Hf  Hf79      1.0  0.94525  0.82478  0.07687  1.0000
  Hf  Hf80      1.0  0.94348  0.82398  0.58451  1.0000
  Hf  Hf81      1.0  0.09271  0.11139  0.16552  1.0000
  Hf  Hf82      1.0  0.09264  0.10997  0.66429  1.0000
  Hf  Hf83      1.0  0.08695  0.60876  0.17208  1.0000
  Hf  Hf84      1.0  0.09176  0.61983  0.65576  1.0000
  Hf  Hf85      1.0  0.34252  0.10041  0.17452  1.0000
  Hf  Hf86      1.0  0.34354  0.11286  0.66814  1.0000
  Hf  Hf87      1.0  0.34285  0.61553  0.17047  1.0000
  Hf  Hf88      1.0  0.34119  0.60723  0.66486  1.0000
  Hf  Hf89      1.0  0.59256  0.11451  0.16595  1.0000
  Hf  Hf90      1.0  0.59546  0.10793  0.65637  1.0000
  Hf  Hf91      1.0  0.59279  0.61703  0.16027  1.0000
  Hf  Hf92      1.0  0.58952  0.61378  0.66435  1.0000
  Hf  Hf93      1.0  0.84023  0.12213  0.16241  1.0000
  Hf  Hf94      1.0  0.83821  0.11011  0.66589  1.0000
  Hf  Hf95      1.0  0.83608  0.61541  0.16661  1.0000
  Hf  Hf96      1.0  0.84085  0.61238  0.66622  1.0000
  F   F1        1.0  0.08189  0.12641  0.30433  1.0000
  F   F2        1.0  0.07450  0.12812  0.81352  1.0000
  F   F3        1.0  0.07952  0.62396  0.30061  1.0000
  F   F4        1.0  0.07097  0.62368  0.80384  1.0000
  F   F5        1.0  0.32818  0.11037  0.31391  1.0000
  F   F6        1.0  0.32461  0.13444  0.81084  1.0000
  F   F7        1.0  0.32908  0.65043  0.29215  1.0000
  F   F8        1.0  0.33159  0.63732  0.79716  1.0000
  F   F9        1.0  0.58758  0.14878  0.28270  1.0000
  F   F10       1.0  0.57908  0.11998  0.79916  1.0000
  F   F11       1.0  0.57473  0.62438  0.30342  1.0000
  F   F12       1.0  0.58788  0.64407  0.78504  1.0000
  F   F13       1.0  0.82993  0.12140  0.30895  1.0000
  F   F14       1.0  0.82756  0.13244  0.79509  1.0000
  F   F15       1.0  0.83313  0.65367  0.28655  1.0000
  F   F16       1.0  0.82673  0.61288  0.81238  1.0000
  F   F17       1.0  0.18790  0.33757  0.44661  1.0000
  F   F18       1.0  0.18233  0.33726  0.95344  1.0000
  F   F19       1.0  0.18677  0.84502  0.44415  1.0000
  F   F20       1.0  0.19493  0.85078  0.93243  1.0000
  F   F21       1.0  0.43458  0.33926  0.44864  1.0000
  F   F22       1.0  0.43384  0.33392  0.95399  1.0000
  F   F23       1.0  0.44079  0.84006  0.44981  1.0000
  F   F24       1.0  0.42586  0.82196  0.95914  1.0000
  F   F25       1.0  0.68157  0.33349  0.44893  1.0000
  F   F26       1.0  0.69579  0.35164  0.93312  1.0000
  F   F27       1.0  0.67982  0.84496  0.44454  1.0000
  F   F28       1.0  0.69186  0.85647  0.94539  1.0000
  F   F29       1.0  0.93861  0.34952  0.43300  1.0000
  F   F30       1.0  0.94016  0.34419  0.93997  1.0000
  F   F31       1.0  0.93404  0.83858  0.44366  1.0000
  F   F32       1.0  0.93342  0.84753  0.94531  1.0000
  F   F33       1.0  0.17010  0.35847  0.19888  1.0000
  F   F34       1.0  0.16450  0.35859  0.71101  1.0000
  F   F35       1.0  0.17162  0.87247  0.20046  1.0000
  F   F36       1.0  0.17439  0.89047  0.68396  1.0000
  F   F37       1.0  0.42120  0.36623  0.20409  1.0000
  F   F38       1.0  0.42182  0.37109  0.69875  1.0000
  F   F39       1.0  0.41390  0.86876  0.20192  1.0000
  F   F40       1.0  0.42225  0.86770  0.69718  1.0000
  F   F41       1.0  0.67372  0.36942  0.18809  1.0000
  F   F42       1.0  0.67076  0.39460  0.67812  1.0000
  F   F43       1.0  0.66328  0.84564  0.22199  1.0000
  F   F44       1.0  0.67275  0.87320  0.69087  1.0000
  F   F45       1.0  0.91593  0.37896  0.20385  1.0000
  F   F46       1.0  0.92802  0.38843  0.68422  1.0000
  F   F47       1.0  0.91710  0.87502  0.19286  1.0000
  F   F48       1.0  0.92016  0.88261  0.69995  1.0000
  F   F49       1.0  0.06423  0.15061  0.06710  1.0000
  F   F50       1.0  0.06105  0.15595  0.55803  1.0000
  F   F51       1.0  0.05837  0.65935  0.05630  1.0000
  F   F52       1.0  0.05751  0.64905  0.56310  1.0000
  F   F53       1.0  0.32495  0.15680  0.04793  1.0000
  F   F54       1.0  0.32556  0.15929  0.54374  1.0000
  F   F55       1.0  0.31244  0.64636  0.06844  1.0000
  F   F56       1.0  0.32180  0.65257  0.54754  1.0000
  F   F57       1.0  0.55967  0.16574  0.06192  1.0000
  F   F58       1.0  0.55991  0.16084  0.55418  1.0000
  F   F59       1.0  0.56398  0.67363  0.04314  1.0000
  F   F60       1.0  0.55458  0.64189  0.57238  1.0000
  F   F61       1.0  0.82304  0.18453  0.03100  1.0000
  F   F62       1.0  0.80954  0.16117  0.55707  1.0000
  F   F63       1.0  0.80373  0.66234  0.06029  1.0000
  F   F64       1.0  0.81568  0.66413  0.55659  1.0000
  F   F65       1.0  0.21010  0.19907  0.21288  1.0000
  F   F66       1.0  0.19950  0.20618  0.71636  1.0000
  F   F67       1.0  0.20988  0.70910  0.21705  1.0000
  F   F68       1.0  0.19719  0.69306  0.71855  1.0000
  F   F69       1.0  0.45477  0.19557  0.21378  1.0000
  F   F70       1.0  0.44233  0.19468  0.71354  1.0000
  F   F71       1.0  0.45445  0.69304  0.22225  1.0000
  F   F72       1.0  0.45604  0.69068  0.71897  1.0000
  F   F73       1.0  0.70721  0.20248  0.19790  1.0000
  F   F74       1.0  0.70257  0.21318  0.71401  1.0000
  F   F75       1.0  0.71004  0.69821  0.20467  1.0000
  F   F76       1.0  0.70505  0.70573  0.71362  1.0000
  F   F77       1.0  0.95814  0.20449  0.20297  1.0000
  F   F78       1.0  0.94763  0.21377  0.70497  1.0000
  F   F79       1.0  0.93547  0.71231  0.20288  1.0000
  F   F80       1.0  0.95481  0.71863  0.71253  1.0000
  F   F81       1.0  0.15072  0.07772  0.04954  1.0000
  F   F82       1.0  0.14858  0.09001  0.55375  1.0000
  F   F83       1.0  0.14502  0.60153  0.03534  1.0000
  F   F84       1.0  0.15039  0.59345  0.52357  1.0000
  F   F85       1.0  0.40662  0.08879  0.04132  1.0000
  F   F86       1.0  0.40313  0.08162  0.53890  1.0000
  F   F87       1.0  0.39588  0.57677  0.04751  1.0000
  F   F88       1.0  0.40156  0.59261  0.54160  1.0000
  F   F89       1.0  0.64263  0.07519  0.05045  1.0000
  F   F90       1.0  0.65122  0.10482  0.51855  1.0000
  F   F91       1.0  0.64879  0.59561  0.04461  1.0000
  F   F92       1.0  0.65009  0.59388  0.54241  1.0000
  F   F93       1.0  0.89289  0.08609  0.04340  1.0000
  F   F94       1.0  0.89734  0.09873  0.54055  1.0000
  F   F95       1.0  0.89063  0.58573  0.04229  1.0000
  F   F96       1.0  0.90399  0.59853  0.53540  1.0000
  F   F97       1.0  0.15499  0.19971  0.11598  1.0000
  F   F98       1.0  0.14886  0.19262  0.63909  1.0000
  F   F99       1.0  0.16282  0.69290  0.12623  1.0000
  F   F100      1.0  0.14676  0.69235  0.63366  1.0000
  F   F101      1.0  0.39402  0.18529  0.13713  1.0000
  F   F102      1.0  0.40133  0.19580  0.61492  1.0000
  F   F103      1.0  0.40850  0.68089  0.12482  1.0000
  F   F104      1.0  0.40634  0.68657  0.62675  1.0000
  F   F105      1.0  0.65638  0.20061  0.10038  1.0000
  F   F106      1.0  0.66251  0.18964  0.61839  1.0000
  F   F107      1.0  0.65228  0.70664  0.11823  1.0000
  F   F108      1.0  0.65409  0.70486  0.61773  1.0000
  F   F109      1.0  0.89777  0.20998  0.12394  1.0000
  F   F110      1.0  0.89992  0.17889  0.62406  1.0000
  F   F111      1.0  0.89517  0.69331  0.10685  1.0000
  F   F112      1.0  0.89539  0.70443  0.62817  1.0000
  F   F113      1.0  0.09834  0.29770  0.35954  1.0000
  F   F114      1.0  0.09067  0.29726  0.89020  1.0000
  F   F115      1.0  0.09261  0.80642  0.38825  1.0000
  F   F116      1.0  0.09901  0.80872  0.87979  1.0000
  F   F117      1.0  0.35035  0.29820  0.37627  1.0000
  F   F118      1.0  0.35124  0.29208  0.86293  1.0000
  F   F119      1.0  0.35192  0.79739  0.39230  1.0000
  F   F120      1.0  0.35330  0.80169  0.88051  1.0000
  F   F121      1.0  0.60392  0.30626  0.36158  1.0000
  F   F122      1.0  0.58761  0.30555  0.87100  1.0000
  F   F123      1.0  0.59082  0.79708  0.41267  1.0000
  F   F124      1.0  0.60465  0.80617  0.86819  1.0000
  F   F125      1.0  0.84995  0.31186  0.38957  1.0000
  F   F126      1.0  0.85587  0.30362  0.84665  1.0000
  F   F127      1.0  0.85513  0.79744  0.37912  1.0000
  F   F128      1.0  0.84966  0.80144  0.88379  1.0000
  F   F129      1.0  0.07284  0.25018  0.12923  1.0000
  F   F130      1.0  0.06794  0.25225  0.63229  1.0000
  F   F131      1.0  0.07906  0.74878  0.11784  1.0000
  F   F132      1.0  0.06600  0.75566  0.62671  1.0000
  F   F133      1.0  0.30381  0.24015  0.17488  1.0000
  F   F134      1.0  0.31064  0.24598  0.65694  1.0000
  F   F135      1.0  0.30437  0.75050  0.14703  1.0000
  F   F136      1.0  0.31737  0.75441  0.64140  1.0000
  F   F137      1.0  0.56188  0.25868  0.14884  1.0000
  F   F138      1.0  0.57146  0.24108  0.62673  1.0000
  F   F139      1.0  0.57097  0.76273  0.12672  1.0000
  F   F140      1.0  0.57172  0.75552  0.62811  1.0000
  F   F141      1.0  0.80546  0.26196  0.14444  1.0000
  F   F142      1.0  0.80934  0.25524  0.64809  1.0000
  F   F143      1.0  0.80626  0.74367  0.16032  1.0000
  F   F144      1.0  0.80338  0.74979  0.66577  1.0000
  F   F145      1.0  0.12233  0.37820  0.10797  1.0000
  F   F146      1.0  0.12393  0.36711  0.61019  1.0000
  F   F147      1.0  0.12463  0.86075  0.12496  1.0000
  F   F148      1.0  0.12375  0.85910  0.61780  1.0000
  F   F149      1.0  0.37324  0.37129  0.11332  1.0000
  F   F150      1.0  0.37527  0.36841  0.61907  1.0000
  F   F151      1.0  0.36982  0.83784  0.13287  1.0000
  F   F152      1.0  0.37990  0.86728  0.60923  1.0000
  F   F153      1.0  0.62945  0.39236  0.09222  1.0000
  F   F154      1.0  0.62076  0.34385  0.62933  1.0000
  F   F155      1.0  0.62331  0.87906  0.10207  1.0000
  F   F156      1.0  0.62483  0.87901  0.59856  1.0000
  F   F157      1.0  0.87880  0.39305  0.08180  1.0000
  F   F158      1.0  0.87811  0.37274  0.60185  1.0000
  F   F159      1.0  0.87105  0.86009  0.12300  1.0000
  F   F160      1.0  0.87429  0.86798  0.61002  1.0000
  F   F161      1.0  0.17597  0.24656  0.37018  1.0000
  F   F162      1.0  0.17720  0.24116  0.87761  1.0000
  F   F163      1.0  0.18270  0.75014  0.37091  1.0000
  F   F164      1.0  0.18245  0.75768  0.84814  1.0000
  F   F165      1.0  0.43575  0.24926  0.35992  1.0000
  F   F166      1.0  0.43707  0.25186  0.85235  1.0000
  F   F167      1.0  0.43418  0.74759  0.36526  1.0000
  F   F168      1.0  0.44156  0.73885  0.85529  1.0000
  F   F169      1.0  0.69129  0.25107  0.34145  1.0000
  F   F170      1.0  0.68174  0.26005  0.85258  1.0000
  F   F171      1.0  0.67886  0.73929  0.37485  1.0000
  F   F172      1.0  0.69253  0.75737  0.85023  1.0000
  F   F173      1.0  0.93692  0.25125  0.35691  1.0000
  F   F174      1.0  0.93984  0.25425  0.84238  1.0000
  F   F175      1.0  0.94202  0.75829  0.33593  1.0000
  F   F176      1.0  0.92942  0.75129  0.86544  1.0000
  F   F177      1.0  0.13153  0.11320  0.39923  1.0000
  F   F178      1.0  0.12530  0.11433  0.89415  1.0000
  F   F179      1.0  0.12910  0.65411  0.36885  1.0000
  F   F180      1.0  0.12259  0.63430  0.87576  1.0000
  F   F181      1.0  0.37658  0.13636  0.38380  1.0000
  F   F182      1.0  0.37405  0.11011  0.90566  1.0000
  F   F183      1.0  0.37218  0.63593  0.38637  1.0000
  F   F184      1.0  0.37342  0.63088  0.90352  1.0000
  F   F185      1.0  0.62167  0.13374  0.39789  1.0000
  F   F186      1.0  0.62460  0.12765  0.90232  1.0000
  F   F187      1.0  0.62352  0.63439  0.39749  1.0000
  F   F188      1.0  0.62860  0.63835  0.88865  1.0000
  F   F189      1.0  0.87695  0.14690  0.38337  1.0000
  F   F190      1.0  0.87594  0.12207  0.88577  1.0000
  F   F191      1.0  0.87143  0.61648  0.40310  1.0000
  F   F192      1.0  0.87332  0.63332  0.89894  1.0000
  F   F193      1.0  0.00257  0.34621  0.09962  1.0000
  F   F194      1.0  0.00912  0.36283  0.57355  1.0000
  F   F195      1.0  0.01340  0.84598  0.07871  1.0000
  F   F196      1.0  0.00924  0.87261  0.56477  1.0000
  F   F197      1.0  0.25558  0.36773  0.07039  1.0000
  F   F198      1.0  0.25346  0.36566  0.57860  1.0000
  F   F199      1.0  0.25676  0.86564  0.06290  1.0000
  F   F200      1.0  0.25269  0.84438  0.58001  1.0000
  F   F201      1.0  0.50535  0.35062  0.07593  1.0000
  F   F202      1.0  0.50612  0.34127  0.59445  1.0000
  F   F203      1.0  0.50615  0.86372  0.08286  1.0000
  F   F204      1.0  0.51128  0.85845  0.56986  1.0000
  F   F205      1.0  0.75726  0.36824  0.07139  1.0000
  F   F206      1.0  0.75728  0.37314  0.57204  1.0000
  F   F207      1.0  0.75854  0.86649  0.06507  1.0000
  F   F208      1.0  0.75855  0.87275  0.55409  1.0000
  F   F209      1.0  0.06397  0.48229  0.18856  1.0000
  F   F210      1.0  0.06884  0.48422  0.68393  1.0000
  F   F211      1.0  0.06834  0.97506  0.17954  1.0000
  F   F212      1.0  0.07677  0.98547  0.66384  1.0000
  F   F213      1.0  0.31802  0.47433  0.18291  1.0000
  F   F214      1.0  0.31284  0.47928  0.68633  1.0000
  F   F215      1.0  0.32768  0.98467  0.14900  1.0000
  F   F216      1.0  0.32351  0.99681  0.65306  1.0000
  F   F217      1.0  0.56314  0.49659  0.17640  1.0000
  F   F218      1.0  0.56947  0.48194  0.67065  1.0000
  F   F219      1.0  0.56949  0.98281  0.18446  1.0000
  F   F220      1.0  0.57032  0.98423  0.67632  1.0000
  F   F221      1.0  0.81609  0.47391  0.19430  1.0000
  F   F222      1.0  0.81762  0.48737  0.66970  1.0000
  F   F223      1.0  0.81461  0.98147  0.17756  1.0000
  F   F224      1.0  0.81419  0.98001  0.68495  1.0000
  F   F225      1.0  0.24478  0.15555  0.40159  1.0000
  F   F226      1.0  0.24302  0.14634  0.92284  1.0000
  F   F227      1.0  0.24733  0.65151  0.40547  1.0000
  F   F228      1.0  0.24023  0.64328  0.92217  1.0000
  F   F229      1.0  0.49677  0.14218  0.41142  1.0000
  F   F230      1.0  0.48722  0.13099  0.93602  1.0000
  F   F231      1.0  0.48958  0.62294  0.44904  1.0000
  F   F232      1.0  0.50050  0.62799  0.91559  1.0000
  F   F233      1.0  0.74487  0.13711  0.42896  1.0000
  F   F234      1.0  0.74016  0.14835  0.91842  1.0000
  F   F235      1.0  0.74740  0.64465  0.41632  1.0000
  F   F236      1.0  0.75074  0.63198  0.91174  1.0000
  F   F237      1.0  0.98956  0.14557  0.43160  1.0000
  F   F238      1.0  0.98392  0.13285  0.94796  1.0000
  F   F239      1.0  0.99444  0.63402  0.42808  1.0000
  F   F240      1.0  0.98371  0.63656  0.93744  1.0000
  F   F241      1.0  0.18034  0.01499  0.31027  1.0000
  F   F242      1.0  0.18899  0.01906  0.81405  1.0000
  F   F243      1.0  0.18226  0.51922  0.32813  1.0000
  F   F244      1.0  0.17985  0.51365  0.82825  1.0000
  F   F245      1.0  0.42424  0.01946  0.32947  1.0000
  F   F246      1.0  0.43036  0.00346  0.83508  1.0000
  F   F247      1.0  0.42795  0.50183  0.34461  1.0000
  F   F248      1.0  0.42661  0.51962  0.82772  1.0000
  F   F249      1.0  0.67958  0.01819  0.31666  1.0000
  F   F250      1.0  0.67995  0.01985  0.82080  1.0000
  F   F251      1.0  0.67586  0.52320  0.33184  1.0000
  F   F252      1.0  0.68515  0.51775  0.81377  1.0000
  F   F253      1.0  0.92974  0.01420  0.32512  1.0000
  F   F254      1.0  0.93213  0.00648  0.82023  1.0000
  F   F255      1.0  0.94105  0.51998  0.32096  1.0000
  F   F256      1.0  0.92339  0.51586  0.84401  1.0000
  F   F257      1.0  0.99554  0.25515  0.00908  1.0000
  F   F258      1.0  0.00472  0.25133  0.48681  1.0000
  F   F259      1.0  0.99604  0.74919  0.00881  1.0000
  F   F260      1.0  0.99280  0.75010  0.51216  1.0000
  F   F261      1.0  0.25616  0.25357  0.99916  1.0000
  F   F262      1.0  0.25212  0.23594  0.51829  1.0000
  F   F263      1.0  0.25198  0.74636  0.00939  1.0000
  F   F264      1.0  0.24332  0.72737  0.51857  1.0000
  F   F265      1.0  0.49583  0.23834  0.01058  1.0000
  F   F266      1.0  0.49954  0.24992  0.49535  1.0000
  F   F267      1.0  0.50215  0.75955  0.98337  1.0000
  F   F268      1.0  0.49786  0.74539  0.50938  1.0000
  F   F269      1.0  0.75034  0.23566  0.99249  1.0000
  F   F270      1.0  0.74925  0.26303  0.49332  1.0000
  F   F271      1.0  0.74666  0.74635  0.99791  1.0000
  F   F272      1.0  0.75292  0.75564  0.48459  1.0000
  F   F273      1.0  0.11785  0.99645  0.26276  1.0000
  F   F274      1.0  0.12613  0.99970  0.75303  1.0000
  F   F275      1.0  0.12596  0.49284  0.23987  1.0000
  F   F276      1.0  0.12043  0.50493  0.74915  1.0000
  F   F277      1.0  0.36829  0.98582  0.25955  1.0000
  F   F278      1.0  0.38017  0.00260  0.74505  1.0000
  F   F279      1.0  0.36104  0.49348  0.28135  1.0000
  F   F280      1.0  0.36394  0.48680  0.76288  1.0000
  F   F281      1.0  0.62215  0.99499  0.25560  1.0000
  F   F282      1.0  0.63037  0.00174  0.74088  1.0000
  F   F283      1.0  0.62748  0.50310  0.24704  1.0000
  F   F284      1.0  0.62226  0.50094  0.75499  1.0000
  F   F285      1.0  0.87467  0.01279  0.24545  1.0000
  F   F286      1.0  0.87363  0.99823  0.75533  1.0000
  F   F287      1.0  0.86308  0.49827  0.27494  1.0000
  F   F288      1.0  0.87480  0.49366  0.75780  1.0000
  F   F289      1.0  0.04668  0.02434  0.02789  1.0000
  F   F290      1.0  0.04744  0.03281  0.51511  1.0000
  F   F291      1.0  0.04449  0.53444  0.02596  1.0000
  F   F292      1.0  0.04949  0.52576  0.52646  1.0000
  F   F293      1.0  0.28961  0.03544  0.03088  1.0000
  F   F294      1.0  0.28845  0.03096  0.52974  1.0000
  F   F295      1.0  0.30043  0.51867  0.01621  1.0000
  F   F296      1.0  0.28848  0.53090  0.53018  1.0000
  F   F297      1.0  0.54050  0.02930  0.03134  1.0000
  F   F298      1.0  0.54289  0.03494  0.51468  1.0000
  F   F299      1.0  0.54896  0.52474  0.01105  1.0000
  F   F300      1.0  0.54508  0.52210  0.51731  1.0000
  F   F301      1.0  0.79617  0.03739  0.02387  1.0000
  F   F302      1.0  0.79816  0.03764  0.52393  1.0000
  F   F303      1.0  0.80472  0.53150  0.01871  1.0000
  F   F304      1.0  0.78838  0.53774  0.51822  1.0000
  F   F305      1.0  0.23218  0.42023  0.21540  1.0000
  F   F306      1.0  0.22873  0.40222  0.74449  1.0000
  F   F307      1.0  0.23697  0.91375  0.22040  1.0000
  F   F308      1.0  0.24590  0.90084  0.72311  1.0000
  F   F309      1.0  0.48539  0.42070  0.21384  1.0000
  F   F310      1.0  0.48503  0.40743  0.73559  1.0000
  F   F311      1.0  0.48148  0.90566  0.24522  1.0000
  F   F312      1.0  0.48669  0.91067  0.71407  1.0000
  F   F313      1.0  0.73382  0.40557  0.23210  1.0000
  F   F314      1.0  0.73875  0.43123  0.71067  1.0000
  F   F315      1.0  0.73038  0.90197  0.23160  1.0000
  F   F316      1.0  0.73690  0.92303  0.70906  1.0000
  F   F317      1.0  0.98467  0.42409  0.22212  1.0000
  F   F318      1.0  0.98384  0.43489  0.71992  1.0000
  F   F319      1.0  0.98543  0.91758  0.22961  1.0000
  F   F320      1.0  0.98805  0.90525  0.72660  1.0000
  F   F321      1.0  0.21238  0.46648  0.47635  1.0000
  F   F322      1.0  0.21237  0.48047  0.95795  1.0000
  F   F323      1.0  0.21023  0.97808  0.45879  1.0000
  F   F324      1.0  0.20682  0.96944  0.96870  1.0000
  F   F325      1.0  0.45795  0.45729  0.48767  1.0000
  F   F326      1.0  0.46038  0.46259  0.97628  1.0000
  F   F327      1.0  0.46886  0.96440  0.47143  1.0000
  F   F328      1.0  0.45884  0.96502  0.97463  1.0000
  F   F329      1.0  0.70278  0.46085  0.48289  1.0000
  F   F330      1.0  0.70376  0.47980  0.97439  1.0000
  F   F331      1.0  0.70338  0.97241  0.46386  1.0000
  F   F332      1.0  0.70820  0.97281  0.98708  1.0000
  F   F333      1.0  0.95984  0.46931  0.47466  1.0000
  F   F334      1.0  0.96044  0.47150  0.97830  1.0000
  F   F335      1.0  0.95949  0.97226  0.47661  1.0000
  F   F336      1.0  0.96514  0.97402  0.95822  1.0000
  F   F337      1.0  0.01670  0.08416  0.27876  1.0000
  F   F338      1.0  0.01419  0.10313  0.76162  1.0000
  F   F339      1.0  0.00985  0.61040  0.26235  1.0000
  F   F340      1.0  0.01029  0.57782  0.77365  1.0000
  F   F341      1.0  0.26874  0.06331  0.27455  1.0000
  F   F342      1.0  0.27096  0.07791  0.77792  1.0000
  F   F343      1.0  0.26932  0.57161  0.28470  1.0000
  F   F344      1.0  0.26714  0.58783  0.76178  1.0000
  F   F345      1.0  0.51699  0.08342  0.27387  1.0000
  F   F346      1.0  0.50947  0.09347  0.76223  1.0000
  F   F347      1.0  0.51148  0.59525  0.27184  1.0000
  F   F348      1.0  0.51685  0.58218  0.77007  1.0000
  F   F349      1.0  0.76645  0.09647  0.25195  1.0000
  F   F350      1.0  0.76198  0.08558  0.77597  1.0000
  F   F351      1.0  0.76415  0.58795  0.28751  1.0000
  F   F352      1.0  0.76636  0.58083  0.76972  1.0000
  F   F353      1.0  0.10666  0.40467  0.45785  1.0000
  F   F354      1.0  0.09847  0.40028  0.96742  1.0000
  F   F355      1.0  0.10309  0.90152  0.46579  1.0000
  F   F356      1.0  0.10887  0.91612  0.96511  1.0000
  F   F357      1.0  0.34817  0.40544  0.47581  1.0000
  F   F358      1.0  0.34359  0.37681  0.97678  1.0000
  F   F359      1.0  0.35419  0.91120  0.46807  1.0000
  F   F360      1.0  0.34938  0.90481  0.96723  1.0000
  F   F361      1.0  0.59945  0.39550  0.46483  1.0000
  F   F362      1.0  0.60183  0.39389  0.95870  1.0000
  F   F363      1.0  0.59496  0.93598  0.45576  1.0000
  F   F364      1.0  0.60343  0.90222  0.95847  1.0000
  F   F365      1.0  0.85391  0.43068  0.46530  1.0000
  F   F366      1.0  0.85025  0.39444  0.95918  1.0000
  F   F367      1.0  0.85093  0.91048  0.45597  1.0000
  F   F368      1.0  0.85085  0.89690  0.97425  1.0000
  F   F369      1.0  0.04697  0.29504  0.28578  1.0000
  F   F370      1.0  0.04394  0.28724  0.79485  1.0000
  F   F371      1.0  0.04079  0.78256  0.29288  1.0000
  F   F372      1.0  0.04607  0.80067  0.78904  1.0000
  F   F373      1.0  0.30176  0.29608  0.29461  1.0000
  F   F374      1.0  0.29447  0.31065  0.78418  1.0000
  F   F375      1.0  0.29824  0.80720  0.31084  1.0000
  F   F376      1.0  0.30412  0.80337  0.79735  1.0000
  F   F377      1.0  0.54929  0.31224  0.28095  1.0000
  F   F378      1.0  0.53809  0.27928  0.79637  1.0000
  F   F379      1.0  0.55094  0.79693  0.29227  1.0000
  F   F380      1.0  0.54758  0.80463  0.77763  1.0000
  F   F381      1.0  0.81377  0.30342  0.27551  1.0000
  F   F382      1.0  0.79357  0.30690  0.78475  1.0000
  F   F383      1.0  0.79442  0.79795  0.29456  1.0000
  F   F384      1.0  0.79817  0.79506  0.79365  1.0000
