data_image0
_chemical_formula_structural       Hf96F384
_chemical_formula_sum              "Hf96 F384"
_cell_length_a       31.0282
_cell_length_b       15.5118
_cell_length_c       15.5033
_cell_angle_alpha    63.342
_cell_angle_beta     63.342
_cell_angle_gamma    80.1625

_space_group_name_H-M_alt    "P 1"
_space_group_IT_number       1

loop_
  _space_group_symop_operation_xyz
  'x, y, z'

loop_
  _atom_site_type_symbol
  _atom_site_label
  _atom_site_symmetry_multiplicity
  _atom_site_fract_x
  _atom_site_fract_y
  _atom_site_fract_z
  _atom_site_occupancy
  Hf  Hf1       1.0  0.19679  0.09956  0.38781  1.0000
  Hf  Hf2       1.0  0.19490  0.09815  0.88514  1.0000
  Hf  Hf3       1.0  0.19953  0.60368  0.36675  1.0000
  Hf  Hf4       1.0  0.19212  0.60312  0.88574  1.0000
  Hf  Hf5       1.0  0.44928  0.10607  0.37117  1.0000
  Hf  Hf6       1.0  0.44545  0.10972  0.87659  1.0000
  Hf  Hf7       1.0  0.44818  0.60678  0.38077  1.0000
  Hf  Hf8       1.0  0.44585  0.60449  0.87595  1.0000
  Hf  Hf9       1.0  0.69579  0.11157  0.37365  1.0000
  Hf  Hf10      1.0  0.69513  0.10845  0.87496  1.0000
  Hf  Hf11      1.0  0.69821  0.61331  0.37722  1.0000
  Hf  Hf12      1.0  0.69654  0.60951  0.86891  1.0000
  Hf  Hf13      1.0  0.94800  0.11551  0.37200  1.0000
  Hf  Hf14      1.0  0.94463  0.10320  0.88578  1.0000
  Hf  Hf15      1.0  0.94585  0.60825  0.38400  1.0000
  Hf  Hf16      1.0  0.94844  0.60595  0.87175  1.0000
  Hf  Hf17      1.0  0.05587  0.38203  0.12990  1.0000
  Hf  Hf18      1.0  0.05165  0.39231  0.61803  1.0000
  Hf  Hf19      1.0  0.05694  0.89090  0.11936  1.0000
  Hf  Hf20      1.0  0.05425  0.88796  0.63493  1.0000
  Hf  Hf21      1.0  0.30569  0.39152  0.12340  1.0000
  Hf  Hf22      1.0  0.30378  0.38463  0.62926  1.0000
  Hf  Hf23      1.0  0.30137  0.89081  0.12615  1.0000
  Hf  Hf24      1.0  0.30143  0.88070  0.63093  1.0000
  Hf  Hf25      1.0  0.55002  0.39200  0.12484  1.0000
  Hf  Hf26      1.0  0.55329  0.39889  0.61932  1.0000
  Hf  Hf27      1.0  0.54767  0.89961  0.13253  1.0000
  Hf  Hf28      1.0  0.55466  0.89962  0.62173  1.0000
  Hf  Hf29      1.0  0.80783  0.39043  0.11539  1.0000
  Hf  Hf30      1.0  0.80425  0.39494  0.62787  1.0000
  Hf  Hf31      1.0  0.80070  0.89274  0.12872  1.0000
  Hf  Hf32      1.0  0.80161  0.89822  0.63036  1.0000
  Hf  Hf33      1.0  0.05723  0.17966  0.41845  1.0000
  Hf  Hf34      1.0  0.06108  0.18345  0.91305  1.0000
  Hf  Hf35      1.0  0.05200  0.68030  0.41854  1.0000
  Hf  Hf36      1.0  0.05314  0.67242  0.93165  1.0000
  Hf  Hf37      1.0  0.30921  0.18168  0.41142  1.0000
  Hf  Hf38      1.0  0.30549  0.17605  0.91564  1.0000
  Hf  Hf39      1.0  0.30547  0.67697  0.41364  1.0000
  Hf  Hf40      1.0  0.30541  0.68606  0.91222  1.0000
  Hf  Hf41      1.0  0.55622  0.19207  0.41579  1.0000
  Hf  Hf42      1.0  0.55432  0.18877  0.91306  1.0000
  Hf  Hf43      1.0  0.55881  0.68820  0.41228  1.0000
  Hf  Hf44      1.0  0.55435  0.68313  0.91520  1.0000
  Hf  Hf45      1.0  0.80916  0.19407  0.40596  1.0000
  Hf  Hf46      1.0  0.80479  0.17817  0.91540  1.0000
  Hf  Hf47      1.0  0.80501  0.68723  0.42317  1.0000
  Hf  Hf48      1.0  0.80624  0.68460  0.91800  1.0000
  Hf  Hf49      1.0  0.15988  0.38732  0.32753  1.0000
  Hf  Hf50      1.0  0.15683  0.38758  0.83900  1.0000
  Hf  Hf51      1.0  0.15479  0.88119  0.34253  1.0000
  Hf  Hf52      1.0  0.15895  0.88549  0.83263  1.0000
  Hf  Hf53      1.0  0.41140  0.38423  0.32757  1.0000
  Hf  Hf54      1.0  0.40761  0.38590  0.83448  1.0000
  Hf  Hf55      1.0  0.40301  0.88719  0.33774  1.0000
  Hf  Hf56      1.0  0.41018  0.88653  0.83621  1.0000
  Hf  Hf57      1.0  0.65926  0.39918  0.32546  1.0000
  Hf  Hf58      1.0  0.65731  0.38876  0.82903  1.0000
  Hf  Hf59      1.0  0.65922  0.89509  0.33067  1.0000
  Hf  Hf60      1.0  0.65167  0.88583  0.84634  1.0000
  Hf  Hf61      1.0  0.91117  0.39895  0.32267  1.0000
  Hf  Hf62      1.0  0.90888  0.39211  0.82653  1.0000
  Hf  Hf63      1.0  0.90853  0.89595  0.32861  1.0000
  Hf  Hf64      1.0  0.90661  0.88671  0.83499  1.0000
  Hf  Hf65      1.0  0.19733  0.31401  0.08333  1.0000
  Hf  Hf66      1.0  0.19806  0.31328  0.58434  1.0000
  Hf  Hf67      1.0  0.19943  0.81344  0.07674  1.0000
  Hf  Hf68      1.0  0.19068  0.80843  0.59215  1.0000
  Hf  Hf69      1.0  0.44234  0.30487  0.09669  1.0000
  Hf  Hf70      1.0  0.44249  0.31745  0.58410  1.0000
  Hf  Hf71      1.0  0.44121  0.81344  0.09035  1.0000
  Hf  Hf72      1.0  0.44325  0.82078  0.58317  1.0000
  Hf  Hf73      1.0  0.69578  0.33156  0.07352  1.0000
  Hf  Hf74      1.0  0.69380  0.31895  0.57777  1.0000
  Hf  Hf75      1.0  0.69131  0.82164  0.08883  1.0000
  Hf  Hf76      1.0  0.69480  0.82478  0.58188  1.0000
  Hf  Hf77      1.0  0.94753  0.30860  0.08775  1.0000
  Hf  Hf78      1.0  0.94522  0.31325  0.58427  1.0000
  Hf  Hf79      1.0  0.94249  0.81725  0.08884  1.0000
  Hf  Hf80      1.0  0.94785  0.82449  0.57444  1.0000
  Hf  Hf81      1.0  0.09386  0.11061  0.16464  1.0000
  Hf  Hf82      1.0  0.08910  0.11065  0.67080  1.0000
  Hf  Hf83      1.0  0.08881  0.61119  0.17373  1.0000
  Hf  Hf84      1.0  0.08919  0.60583  0.67262  1.0000
  Hf  Hf85      1.0  0.34114  0.11083  0.16311  1.0000
  Hf  Hf86      1.0  0.34082  0.10599  0.66485  1.0000
  Hf  Hf87      1.0  0.34546  0.61137  0.15949  1.0000
  Hf  Hf88      1.0  0.34034  0.60585  0.66563  1.0000
  Hf  Hf89      1.0  0.59199  0.12157  0.16021  1.0000
  Hf  Hf90      1.0  0.59213  0.11288  0.66409  1.0000
  Hf  Hf91      1.0  0.59165  0.61677  0.15945  1.0000
  Hf  Hf92      1.0  0.59074  0.61508  0.66733  1.0000
  Hf  Hf93      1.0  0.83933  0.10860  0.16542  1.0000
  Hf  Hf94      1.0  0.84005  0.11599  0.66422  1.0000
  Hf  Hf95      1.0  0.84242  0.62057  0.15867  1.0000
  Hf  Hf96      1.0  0.83978  0.61267  0.66995  1.0000
  F   F1        1.0  0.07759  0.12787  0.29978  1.0000
  F   F2        1.0  0.08001  0.12016  0.81314  1.0000
  F   F3        1.0  0.07769  0.63262  0.30477  1.0000
  F   F4        1.0  0.07955  0.63788  0.79527  1.0000
  F   F5        1.0  0.33030  0.12640  0.30501  1.0000
  F   F6        1.0  0.33320  0.12932  0.79975  1.0000
  F   F7        1.0  0.32593  0.62474  0.30802  1.0000
  F   F8        1.0  0.32618  0.63229  0.80165  1.0000
  F   F9        1.0  0.57950  0.14719  0.29365  1.0000
  F   F10       1.0  0.57716  0.12904  0.80481  1.0000
  F   F11       1.0  0.58402  0.64030  0.29085  1.0000
  F   F12       1.0  0.57303  0.61732  0.81705  1.0000
  F   F13       1.0  0.82700  0.11928  0.29986  1.0000
  F   F14       1.0  0.83028  0.11046  0.80739  1.0000
  F   F15       1.0  0.82680  0.65392  0.29304  1.0000
  F   F16       1.0  0.82350  0.62719  0.81096  1.0000
  F   F17       1.0  0.18809  0.32825  0.44920  1.0000
  F   F18       1.0  0.18367  0.33466  0.95086  1.0000
  F   F19       1.0  0.17988  0.84473  0.45440  1.0000
  F   F20       1.0  0.18862  0.83503  0.94210  1.0000
  F   F21       1.0  0.43899  0.34516  0.43505  1.0000
  F   F22       1.0  0.43210  0.33768  0.94988  1.0000
  F   F23       1.0  0.43435  0.84465  0.43875  1.0000
  F   F24       1.0  0.43134  0.83548  0.95723  1.0000
  F   F25       1.0  0.68436  0.34695  0.44680  1.0000
  F   F26       1.0  0.68898  0.33950  0.93828  1.0000
  F   F27       1.0  0.68215  0.83337  0.45248  1.0000
  F   F28       1.0  0.68577  0.84234  0.94515  1.0000
  F   F29       1.0  0.93577  0.34767  0.45113  1.0000
  F   F30       1.0  0.92445  0.34032  0.95298  1.0000
  F   F31       1.0  0.93616  0.85164  0.43938  1.0000
  F   F32       1.0  0.93906  0.84129  0.95334  1.0000
  F   F33       1.0  0.17513  0.38790  0.18485  1.0000
  F   F34       1.0  0.17263  0.35903  0.70540  1.0000
  F   F35       1.0  0.17151  0.84623  0.20293  1.0000
  F   F36       1.0  0.16999  0.86199  0.70189  1.0000
  F   F37       1.0  0.42194  0.36872  0.19206  1.0000
  F   F38       1.0  0.42323  0.39573  0.67511  1.0000
  F   F39       1.0  0.41108  0.86995  0.20287  1.0000
  F   F40       1.0  0.42135  0.86645  0.70597  1.0000
  F   F41       1.0  0.67702  0.40000  0.16782  1.0000
  F   F42       1.0  0.67482  0.38397  0.67990  1.0000
  F   F43       1.0  0.67737  0.89111  0.18668  1.0000
  F   F44       1.0  0.67033  0.86485  0.69671  1.0000
  F   F45       1.0  0.92323  0.36832  0.18786  1.0000
  F   F46       1.0  0.92797  0.37998  0.68728  1.0000
  F   F47       1.0  0.92432  0.87695  0.19063  1.0000
  F   F48       1.0  0.91832  0.85443  0.70299  1.0000
  F   F49       1.0  0.06892  0.16587  0.04230  1.0000
  F   F50       1.0  0.06721  0.16625  0.55265  1.0000
  F   F51       1.0  0.06131  0.64325  0.06065  1.0000
  F   F52       1.0  0.05839  0.66170  0.55026  1.0000
  F   F53       1.0  0.30404  0.15089  0.06439  1.0000
  F   F54       1.0  0.31474  0.14420  0.55070  1.0000
  F   F55       1.0  0.31493  0.67122  0.04457  1.0000
  F   F56       1.0  0.31968  0.64844  0.54634  1.0000
  F   F57       1.0  0.56587  0.16975  0.04467  1.0000
  F   F58       1.0  0.56706  0.16580  0.54112  1.0000
  F   F59       1.0  0.56096  0.65788  0.05131  1.0000
  F   F60       1.0  0.56333  0.66018  0.55014  1.0000
  F   F61       1.0  0.80952  0.15856  0.05088  1.0000
  F   F62       1.0  0.81401  0.16670  0.54938  1.0000
  F   F63       1.0  0.81181  0.65571  0.05793  1.0000
  F   F64       1.0  0.81683  0.64778  0.55466  1.0000
  F   F65       1.0  0.19792  0.20062  0.21230  1.0000
  F   F66       1.0  0.20779  0.19035  0.70035  1.0000
  F   F67       1.0  0.21187  0.69680  0.20603  1.0000
  F   F68       1.0  0.20214  0.68338  0.71762  1.0000
  F   F69       1.0  0.46261  0.20227  0.20908  1.0000
  F   F70       1.0  0.45143  0.19417  0.71025  1.0000
  F   F71       1.0  0.45977  0.70083  0.20265  1.0000
  F   F72       1.0  0.44962  0.70435  0.70820  1.0000
  F   F73       1.0  0.69954  0.21344  0.22098  1.0000
  F   F74       1.0  0.71044  0.20987  0.69438  1.0000
  F   F75       1.0  0.70152  0.70557  0.21123  1.0000
  F   F76       1.0  0.71455  0.70487  0.71010  1.0000
  F   F77       1.0  0.95923  0.20203  0.20870  1.0000
  F   F78       1.0  0.94487  0.19793  0.72335  1.0000
  F   F79       1.0  0.94676  0.69416  0.22040  1.0000
  F   F80       1.0  0.96638  0.69791  0.71616  1.0000
  F   F81       1.0  0.14847  0.07432  0.04099  1.0000
  F   F82       1.0  0.14487  0.08173  0.53667  1.0000
  F   F83       1.0  0.15047  0.60742  0.03380  1.0000
  F   F84       1.0  0.15056  0.58211  0.54712  1.0000
  F   F85       1.0  0.40194  0.10044  0.04310  1.0000
  F   F86       1.0  0.39457  0.08953  0.53344  1.0000
  F   F87       1.0  0.39645  0.58956  0.03796  1.0000
  F   F88       1.0  0.39697  0.58727  0.53865  1.0000
  F   F89       1.0  0.65226  0.09738  0.03440  1.0000
  F   F90       1.0  0.65020  0.08902  0.54067  1.0000
  F   F91       1.0  0.64531  0.58423  0.04090  1.0000
  F   F92       1.0  0.65342  0.59692  0.55048  1.0000
  F   F93       1.0  0.89440  0.11141  0.02992  1.0000
  F   F94       1.0  0.89486  0.08788  0.53862  1.0000
  F   F95       1.0  0.89855  0.58333  0.03583  1.0000
  F   F96       1.0  0.90217  0.60089  0.54421  1.0000
  F   F97       1.0  0.15551  0.18184  0.12334  1.0000
  F   F98       1.0  0.14768  0.17966  0.62877  1.0000
  F   F99       1.0  0.15293  0.68881  0.13953  1.0000
  F   F100      1.0  0.15340  0.69707  0.62051  1.0000
  F   F101      1.0  0.40116  0.19642  0.13230  1.0000
  F   F102      1.0  0.40510  0.20026  0.61018  1.0000
  F   F103      1.0  0.40804  0.68166  0.12861  1.0000
  F   F104      1.0  0.40087  0.69013  0.62105  1.0000
  F   F105      1.0  0.64832  0.20488  0.11241  1.0000
  F   F106      1.0  0.64803  0.19687  0.62724  1.0000
  F   F107      1.0  0.65201  0.69021  0.11515  1.0000
  F   F108      1.0  0.64717  0.70374  0.64709  1.0000
  F   F109      1.0  0.91075  0.19130  0.12331  1.0000
  F   F110      1.0  0.90135  0.19993  0.62029  1.0000
  F   F111      1.0  0.90435  0.69270  0.11261  1.0000
  F   F112      1.0  0.90491  0.70174  0.64037  1.0000
  F   F113      1.0  0.10120  0.30552  0.36733  1.0000
  F   F114      1.0  0.09619  0.31000  0.90150  1.0000
  F   F115      1.0  0.10154  0.78712  0.37432  1.0000
  F   F116      1.0  0.10285  0.78718  0.88879  1.0000
  F   F117      1.0  0.34941  0.30601  0.37233  1.0000
  F   F118      1.0  0.35179  0.29891  0.87812  1.0000
  F   F119      1.0  0.34486  0.79963  0.39687  1.0000
  F   F120      1.0  0.34761  0.81410  0.87619  1.0000
  F   F121      1.0  0.60361  0.30544  0.34980  1.0000
  F   F122      1.0  0.59950  0.29826  0.87008  1.0000
  F   F123      1.0  0.60167  0.80927  0.35619  1.0000
  F   F124      1.0  0.59381  0.80631  0.87290  1.0000
  F   F125      1.0  0.84980  0.30927  0.37828  1.0000
  F   F126      1.0  0.85165  0.30102  0.86920  1.0000
  F   F127      1.0  0.84436  0.80959  0.37919  1.0000
  F   F128      1.0  0.84553  0.80822  0.88253  1.0000
  F   F129      1.0  0.07104  0.24985  0.14411  1.0000
  F   F130      1.0  0.04862  0.24468  0.67580  1.0000
  F   F131      1.0  0.07193  0.75943  0.12037  1.0000
  F   F132      1.0  0.06055  0.74612  0.65264  1.0000
  F   F133      1.0  0.32340  0.24922  0.13466  1.0000
  F   F134      1.0  0.31068  0.24194  0.64766  1.0000
  F   F135      1.0  0.32013  0.74274  0.13899  1.0000
  F   F136      1.0  0.31591  0.74511  0.63436  1.0000
  F   F137      1.0  0.55358  0.24597  0.15960  1.0000
  F   F138      1.0  0.56345  0.25384  0.64366  1.0000
  F   F139      1.0  0.56312  0.75893  0.14473  1.0000
  F   F140      1.0  0.57720  0.75359  0.63016  1.0000
  F   F141      1.0  0.82751  0.25202  0.12148  1.0000
  F   F142      1.0  0.81044  0.24406  0.65567  1.0000
  F   F143      1.0  0.81138  0.75411  0.13779  1.0000
  F   F144      1.0  0.81461  0.75262  0.64106  1.0000
  F   F145      1.0  0.12257  0.36232  0.12877  1.0000
  F   F146      1.0  0.12574  0.34274  0.62496  1.0000
  F   F147      1.0  0.12699  0.87152  0.10402  1.0000
  F   F148      1.0  0.12442  0.88137  0.60049  1.0000
  F   F149      1.0  0.37206  0.36388  0.11485  1.0000
  F   F150      1.0  0.37145  0.35759  0.61312  1.0000
  F   F151      1.0  0.36836  0.86907  0.11930  1.0000
  F   F152      1.0  0.37390  0.86612  0.61067  1.0000
  F   F153      1.0  0.62059  0.35722  0.11562  1.0000
  F   F154      1.0  0.62182  0.37508  0.60646  1.0000
  F   F155      1.0  0.62337  0.86098  0.12436  1.0000
  F   F156      1.0  0.62668  0.89711  0.59394  1.0000
  F   F157      1.0  0.87696  0.38437  0.10721  1.0000
  F   F158      1.0  0.87506  0.37036  0.61595  1.0000
  F   F159      1.0  0.87141  0.85799  0.11933  1.0000
  F   F160      1.0  0.87321  0.87890  0.59975  1.0000
  F   F161      1.0  0.18357  0.24088  0.36409  1.0000
  F   F162      1.0  0.18545  0.23419  0.86577  1.0000
  F   F163      1.0  0.18560  0.73908  0.36789  1.0000
  F   F164      1.0  0.19110  0.74456  0.84628  1.0000
  F   F165      1.0  0.43924  0.24857  0.35224  1.0000
  F   F166      1.0  0.44358  0.25657  0.83587  1.0000
  F   F167      1.0  0.43537  0.75168  0.36320  1.0000
  F   F168      1.0  0.43468  0.74461  0.86567  1.0000
  F   F169      1.0  0.68058  0.25558  0.36025  1.0000
  F   F170      1.0  0.68118  0.24678  0.86362  1.0000
  F   F171      1.0  0.68480  0.74990  0.35486  1.0000
  F   F172      1.0  0.67538  0.74750  0.86630  1.0000
  F   F173      1.0  0.93166  0.24937  0.36725  1.0000
  F   F174      1.0  0.94165  0.24632  0.85078  1.0000
  F   F175      1.0  0.93953  0.75950  0.35177  1.0000
  F   F176      1.0  0.93116  0.75334  0.86137  1.0000
  F   F177      1.0  0.12260  0.13281  0.38669  1.0000
  F   F178      1.0  0.13153  0.14684  0.86917  1.0000
  F   F179      1.0  0.12534  0.60639  0.40116  1.0000
  F   F180      1.0  0.12462  0.62636  0.89270  1.0000
  F   F181      1.0  0.38296  0.15832  0.36763  1.0000
  F   F182      1.0  0.37098  0.12633  0.91243  1.0000
  F   F183      1.0  0.38055  0.63644  0.37827  1.0000
  F   F184      1.0  0.37795  0.64835  0.87434  1.0000
  F   F185      1.0  0.62446  0.11811  0.39986  1.0000
  F   F186      1.0  0.62818  0.13837  0.87510  1.0000
  F   F187      1.0  0.62351  0.63279  0.39391  1.0000
  F   F188      1.0  0.62642  0.62503  0.88817  1.0000
  F   F189      1.0  0.87459  0.13258  0.38702  1.0000
  F   F190      1.0  0.87125  0.11769  0.90181  1.0000
  F   F191      1.0  0.87923  0.64249  0.38764  1.0000
  F   F192      1.0  0.87657  0.63858  0.87730  1.0000
  F   F193      1.0  0.01534  0.34774  0.07830  1.0000
  F   F194      1.0  0.01042  0.35434  0.56843  1.0000
  F   F195      1.0  0.00832  0.85928  0.06815  1.0000
  F   F196      1.0  0.00831  0.87040  0.57812  1.0000
  F   F197      1.0  0.26065  0.35178  0.07785  1.0000
  F   F198      1.0  0.25587  0.35827  0.58333  1.0000
  F   F199      1.0  0.26428  0.84664  0.07599  1.0000
  F   F200      1.0  0.25507  0.84793  0.58625  1.0000
  F   F201      1.0  0.50740  0.35913  0.06484  1.0000
  F   F202      1.0  0.50550  0.36522  0.58140  1.0000
  F   F203      1.0  0.50253  0.86566  0.07998  1.0000
  F   F204      1.0  0.50555  0.86379  0.58816  1.0000
  F   F205      1.0  0.76253  0.35318  0.07465  1.0000
  F   F206      1.0  0.75881  0.36975  0.57482  1.0000
  F   F207      1.0  0.75542  0.87105  0.07272  1.0000
  F   F208      1.0  0.76262  0.86834  0.56000  1.0000
  F   F209      1.0  0.06754  0.48683  0.17585  1.0000
  F   F210      1.0  0.07079  0.48453  0.65686  1.0000
  F   F211      1.0  0.06679  0.98393  0.17954  1.0000
  F   F212      1.0  0.06532  0.97664  0.68991  1.0000
  F   F213      1.0  0.31673  0.48289  0.17661  1.0000
  F   F214      1.0  0.31685  0.47459  0.68475  1.0000
  F   F215      1.0  0.32115  0.99138  0.16547  1.0000
  F   F216      1.0  0.31994  0.96835  0.67696  1.0000
  F   F217      1.0  0.56439  0.49298  0.17189  1.0000
  F   F218      1.0  0.57480  0.49540  0.65965  1.0000
  F   F219      1.0  0.57417  0.99339  0.16428  1.0000
  F   F220      1.0  0.56182  0.98206  0.69170  1.0000
  F   F221      1.0  0.82015  0.49512  0.18334  1.0000
  F   F222      1.0  0.82009  0.48657  0.67411  1.0000
  F   F223      1.0  0.81755  0.98562  0.16964  1.0000
  F   F224      1.0  0.81602  0.98757  0.69456  1.0000
  F   F225      1.0  0.24360  0.13182  0.43122  1.0000
  F   F226      1.0  0.24834  0.12222  0.92039  1.0000
  F   F227      1.0  0.24609  0.63201  0.42541  1.0000
  F   F228      1.0  0.24559  0.63265  0.92624  1.0000
  F   F229      1.0  0.48766  0.13531  0.45478  1.0000
  F   F230      1.0  0.49248  0.13526  0.92166  1.0000
  F   F231      1.0  0.49240  0.63790  0.43833  1.0000
  F   F232      1.0  0.49155  0.64073  0.91737  1.0000
  F   F233      1.0  0.73985  0.14708  0.42849  1.0000
  F   F234      1.0  0.74130  0.15029  0.91391  1.0000
  F   F235      1.0  0.74195  0.62949  0.44073  1.0000
  F   F236      1.0  0.73945  0.64319  0.92568  1.0000
  F   F237      1.0  0.99214  0.14916  0.42090  1.0000
  F   F238      1.0  0.99434  0.13240  0.93198  1.0000
  F   F239      1.0  0.98675  0.63494  0.43911  1.0000
  F   F240      1.0  0.99493  0.63690  0.93023  1.0000
  F   F241      1.0  0.17831  0.01311  0.33514  1.0000
  F   F242      1.0  0.18095  0.01182  0.82709  1.0000
  F   F243      1.0  0.18452  0.50979  0.31827  1.0000
  F   F244      1.0  0.17570  0.51385  0.82831  1.0000
  F   F245      1.0  0.43096  0.02210  0.32059  1.0000
  F   F246      1.0  0.42964  0.01231  0.82901  1.0000
  F   F247      1.0  0.43464  0.51326  0.32255  1.0000
  F   F248      1.0  0.42429  0.51406  0.83502  1.0000
  F   F249      1.0  0.68753  0.02678  0.30968  1.0000
  F   F250      1.0  0.68236  0.01208  0.82853  1.0000
  F   F251      1.0  0.68294  0.51570  0.31419  1.0000
  F   F252      1.0  0.67954  0.51247  0.81820  1.0000
  F   F253      1.0  0.93377  0.01864  0.32292  1.0000
  F   F254      1.0  0.92659  0.00727  0.85332  1.0000
  F   F255      1.0  0.93817  0.52169  0.30413  1.0000
  F   F256      1.0  0.93254  0.52098  0.81326  1.0000
  F   F257      1.0  0.00027  0.26436  0.98232  1.0000
  F   F258      1.0  0.99823  0.24163  0.50416  1.0000
  F   F259      1.0  0.99954  0.74759  0.00373  1.0000
  F   F260      1.0  0.00340  0.77291  0.48464  1.0000
  F   F261      1.0  0.25273  0.26700  0.97934  1.0000
  F   F262      1.0  0.25392  0.26158  0.48648  1.0000
  F   F263      1.0  0.25161  0.74917  0.99733  1.0000
  F   F264      1.0  0.24384  0.73843  0.50708  1.0000
  F   F265      1.0  0.49939  0.24569  0.00427  1.0000
  F   F266      1.0  0.50790  0.27560  0.48591  1.0000
  F   F267      1.0  0.50217  0.76881  0.98703  1.0000
  F   F268      1.0  0.50569  0.76991  0.48374  1.0000
  F   F269      1.0  0.74581  0.25225  0.01154  1.0000
  F   F270      1.0  0.75530  0.27424  0.46846  1.0000
  F   F271      1.0  0.74763  0.75770  0.00677  1.0000
  F   F272      1.0  0.74887  0.74164  0.51103  1.0000
  F   F273      1.0  0.12944  0.98846  0.24251  1.0000
  F   F274      1.0  0.13244  0.99974  0.73107  1.0000
  F   F275      1.0  0.11773  0.49943  0.26302  1.0000
  F   F276      1.0  0.12008  0.48934  0.75836  1.0000
  F   F277      1.0  0.38142  0.00909  0.23706  1.0000
  F   F278      1.0  0.37881  0.99970  0.74857  1.0000
  F   F279      1.0  0.38080  0.50413  0.24518  1.0000
  F   F280      1.0  0.37219  0.49798  0.75324  1.0000
  F   F281      1.0  0.62592  0.00749  0.25877  1.0000
  F   F282      1.0  0.62069  0.99715  0.75673  1.0000
  F   F283      1.0  0.62008  0.50440  0.26106  1.0000
  F   F284      1.0  0.62458  0.50865  0.74497  1.0000
  F   F285      1.0  0.88401  0.00615  0.22949  1.0000
  F   F286      1.0  0.88723  0.00413  0.72760  1.0000
  F   F287      1.0  0.87311  0.50521  0.25712  1.0000
  F   F288      1.0  0.87058  0.50333  0.76110  1.0000
  F   F289      1.0  0.04621  0.03543  0.02152  1.0000
  F   F290      1.0  0.04343  0.03872  0.52320  1.0000
  F   F291      1.0  0.04148  0.51934  0.01954  1.0000
  F   F292      1.0  0.04073  0.52526  0.51101  1.0000
  F   F293      1.0  0.28754  0.02977  0.03386  1.0000
  F   F294      1.0  0.29635  0.02220  0.50637  1.0000
  F   F295      1.0  0.29703  0.53363  0.01086  1.0000
  F   F296      1.0  0.29700  0.52358  0.52171  1.0000
  F   F297      1.0  0.54060  0.03638  0.02609  1.0000
  F   F298      1.0  0.54344  0.03557  0.52655  1.0000
  F   F299      1.0  0.54165  0.52791  0.01684  1.0000
  F   F300      1.0  0.54659  0.53431  0.51596  1.0000
  F   F301      1.0  0.78988  0.02893  0.02382  1.0000
  F   F302      1.0  0.79517  0.02863  0.53076  1.0000
  F   F303      1.0  0.79291  0.52861  0.02580  1.0000
  F   F304      1.0  0.79857  0.53610  0.51328  1.0000
  F   F305      1.0  0.23690  0.39750  0.22852  1.0000
  F   F306      1.0  0.23445  0.40056  0.74040  1.0000
  F   F307      1.0  0.23054  0.90540  0.23755  1.0000
  F   F308      1.0  0.23101  0.91656  0.71514  1.0000
  F   F309      1.0  0.48397  0.42206  0.21200  1.0000
  F   F310      1.0  0.48572  0.41487  0.73277  1.0000
  F   F311      1.0  0.47998  0.93269  0.21904  1.0000
  F   F312      1.0  0.48498  0.91845  0.72844  1.0000
  F   F313      1.0  0.73757  0.42479  0.21648  1.0000
  F   F314      1.0  0.73492  0.40714  0.73312  1.0000
  F   F315      1.0  0.73259  0.92091  0.23727  1.0000
  F   F316      1.0  0.72942  0.91574  0.71672  1.0000
  F   F317      1.0  0.98570  0.40515  0.23130  1.0000
  F   F318      1.0  0.98665  0.41230  0.72316  1.0000
  F   F319      1.0  0.98899  0.90904  0.22022  1.0000
  F   F320      1.0  0.98589  0.91874  0.72549  1.0000
  F   F321      1.0  0.20580  0.45961  0.48953  1.0000
  F   F322      1.0  0.21004  0.46479  0.97404  1.0000
  F   F323      1.0  0.20781  0.96606  0.48805  1.0000
  F   F324      1.0  0.21253  0.95473  0.98234  1.0000
  F   F325      1.0  0.46475  0.46419  0.47216  1.0000
  F   F326      1.0  0.45236  0.46255  0.97330  1.0000
  F   F327      1.0  0.45383  0.96397  0.47842  1.0000
  F   F328      1.0  0.45770  0.97511  0.97191  1.0000
  F   F329      1.0  0.70486  0.47450  0.47518  1.0000
  F   F330      1.0  0.70907  0.47187  0.96845  1.0000
  F   F331      1.0  0.71553  0.97147  0.46517  1.0000
  F   F332      1.0  0.70848  0.96828  0.98060  1.0000
  F   F333      1.0  0.95859  0.47579  0.47771  1.0000
  F   F334      1.0  0.96295  0.46174  0.96940  1.0000
  F   F335      1.0  0.95973  0.97214  0.47461  1.0000
  F   F336      1.0  0.95289  0.97358  0.00144  1.0000
  F   F337      1.0  0.01322  0.08432  0.26940  1.0000
  F   F338      1.0  0.01268  0.08629  0.77928  1.0000
  F   F339      1.0  0.01504  0.59587  0.26988  1.0000
  F   F340      1.0  0.02007  0.56780  0.77949  1.0000
  F   F341      1.0  0.26823  0.08290  0.27767  1.0000
  F   F342      1.0  0.26504  0.06722  0.78243  1.0000
  F   F343      1.0  0.26808  0.58507  0.27228  1.0000
  F   F344      1.0  0.26722  0.58272  0.77947  1.0000
  F   F345      1.0  0.51443  0.08404  0.27801  1.0000
  F   F346      1.0  0.51374  0.09139  0.76412  1.0000
  F   F347      1.0  0.51719  0.59148  0.27223  1.0000
  F   F348      1.0  0.51269  0.58944  0.76617  1.0000
  F   F349      1.0  0.76213  0.09271  0.25802  1.0000
  F   F350      1.0  0.76427  0.08917  0.76592  1.0000
  F   F351      1.0  0.76353  0.58882  0.28360  1.0000
  F   F352      1.0  0.76498  0.58199  0.77710  1.0000
  F   F353      1.0  0.10546  0.40217  0.46378  1.0000
  F   F354      1.0  0.10417  0.41815  0.96876  1.0000
  F   F355      1.0  0.09845  0.91078  0.45489  1.0000
  F   F356      1.0  0.10428  0.90866  0.95061  1.0000
  F   F357      1.0  0.35045  0.40687  0.46045  1.0000
  F   F358      1.0  0.34625  0.40140  0.96460  1.0000
  F   F359      1.0  0.35320  0.90730  0.46058  1.0000
  F   F360      1.0  0.35245  0.90837  0.96324  1.0000
  F   F361      1.0  0.59676  0.39516  0.45830  1.0000
  F   F362      1.0  0.60006  0.40385  0.95339  1.0000
  F   F363      1.0  0.60117  0.90996  0.45575  1.0000
  F   F364      1.0  0.59751  0.91095  0.96870  1.0000
  F   F365      1.0  0.85297  0.41331  0.47187  1.0000
  F   F366      1.0  0.85140  0.42624  0.94863  1.0000
  F   F367      1.0  0.84919  0.91086  0.44861  1.0000
  F   F368      1.0  0.84864  0.90061  0.95996  1.0000
  F   F369      1.0  0.04461  0.30192  0.29466  1.0000
  F   F370      1.0  0.04988  0.29946  0.80571  1.0000
  F   F371      1.0  0.04586  0.79619  0.27905  1.0000
  F   F372      1.0  0.04690  0.80333  0.80127  1.0000
  F   F373      1.0  0.30048  0.29241  0.28570  1.0000
  F   F374      1.0  0.29778  0.29083  0.78593  1.0000
  F   F375      1.0  0.29619  0.79477  0.28844  1.0000
  F   F376      1.0  0.29483  0.79363  0.78799  1.0000
  F   F377      1.0  0.53850  0.31019  0.29774  1.0000
  F   F378      1.0  0.54687  0.30378  0.78978  1.0000
  F   F379      1.0  0.54111  0.80509  0.29465  1.0000
  F   F380      1.0  0.54208  0.79662  0.78091  1.0000
  F   F381      1.0  0.80290  0.29803  0.27477  1.0000
  F   F382      1.0  0.80096  0.29472  0.78871  1.0000
  F   F383      1.0  0.78665  0.79903  0.29442  1.0000
  F   F384      1.0  0.79975  0.80819  0.79338  1.0000
