data_image0
_chemical_formula_structural       Hf96F384
_chemical_formula_sum              "Hf96 F384"
_cell_length_a       31.0414
_cell_length_b       15.5274
_cell_length_c       15.5146
_cell_angle_alpha    63.342
_cell_angle_beta     63.342
_cell_angle_gamma    80.1625

_space_group_name_H-M_alt    "P 1"
_space_group_IT_number       1

loop_
  _space_group_symop_operation_xyz
  'x, y, z'

loop_
  _atom_site_type_symbol
  _atom_site_label
  _atom_site_symmetry_multiplicity
  _atom_site_fract_x
  _atom_site_fract_y
  _atom_site_fract_z
  _atom_site_occupancy
  Hf  Hf1       1.0  0.19761  0.10833  0.37779  1.0000
  Hf  Hf2       1.0  0.19601  0.10022  0.88240  1.0000
  Hf  Hf3       1.0  0.19204  0.60953  0.37382  1.0000
  Hf  Hf4       1.0  0.19344  0.60661  0.87268  1.0000
  Hf  Hf5       1.0  0.44790  0.10535  0.37461  1.0000
  Hf  Hf6       1.0  0.45019  0.10141  0.87522  1.0000
  Hf  Hf7       1.0  0.44449  0.60648  0.38123  1.0000
  Hf  Hf8       1.0  0.44441  0.60063  0.88202  1.0000
  Hf  Hf9       1.0  0.70193  0.10038  0.36985  1.0000
  Hf  Hf10      1.0  0.69700  0.11253  0.86322  1.0000
  Hf  Hf11      1.0  0.69683  0.61012  0.37174  1.0000
  Hf  Hf12      1.0  0.69264  0.60947  0.87491  1.0000
  Hf  Hf13      1.0  0.94640  0.10682  0.37508  1.0000
  Hf  Hf14      1.0  0.94709  0.11513  0.86858  1.0000
  Hf  Hf15      1.0  0.94767  0.60272  0.36948  1.0000
  Hf  Hf16      1.0  0.94678  0.61404  0.87348  1.0000
  Hf  Hf17      1.0  0.05650  0.40281  0.12298  1.0000
  Hf  Hf18      1.0  0.05566  0.38169  0.63451  1.0000
  Hf  Hf19      1.0  0.05423  0.89054  0.13136  1.0000
  Hf  Hf20      1.0  0.05630  0.88481  0.63160  1.0000
  Hf  Hf21      1.0  0.30410  0.39092  0.13035  1.0000
  Hf  Hf22      1.0  0.29930  0.39012  0.62258  1.0000
  Hf  Hf23      1.0  0.30430  0.89077  0.11748  1.0000
  Hf  Hf24      1.0  0.30468  0.89038  0.63591  1.0000
  Hf  Hf25      1.0  0.55232  0.38906  0.12518  1.0000
  Hf  Hf26      1.0  0.55203  0.39663  0.63166  1.0000
  Hf  Hf27      1.0  0.55118  0.89022  0.13153  1.0000
  Hf  Hf28      1.0  0.55067  0.89719  0.63825  1.0000
  Hf  Hf29      1.0  0.80057  0.39857  0.12083  1.0000
  Hf  Hf30      1.0  0.80016  0.39068  0.62679  1.0000
  Hf  Hf31      1.0  0.80426  0.90965  0.11924  1.0000
  Hf  Hf32      1.0  0.80229  0.89274  0.62130  1.0000
  Hf  Hf33      1.0  0.05754  0.18187  0.41354  1.0000
  Hf  Hf34      1.0  0.05527  0.17398  0.92279  1.0000
  Hf  Hf35      1.0  0.05302  0.68410  0.41858  1.0000
  Hf  Hf36      1.0  0.05563  0.67950  0.91997  1.0000
  Hf  Hf37      1.0  0.30709  0.18260  0.41191  1.0000
  Hf  Hf38      1.0  0.30553  0.18633  0.91220  1.0000
  Hf  Hf39      1.0  0.30120  0.67238  0.42996  1.0000
  Hf  Hf40      1.0  0.30844  0.67896  0.91507  1.0000
  Hf  Hf41      1.0  0.55936  0.18278  0.40960  1.0000
  Hf  Hf42      1.0  0.55605  0.18687  0.91660  1.0000
  Hf  Hf43      1.0  0.55459  0.67768  0.42619  1.0000
  Hf  Hf44      1.0  0.55061  0.68053  0.92541  1.0000
  Hf  Hf45      1.0  0.80713  0.19855  0.40276  1.0000
  Hf  Hf46      1.0  0.80370  0.18566  0.91441  1.0000
  Hf  Hf47      1.0  0.80787  0.69139  0.40925  1.0000
  Hf  Hf48      1.0  0.80753  0.69124  0.91114  1.0000
  Hf  Hf49      1.0  0.15924  0.38632  0.33850  1.0000
  Hf  Hf50      1.0  0.15443  0.38866  0.83406  1.0000
  Hf  Hf51      1.0  0.16051  0.88263  0.33140  1.0000
  Hf  Hf52      1.0  0.15626  0.88574  0.83533  1.0000
  Hf  Hf53      1.0  0.41266  0.38793  0.32541  1.0000
  Hf  Hf54      1.0  0.40912  0.38140  0.83343  1.0000
  Hf  Hf55      1.0  0.40407  0.88528  0.34786  1.0000
  Hf  Hf56      1.0  0.41050  0.88185  0.83258  1.0000
  Hf  Hf57      1.0  0.65671  0.38552  0.33214  1.0000
  Hf  Hf58      1.0  0.65733  0.38892  0.83194  1.0000
  Hf  Hf59      1.0  0.66105  0.88888  0.32380  1.0000
  Hf  Hf60      1.0  0.65504  0.88736  0.83629  1.0000
  Hf  Hf61      1.0  0.90917  0.39029  0.32995  1.0000
  Hf  Hf62      1.0  0.90952  0.39124  0.83129  1.0000
  Hf  Hf63      1.0  0.91256  0.88631  0.33049  1.0000
  Hf  Hf64      1.0  0.91020  0.89370  0.83001  1.0000
  Hf  Hf65      1.0  0.19593  0.31994  0.08431  1.0000
  Hf  Hf66      1.0  0.19263  0.31366  0.58985  1.0000
  Hf  Hf67      1.0  0.19560  0.81441  0.08079  1.0000
  Hf  Hf68      1.0  0.19541  0.81971  0.57892  1.0000
  Hf  Hf69      1.0  0.44293  0.31542  0.08681  1.0000
  Hf  Hf70      1.0  0.44624  0.32065  0.57962  1.0000
  Hf  Hf71      1.0  0.44528  0.81537  0.08581  1.0000
  Hf  Hf72      1.0  0.44669  0.82064  0.58262  1.0000
  Hf  Hf73      1.0  0.69075  0.31691  0.08392  1.0000
  Hf  Hf74      1.0  0.68973  0.32421  0.57933  1.0000
  Hf  Hf75      1.0  0.69042  0.82880  0.07619  1.0000
  Hf  Hf76      1.0  0.69417  0.81657  0.58581  1.0000
  Hf  Hf77      1.0  0.94647  0.30978  0.09108  1.0000
  Hf  Hf78      1.0  0.94277  0.31202  0.58577  1.0000
  Hf  Hf79      1.0  0.94569  0.82180  0.07911  1.0000
  Hf  Hf80      1.0  0.94631  0.81349  0.57957  1.0000
  Hf  Hf81      1.0  0.09164  0.11594  0.16262  1.0000
  Hf  Hf82      1.0  0.09290  0.10964  0.66254  1.0000
  Hf  Hf83      1.0  0.09484  0.61032  0.16801  1.0000
  Hf  Hf84      1.0  0.08823  0.61319  0.66485  1.0000
  Hf  Hf85      1.0  0.34247  0.10433  0.16688  1.0000
  Hf  Hf86      1.0  0.34732  0.10957  0.66683  1.0000
  Hf  Hf87      1.0  0.34186  0.60364  0.17331  1.0000
  Hf  Hf88      1.0  0.33854  0.60911  0.67162  1.0000
  Hf  Hf89      1.0  0.59696  0.10869  0.15655  1.0000
  Hf  Hf90      1.0  0.58958  0.11412  0.66719  1.0000
  Hf  Hf91      1.0  0.58864  0.61061  0.17010  1.0000
  Hf  Hf92      1.0  0.59138  0.61944  0.67469  1.0000
  Hf  Hf93      1.0  0.84665  0.11249  0.16571  1.0000
  Hf  Hf94      1.0  0.83968  0.10745  0.65890  1.0000
  Hf  Hf95      1.0  0.84058  0.61909  0.16396  1.0000
  Hf  Hf96      1.0  0.84358  0.61344  0.65723  1.0000
  F   F1        1.0  0.07634  0.12464  0.30511  1.0000
  F   F2        1.0  0.07822  0.12552  0.80452  1.0000
  F   F3        1.0  0.08270  0.64089  0.29785  1.0000
  F   F4        1.0  0.07079  0.63580  0.79816  1.0000
  F   F5        1.0  0.32992  0.11686  0.30217  1.0000
  F   F6        1.0  0.33357  0.14741  0.78987  1.0000
  F   F7        1.0  0.32338  0.60234  0.31601  1.0000
  F   F8        1.0  0.33022  0.61969  0.81145  1.0000
  F   F9        1.0  0.58115  0.13676  0.29276  1.0000
  F   F10       1.0  0.57800  0.14276  0.79916  1.0000
  F   F11       1.0  0.57625  0.62875  0.30904  1.0000
  F   F12       1.0  0.57034  0.62628  0.81754  1.0000
  F   F13       1.0  0.84321  0.14305  0.28646  1.0000
  F   F14       1.0  0.82586  0.12821  0.80247  1.0000
  F   F15       1.0  0.82380  0.64080  0.29973  1.0000
  F   F16       1.0  0.83329  0.64130  0.79531  1.0000
  F   F17       1.0  0.18074  0.33855  0.46446  1.0000
  F   F18       1.0  0.18163  0.33268  0.95189  1.0000
  F   F19       1.0  0.18384  0.82667  0.45552  1.0000
  F   F20       1.0  0.18499  0.84306  0.94576  1.0000
  F   F21       1.0  0.44105  0.35871  0.43547  1.0000
  F   F22       1.0  0.43907  0.34152  0.94436  1.0000
  F   F23       1.0  0.43568  0.82880  0.44855  1.0000
  F   F24       1.0  0.44090  0.84140  0.94037  1.0000
  F   F25       1.0  0.67994  0.34548  0.44528  1.0000
  F   F26       1.0  0.69370  0.34978  0.93291  1.0000
  F   F27       1.0  0.68686  0.84413  0.44923  1.0000
  F   F28       1.0  0.68745  0.83615  0.93543  1.0000
  F   F29       1.0  0.93089  0.33600  0.44420  1.0000
  F   F30       1.0  0.94227  0.35201  0.95144  1.0000
  F   F31       1.0  0.94196  0.84898  0.44520  1.0000
  F   F32       1.0  0.92725  0.83908  0.96564  1.0000
  F   F33       1.0  0.17143  0.37948  0.20058  1.0000
  F   F34       1.0  0.17005  0.36851  0.70490  1.0000
  F   F35       1.0  0.17174  0.86416  0.19842  1.0000
  F   F36       1.0  0.17192  0.86411  0.69640  1.0000
  F   F37       1.0  0.41950  0.36348  0.20482  1.0000
  F   F38       1.0  0.41884  0.35694  0.70646  1.0000
  F   F39       1.0  0.40912  0.86012  0.21990  1.0000
  F   F40       1.0  0.42850  0.87943  0.68763  1.0000
  F   F41       1.0  0.66330  0.35720  0.20594  1.0000
  F   F42       1.0  0.66132  0.35840  0.70211  1.0000
  F   F43       1.0  0.67243  0.87855  0.19109  1.0000
  F   F44       1.0  0.66814  0.87470  0.69168  1.0000
  F   F45       1.0  0.92269  0.37218  0.19720  1.0000
  F   F46       1.0  0.92693  0.38172  0.68971  1.0000
  F   F47       1.0  0.92593  0.86134  0.19994  1.0000
  F   F48       1.0  0.92399  0.87599  0.69771  1.0000
  F   F49       1.0  0.06630  0.15788  0.04609  1.0000
  F   F50       1.0  0.05670  0.15540  0.55996  1.0000
  F   F51       1.0  0.06265  0.65968  0.06002  1.0000
  F   F52       1.0  0.06530  0.66517  0.54226  1.0000
  F   F53       1.0  0.30381  0.14199  0.06778  1.0000
  F   F54       1.0  0.31337  0.15397  0.56330  1.0000
  F   F55       1.0  0.32089  0.66916  0.05205  1.0000
  F   F56       1.0  0.31204  0.64769  0.56252  1.0000
  F   F57       1.0  0.57175  0.15248  0.04983  1.0000
  F   F58       1.0  0.56496  0.16166  0.54882  1.0000
  F   F59       1.0  0.55852  0.65255  0.05889  1.0000
  F   F60       1.0  0.57197  0.66469  0.54761  1.0000
  F   F61       1.0  0.81661  0.16295  0.05631  1.0000
  F   F62       1.0  0.81511  0.16809  0.54986  1.0000
  F   F63       1.0  0.81652  0.65452  0.05536  1.0000
  F   F64       1.0  0.82466  0.66374  0.53553  1.0000
  F   F65       1.0  0.20440  0.20328  0.22415  1.0000
  F   F66       1.0  0.20772  0.20758  0.70230  1.0000
  F   F67       1.0  0.19365  0.70739  0.21397  1.0000
  F   F68       1.0  0.20701  0.69199  0.72091  1.0000
  F   F69       1.0  0.44968  0.19044  0.21526  1.0000
  F   F70       1.0  0.46112  0.19430  0.71917  1.0000
  F   F71       1.0  0.45537  0.70554  0.20568  1.0000
  F   F72       1.0  0.43748  0.70703  0.70920  1.0000
  F   F73       1.0  0.70556  0.19005  0.21095  1.0000
  F   F74       1.0  0.70699  0.19944  0.69877  1.0000
  F   F75       1.0  0.70401  0.69915  0.21186  1.0000
  F   F76       1.0  0.70776  0.70791  0.70812  1.0000
  F   F77       1.0  0.95389  0.19649  0.21175  1.0000
  F   F78       1.0  0.95043  0.20295  0.71634  1.0000
  F   F79       1.0  0.96999  0.69879  0.21533  1.0000
  F   F80       1.0  0.95722  0.69559  0.70909  1.0000
  F   F81       1.0  0.14865  0.07989  0.04376  1.0000
  F   F82       1.0  0.14716  0.09285  0.53408  1.0000
  F   F83       1.0  0.14913  0.58066  0.03973  1.0000
  F   F84       1.0  0.14342  0.59568  0.54393  1.0000
  F   F85       1.0  0.39739  0.07755  0.04888  1.0000
  F   F86       1.0  0.40221  0.09139  0.54443  1.0000
  F   F87       1.0  0.39841  0.57504  0.05583  1.0000
  F   F88       1.0  0.39934  0.59492  0.53851  1.0000
  F   F89       1.0  0.65017  0.07981  0.03613  1.0000
  F   F90       1.0  0.65224  0.08875  0.54645  1.0000
  F   F91       1.0  0.65054  0.60249  0.03559  1.0000
  F   F92       1.0  0.64848  0.59612  0.53313  1.0000
  F   F93       1.0  0.89961  0.09415  0.02776  1.0000
  F   F94       1.0  0.89992  0.08476  0.53612  1.0000
  F   F95       1.0  0.90021  0.61243  0.03164  1.0000
  F   F96       1.0  0.89782  0.57850  0.52579  1.0000
  F   F97       1.0  0.15234  0.18875  0.12312  1.0000
  F   F98       1.0  0.15086  0.18452  0.63282  1.0000
  F   F99       1.0  0.15853  0.68025  0.12220  1.0000
  F   F100      1.0  0.15121  0.69864  0.65477  1.0000
  F   F101      1.0  0.40192  0.20650  0.11568  1.0000
  F   F102      1.0  0.40639  0.20347  0.61530  1.0000
  F   F103      1.0  0.41014  0.68508  0.11503  1.0000
  F   F104      1.0  0.39535  0.69496  0.61741  1.0000
  F   F105      1.0  0.65411  0.19254  0.12600  1.0000
  F   F106      1.0  0.64725  0.19792  0.63566  1.0000
  F   F107      1.0  0.64698  0.70785  0.12623  1.0000
  F   F108      1.0  0.65388  0.69234  0.63577  1.0000
  F   F109      1.0  0.90539  0.20578  0.11339  1.0000
  F   F110      1.0  0.90635  0.18874  0.61436  1.0000
  F   F111      1.0  0.90159  0.70460  0.15189  1.0000
  F   F112      1.0  0.90840  0.69237  0.60094  1.0000
  F   F113      1.0  0.09987  0.30629  0.37810  1.0000
  F   F114      1.0  0.10012  0.29870  0.88542  1.0000
  F   F115      1.0  0.09887  0.79578  0.36506  1.0000
  F   F116      1.0  0.09941  0.80156  0.87004  1.0000
  F   F117      1.0  0.34881  0.29329  0.37817  1.0000
  F   F118      1.0  0.34303  0.31189  0.87543  1.0000
  F   F119      1.0  0.34904  0.79927  0.39191  1.0000
  F   F120      1.0  0.35829  0.79244  0.87002  1.0000
  F   F121      1.0  0.59356  0.30069  0.37341  1.0000
  F   F122      1.0  0.59495  0.30500  0.87752  1.0000
  F   F123      1.0  0.59263  0.80265  0.36191  1.0000
  F   F124      1.0  0.59608  0.79825  0.88537  1.0000
  F   F125      1.0  0.85084  0.30059  0.37511  1.0000
  F   F126      1.0  0.84510  0.31815  0.85951  1.0000
  F   F127      1.0  0.84938  0.80804  0.36674  1.0000
  F   F128      1.0  0.85448  0.80309  0.88361  1.0000
  F   F129      1.0  0.07195  0.26261  0.12412  1.0000
  F   F130      1.0  0.06491  0.24760  0.64991  1.0000
  F   F131      1.0  0.07458  0.75440  0.12898  1.0000
  F   F132      1.0  0.06555  0.75445  0.63142  1.0000
  F   F133      1.0  0.31945  0.24863  0.13899  1.0000
  F   F134      1.0  0.31357  0.25721  0.63724  1.0000
  F   F135      1.0  0.30880  0.74120  0.16627  1.0000
  F   F136      1.0  0.30526  0.74142  0.66739  1.0000
  F   F137      1.0  0.56936  0.25524  0.12855  1.0000
  F   F138      1.0  0.55846  0.25610  0.65540  1.0000
  F   F139      1.0  0.56036  0.74958  0.13939  1.0000
  F   F140      1.0  0.57087  0.75638  0.63986  1.0000
  F   F141      1.0  0.80834  0.24820  0.14970  1.0000
  F   F142      1.0  0.81230  0.25774  0.63296  1.0000
  F   F143      1.0  0.82478  0.76579  0.12144  1.0000
  F   F144      1.0  0.81323  0.75333  0.63816  1.0000
  F   F145      1.0  0.12674  0.36142  0.11945  1.0000
  F   F146      1.0  0.12429  0.36261  0.62368  1.0000
  F   F147      1.0  0.12917  0.86864  0.09874  1.0000
  F   F148      1.0  0.12793  0.87313  0.59707  1.0000
  F   F149      1.0  0.37237  0.37365  0.11756  1.0000
  F   F150      1.0  0.37252  0.35819  0.61500  1.0000
  F   F151      1.0  0.37899  0.85955  0.10386  1.0000
  F   F152      1.0  0.37763  0.86606  0.61081  1.0000
  F   F153      1.0  0.62766  0.37889  0.08631  1.0000
  F   F154      1.0  0.62350  0.38586  0.59619  1.0000
  F   F155      1.0  0.62267  0.88972  0.10096  1.0000
  F   F156      1.0  0.62484  0.88550  0.59679  1.0000
  F   F157      1.0  0.86987  0.36119  0.11404  1.0000
  F   F158      1.0  0.87317  0.36479  0.59963  1.0000
  F   F159      1.0  0.87841  0.90050  0.08419  1.0000
  F   F160      1.0  0.87230  0.84543  0.62644  1.0000
  F   F161      1.0  0.17861  0.24698  0.37634  1.0000
  F   F162      1.0  0.18878  0.25053  0.85419  1.0000
  F   F163      1.0  0.17936  0.73852  0.36833  1.0000
  F   F164      1.0  0.17506  0.74357  0.87175  1.0000
  F   F165      1.0  0.44048  0.25266  0.34783  1.0000
  F   F166      1.0  0.43081  0.23838  0.87074  1.0000
  F   F167      1.0  0.43933  0.74353  0.35169  1.0000
  F   F168      1.0  0.43954  0.73939  0.84777  1.0000
  F   F169      1.0  0.67840  0.25512  0.35806  1.0000
  F   F170      1.0  0.68382  0.25792  0.84939  1.0000
  F   F171      1.0  0.68751  0.75994  0.34817  1.0000
  F   F172      1.0  0.68486  0.75340  0.85358  1.0000
  F   F173      1.0  0.93381  0.25067  0.34734  1.0000
  F   F174      1.0  0.92840  0.25557  0.86172  1.0000
  F   F175      1.0  0.92532  0.74398  0.38748  1.0000
  F   F176      1.0  0.94045  0.75826  0.83797  1.0000
  F   F177      1.0  0.12463  0.14287  0.37713  1.0000
  F   F178      1.0  0.12753  0.12858  0.88435  1.0000
  F   F179      1.0  0.12479  0.60385  0.40469  1.0000
  F   F180      1.0  0.12195  0.62718  0.89495  1.0000
  F   F181      1.0  0.37447  0.12399  0.39792  1.0000
  F   F182      1.0  0.37122  0.13942  0.90007  1.0000
  F   F183      1.0  0.37126  0.63527  0.38845  1.0000
  F   F184      1.0  0.37211  0.60995  0.91441  1.0000
  F   F185      1.0  0.62842  0.12600  0.39180  1.0000
  F   F186      1.0  0.62727  0.14260  0.87998  1.0000
  F   F187      1.0  0.62345  0.64654  0.39517  1.0000
  F   F188      1.0  0.62507  0.62675  0.88704  1.0000
  F   F189      1.0  0.87660  0.11371  0.40388  1.0000
  F   F190      1.0  0.87124  0.12492  0.90281  1.0000
  F   F191      1.0  0.88401  0.63756  0.36301  1.0000
  F   F192      1.0  0.87646  0.62332  0.89561  1.0000
  F   F193      1.0  0.01306  0.36060  0.07347  1.0000
  F   F194      1.0  0.00689  0.35327  0.58726  1.0000
  F   F195      1.0  0.01061  0.86635  0.07954  1.0000
  F   F196      1.0  0.00725  0.86028  0.57912  1.0000
  F   F197      1.0  0.25698  0.37167  0.07965  1.0000
  F   F198      1.0  0.25413  0.36763  0.56731  1.0000
  F   F199      1.0  0.26273  0.86540  0.04998  1.0000
  F   F200      1.0  0.25565  0.86876  0.57047  1.0000
  F   F201      1.0  0.50555  0.36757  0.06485  1.0000
  F   F202      1.0  0.51181  0.37644  0.55415  1.0000
  F   F203      1.0  0.50935  0.85684  0.07711  1.0000
  F   F204      1.0  0.51187  0.86550  0.58023  1.0000
  F   F205      1.0  0.75497  0.36746  0.06856  1.0000
  F   F206      1.0  0.75263  0.35737  0.58043  1.0000
  F   F207      1.0  0.75547  0.88127  0.07794  1.0000
  F   F208      1.0  0.75490  0.86403  0.57056  1.0000
  F   F209      1.0  0.07131  0.48736  0.17154  1.0000
  F   F210      1.0  0.06539  0.49579  0.68275  1.0000
  F   F211      1.0  0.07112  0.98323  0.17190  1.0000
  F   F212      1.0  0.07387  0.98641  0.67318  1.0000
  F   F213      1.0  0.31250  0.47743  0.19547  1.0000
  F   F214      1.0  0.31936  0.48048  0.66070  1.0000
  F   F215      1.0  0.32196  0.97124  0.17150  1.0000
  F   F216      1.0  0.32748  0.98559  0.66616  1.0000
  F   F217      1.0  0.57493  0.48476  0.17042  1.0000
  F   F218      1.0  0.56770  0.49545  0.68669  1.0000
  F   F219      1.0  0.56692  0.97672  0.19291  1.0000
  F   F220      1.0  0.56668  0.97979  0.68733  1.0000
  F   F221      1.0  0.81503  0.49317  0.16796  1.0000
  F   F222      1.0  0.81499  0.47329  0.68209  1.0000
  F   F223      1.0  0.81727  0.99960  0.17067  1.0000
  F   F224      1.0  0.81984  0.98758  0.66186  1.0000
  F   F225      1.0  0.24333  0.13775  0.42488  1.0000
  F   F226      1.0  0.24354  0.13368  0.92483  1.0000
  F   F227      1.0  0.23916  0.65145  0.41233  1.0000
  F   F228      1.0  0.24292  0.65042  0.91420  1.0000
  F   F229      1.0  0.49376  0.14089  0.41852  1.0000
  F   F230      1.0  0.49269  0.12561  0.93571  1.0000
  F   F231      1.0  0.49130  0.62514  0.44258  1.0000
  F   F232      1.0  0.48706  0.63018  0.95322  1.0000
  F   F233      1.0  0.73769  0.15522  0.42825  1.0000
  F   F234      1.0  0.74161  0.13686  0.91984  1.0000
  F   F235      1.0  0.74054  0.65213  0.41948  1.0000
  F   F236      1.0  0.74563  0.64538  0.91685  1.0000
  F   F237      1.0  0.99713  0.13480  0.41794  1.0000
  F   F238      1.0  0.99096  0.14892  0.91684  1.0000
  F   F239      1.0  0.98682  0.63632  0.42725  1.0000
  F   F240      1.0  0.99347  0.66080  0.91875  1.0000
  F   F241      1.0  0.17863  0.01195  0.33448  1.0000
  F   F242      1.0  0.17645  0.01745  0.83279  1.0000
  F   F243      1.0  0.17414  0.51899  0.32592  1.0000
  F   F244      1.0  0.18571  0.50785  0.82538  1.0000
  F   F245      1.0  0.42743  0.00580  0.34106  1.0000
  F   F246      1.0  0.42835  0.01240  0.84237  1.0000
  F   F247      1.0  0.42782  0.52494  0.31033  1.0000
  F   F248      1.0  0.43593  0.51034  0.82501  1.0000
  F   F249      1.0  0.68383  0.01479  0.32754  1.0000
  F   F250      1.0  0.68105  0.02291  0.81102  1.0000
  F   F251      1.0  0.67432  0.51216  0.34297  1.0000
  F   F252      1.0  0.67368  0.51746  0.82951  1.0000
  F   F253      1.0  0.93393  0.01633  0.32027  1.0000
  F   F254      1.0  0.92975  0.02038  0.82103  1.0000
  F   F255      1.0  0.93859  0.51955  0.30209  1.0000
  F   F256      1.0  0.93557  0.51470  0.81134  1.0000
  F   F257      1.0  0.99869  0.24029  0.00611  1.0000
  F   F258      1.0  0.00207  0.26500  0.49060  1.0000
  F   F259      1.0  0.00321  0.75384  0.00079  1.0000
  F   F260      1.0  0.99873  0.74890  0.49687  1.0000
  F   F261      1.0  0.25044  0.24904  0.01114  1.0000
  F   F262      1.0  0.25063  0.24724  0.50031  1.0000
  F   F263      1.0  0.25571  0.75831  0.99310  1.0000
  F   F264      1.0  0.25376  0.76060  0.49351  1.0000
  F   F265      1.0  0.50227  0.25155  0.99800  1.0000
  F   F266      1.0  0.49683  0.24461  0.49697  1.0000
  F   F267      1.0  0.50203  0.75503  0.00191  1.0000
  F   F268      1.0  0.49613  0.73748  0.51871  1.0000
  F   F269      1.0  0.75135  0.25403  0.99747  1.0000
  F   F270      1.0  0.75100  0.26320  0.48470  1.0000
  F   F271      1.0  0.75289  0.76249  0.99526  1.0000
  F   F272      1.0  0.74925  0.74280  0.50746  1.0000
  F   F273      1.0  0.12140  0.99910  0.26193  1.0000
  F   F274      1.0  0.12518  0.99543  0.74520  1.0000
  F   F275      1.0  0.11536  0.49762  0.26396  1.0000
  F   F276      1.0  0.12202  0.50165  0.75075  1.0000
  F   F277      1.0  0.36827  0.98907  0.26863  1.0000
  F   F278      1.0  0.37878  0.99513  0.74763  1.0000
  F   F279      1.0  0.37452  0.49082  0.25173  1.0000
  F   F280      1.0  0.37290  0.48956  0.75410  1.0000
  F   F281      1.0  0.62562  0.00404  0.25087  1.0000
  F   F282      1.0  0.61918  0.00248  0.74771  1.0000
  F   F283      1.0  0.62655  0.50543  0.24820  1.0000
  F   F284      1.0  0.62416  0.50764  0.75209  1.0000
  F   F285      1.0  0.88256  0.99488  0.23846  1.0000
  F   F286      1.0  0.86239  0.99368  0.75635  1.0000
  F   F287      1.0  0.87576  0.49794  0.24148  1.0000
  F   F288      1.0  0.87451  0.50525  0.74030  1.0000
  F   F289      1.0  0.03796  0.03347  0.02110  1.0000
  F   F290      1.0  0.04924  0.02631  0.52350  1.0000
  F   F291      1.0  0.03522  0.53544  0.02325  1.0000
  F   F292      1.0  0.04452  0.52755  0.53492  1.0000
  F   F293      1.0  0.29745  0.02281  0.02124  1.0000
  F   F294      1.0  0.28996  0.03671  0.52801  1.0000
  F   F295      1.0  0.28911  0.53811  0.03483  1.0000
  F   F296      1.0  0.28595  0.52900  0.52645  1.0000
  F   F297      1.0  0.54366  0.02980  0.03778  1.0000
  F   F298      1.0  0.54324  0.03845  0.52117  1.0000
  F   F299      1.0  0.53845  0.52399  0.03571  1.0000
  F   F300      1.0  0.54593  0.53108  0.52778  1.0000
  F   F301      1.0  0.78388  0.04926  0.02460  1.0000
  F   F302      1.0  0.79120  0.03268  0.51439  1.0000
  F   F303      1.0  0.79446  0.53686  0.00734  1.0000
  F   F304      1.0  0.78889  0.54920  0.51995  1.0000
  F   F305      1.0  0.23290  0.41429  0.23395  1.0000
  F   F306      1.0  0.23128  0.41794  0.72731  1.0000
  F   F307      1.0  0.23645  0.89843  0.23647  1.0000
  F   F308      1.0  0.23749  0.90803  0.72826  1.0000
  F   F309      1.0  0.49045  0.40816  0.22183  1.0000
  F   F310      1.0  0.48177  0.41710  0.72281  1.0000
  F   F311      1.0  0.48077  0.91020  0.22956  1.0000
  F   F312      1.0  0.48186  0.92788  0.73183  1.0000
  F   F313      1.0  0.72875  0.42530  0.21483  1.0000
  F   F314      1.0  0.73069  0.41958  0.71543  1.0000
  F   F315      1.0  0.73245  0.92862  0.23017  1.0000
  F   F316      1.0  0.73265  0.91832  0.71857  1.0000
  F   F317      1.0  0.98970  0.40772  0.22427  1.0000
  F   F318      1.0  0.98961  0.39926  0.74139  1.0000
  F   F319      1.0  0.98750  0.92082  0.22714  1.0000
  F   F320      1.0  0.98672  0.92837  0.71825  1.0000
  F   F321      1.0  0.19681  0.47041  0.48950  1.0000
  F   F322      1.0  0.20035  0.46134  0.99673  1.0000
  F   F323      1.0  0.21331  0.96145  0.47101  1.0000
  F   F324      1.0  0.20794  0.97232  0.98226  1.0000
  F   F325      1.0  0.44970  0.46708  0.49547  1.0000
  F   F326      1.0  0.45313  0.46436  0.98356  1.0000
  F   F327      1.0  0.46844  0.96633  0.45894  1.0000
  F   F328      1.0  0.46145  0.96222  0.98799  1.0000
  F   F329      1.0  0.71752  0.47429  0.45702  1.0000
  F   F330      1.0  0.69584  0.47173  0.98921  1.0000
  F   F331      1.0  0.70610  0.97122  0.48618  1.0000
  F   F332      1.0  0.70659  0.96447  0.96600  1.0000
  F   F333      1.0  0.95839  0.46165  0.45918  1.0000
  F   F334      1.0  0.95528  0.48785  0.99315  1.0000
  F   F335      1.0  0.95144  0.96331  0.49687  1.0000
  F   F336      1.0  0.96431  0.96383  0.95883  1.0000
  F   F337      1.0  0.01307  0.08020  0.27349  1.0000
  F   F338      1.0  0.02041  0.08543  0.77402  1.0000
  F   F339      1.0  0.02249  0.57499  0.28418  1.0000
  F   F340      1.0  0.01210  0.57514  0.77919  1.0000
  F   F341      1.0  0.26573  0.07636  0.27531  1.0000
  F   F342      1.0  0.27151  0.09234  0.77085  1.0000
  F   F343      1.0  0.25910  0.58421  0.27303  1.0000
  F   F344      1.0  0.26698  0.57140  0.79513  1.0000
  F   F345      1.0  0.51670  0.09470  0.26415  1.0000
  F   F346      1.0  0.51733  0.06965  0.78532  1.0000
  F   F347      1.0  0.51260  0.56960  0.27950  1.0000
  F   F348      1.0  0.51252  0.61474  0.76357  1.0000
  F   F349      1.0  0.77305  0.09462  0.28860  1.0000
  F   F350      1.0  0.76664  0.08274  0.77281  1.0000
  F   F351      1.0  0.76663  0.60990  0.25841  1.0000
  F   F352      1.0  0.76346  0.58567  0.77610  1.0000
  F   F353      1.0  0.10468  0.40266  0.48206  1.0000
  F   F354      1.0  0.10030  0.42373  0.96208  1.0000
  F   F355      1.0  0.10489  0.89351  0.45813  1.0000
  F   F356      1.0  0.10316  0.90590  0.95514  1.0000
  F   F357      1.0  0.35006  0.40740  0.46138  1.0000
  F   F358      1.0  0.35435  0.41130  0.96128  1.0000
  F   F359      1.0  0.35018  0.90302  0.48035  1.0000
  F   F360      1.0  0.35378  0.91031  0.95163  1.0000
  F   F361      1.0  0.60084  0.40503  0.46013  1.0000
  F   F362      1.0  0.59873  0.40002  0.95770  1.0000
  F   F363      1.0  0.60353  0.90267  0.45027  1.0000
  F   F364      1.0  0.60378  0.90913  0.96412  1.0000
  F   F365      1.0  0.85210  0.42879  0.44400  1.0000
  F   F366      1.0  0.85046  0.41356  0.95588  1.0000
  F   F367      1.0  0.85217  0.91263  0.46709  1.0000
  F   F368      1.0  0.84841  0.93911  0.93980  1.0000
  F   F369      1.0  0.04860  0.29062  0.29437  1.0000
  F   F370      1.0  0.05488  0.29449  0.79397  1.0000
  F   F371      1.0  0.04344  0.79689  0.28399  1.0000
  F   F372      1.0  0.04708  0.79875  0.78321  1.0000
  F   F373      1.0  0.28914  0.28908  0.29379  1.0000
  F   F374      1.0  0.29163  0.29572  0.79844  1.0000
  F   F375      1.0  0.30924  0.78723  0.29633  1.0000
  F   F376      1.0  0.30624  0.79639  0.79419  1.0000
  F   F377      1.0  0.54465  0.30133  0.28811  1.0000
  F   F378      1.0  0.53899  0.30697  0.79573  1.0000
  F   F379      1.0  0.54123  0.78935  0.29229  1.0000
  F   F380      1.0  0.53628  0.79951  0.79085  1.0000
  F   F381      1.0  0.80110  0.31084  0.28496  1.0000
  F   F382      1.0  0.79031  0.29813  0.78780  1.0000
  F   F383      1.0  0.80073  0.82428  0.26305  1.0000
  F   F384      1.0  0.80106  0.80645  0.79182  1.0000
