data_image0
_chemical_formula_structural       Hf96F384
_chemical_formula_sum              "Hf96 F384"
_cell_length_a       31.0494
_cell_length_b       15.5237
_cell_length_c       15.5149
_cell_angle_alpha    63.342
_cell_angle_beta     63.342
_cell_angle_gamma    80.1625

_space_group_name_H-M_alt    "P 1"
_space_group_IT_number       1

loop_
  _space_group_symop_operation_xyz
  'x, y, z'

loop_
  _atom_site_type_symbol
  _atom_site_label
  _atom_site_symmetry_multiplicity
  _atom_site_fract_x
  _atom_site_fract_y
  _atom_site_fract_z
  _atom_site_occupancy
  Hf  Hf1       1.0  0.19602  0.10582  0.37129  1.0000
  Hf  Hf2       1.0  0.20026  0.11161  0.86881  1.0000
  Hf  Hf3       1.0  0.19643  0.60561  0.38054  1.0000
  Hf  Hf4       1.0  0.19734  0.61230  0.87813  1.0000
  Hf  Hf5       1.0  0.44236  0.10883  0.37936  1.0000
  Hf  Hf6       1.0  0.44797  0.10982  0.87891  1.0000
  Hf  Hf7       1.0  0.44704  0.60800  0.37542  1.0000
  Hf  Hf8       1.0  0.44762  0.61168  0.87516  1.0000
  Hf  Hf9       1.0  0.69634  0.11012  0.37017  1.0000
  Hf  Hf10      1.0  0.69787  0.11278  0.87007  1.0000
  Hf  Hf11      1.0  0.69623  0.59581  0.37886  1.0000
  Hf  Hf12      1.0  0.69835  0.60440  0.87698  1.0000
  Hf  Hf13      1.0  0.94512  0.10240  0.38291  1.0000
  Hf  Hf14      1.0  0.94778  0.10108  0.87320  1.0000
  Hf  Hf15      1.0  0.93779  0.59781  0.38781  1.0000
  Hf  Hf16      1.0  0.94589  0.60193  0.88716  1.0000
  Hf  Hf17      1.0  0.05476  0.38556  0.12759  1.0000
  Hf  Hf18      1.0  0.04975  0.38964  0.62911  1.0000
  Hf  Hf19      1.0  0.05212  0.89174  0.13348  1.0000
  Hf  Hf20      1.0  0.05545  0.88926  0.62472  1.0000
  Hf  Hf21      1.0  0.30143  0.40081  0.12044  1.0000
  Hf  Hf22      1.0  0.30455  0.40275  0.62296  1.0000
  Hf  Hf23      1.0  0.30344  0.89675  0.11561  1.0000
  Hf  Hf24      1.0  0.30543  0.89389  0.62630  1.0000
  Hf  Hf25      1.0  0.55106  0.39470  0.13422  1.0000
  Hf  Hf26      1.0  0.55703  0.39381  0.62186  1.0000
  Hf  Hf27      1.0  0.55180  0.89582  0.12329  1.0000
  Hf  Hf28      1.0  0.55445  0.89433  0.62017  1.0000
  Hf  Hf29      1.0  0.79975  0.38959  0.13045  1.0000
  Hf  Hf30      1.0  0.80611  0.39560  0.62332  1.0000
  Hf  Hf31      1.0  0.80264  0.88718  0.12931  1.0000
  Hf  Hf32      1.0  0.80288  0.89357  0.62196  1.0000
  Hf  Hf33      1.0  0.05479  0.18066  0.41730  1.0000
  Hf  Hf34      1.0  0.05506  0.17483  0.92280  1.0000
  Hf  Hf35      1.0  0.05733  0.67843  0.41700  1.0000
  Hf  Hf36      1.0  0.05462  0.68405  0.91967  1.0000
  Hf  Hf37      1.0  0.30534  0.18704  0.41958  1.0000
  Hf  Hf38      1.0  0.30851  0.18950  0.91009  1.0000
  Hf  Hf39      1.0  0.30679  0.68857  0.40705  1.0000
  Hf  Hf40      1.0  0.30628  0.68371  0.92010  1.0000
  Hf  Hf41      1.0  0.55607  0.18583  0.41904  1.0000
  Hf  Hf42      1.0  0.56054  0.19353  0.91198  1.0000
  Hf  Hf43      1.0  0.55147  0.68023  0.42306  1.0000
  Hf  Hf44      1.0  0.55631  0.68937  0.91590  1.0000
  Hf  Hf45      1.0  0.80911  0.18731  0.40701  1.0000
  Hf  Hf46      1.0  0.80585  0.18234  0.91428  1.0000
  Hf  Hf47      1.0  0.80551  0.68039  0.41639  1.0000
  Hf  Hf48      1.0  0.80918  0.68012  0.91349  1.0000
  Hf  Hf49      1.0  0.15590  0.38847  0.34115  1.0000
  Hf  Hf50      1.0  0.16516  0.39590  0.82726  1.0000
  Hf  Hf51      1.0  0.15837  0.88971  0.33396  1.0000
  Hf  Hf52      1.0  0.15722  0.88494  0.83048  1.0000
  Hf  Hf53      1.0  0.40689  0.38538  0.33442  1.0000
  Hf  Hf54      1.0  0.40851  0.39785  0.82807  1.0000
  Hf  Hf55      1.0  0.40797  0.88783  0.32779  1.0000
  Hf  Hf56      1.0  0.40930  0.89363  0.82428  1.0000
  Hf  Hf57      1.0  0.65584  0.38742  0.33739  1.0000
  Hf  Hf58      1.0  0.66374  0.39354  0.82402  1.0000
  Hf  Hf59      1.0  0.65916  0.88119  0.33078  1.0000
  Hf  Hf60      1.0  0.66390  0.89838  0.82047  1.0000
  Hf  Hf61      1.0  0.90856  0.38033  0.33550  1.0000
  Hf  Hf62      1.0  0.90917  0.38430  0.84099  1.0000
  Hf  Hf63      1.0  0.90650  0.88380  0.34202  1.0000
  Hf  Hf64      1.0  0.90796  0.88883  0.83510  1.0000
  Hf  Hf65      1.0  0.19353  0.31828  0.08524  1.0000
  Hf  Hf66      1.0  0.19073  0.32017  0.59130  1.0000
  Hf  Hf67      1.0  0.19272  0.81216  0.08416  1.0000
  Hf  Hf68      1.0  0.19844  0.82245  0.57801  1.0000
  Hf  Hf69      1.0  0.44358  0.32207  0.08084  1.0000
  Hf  Hf70      1.0  0.44343  0.31858  0.58495  1.0000
  Hf  Hf71      1.0  0.44270  0.81119  0.08553  1.0000
  Hf  Hf72      1.0  0.44505  0.81723  0.58038  1.0000
  Hf  Hf73      1.0  0.69253  0.31191  0.07913  1.0000
  Hf  Hf74      1.0  0.69746  0.31734  0.57862  1.0000
  Hf  Hf75      1.0  0.69642  0.81421  0.07974  1.0000
  Hf  Hf76      1.0  0.69388  0.81876  0.57723  1.0000
  Hf  Hf77      1.0  0.94234  0.30054  0.09222  1.0000
  Hf  Hf78      1.0  0.94432  0.31283  0.58272  1.0000
  Hf  Hf79      1.0  0.94318  0.81355  0.08420  1.0000
  Hf  Hf80      1.0  0.94413  0.81512  0.58685  1.0000
  Hf  Hf81      1.0  0.09201  0.11268  0.16418  1.0000
  Hf  Hf82      1.0  0.09387  0.10450  0.67154  1.0000
  Hf  Hf83      1.0  0.08488  0.61333  0.16895  1.0000
  Hf  Hf84      1.0  0.08872  0.60789  0.67419  1.0000
  Hf  Hf85      1.0  0.34044  0.11193  0.17184  1.0000
  Hf  Hf86      1.0  0.33975  0.11458  0.66384  1.0000
  Hf  Hf87      1.0  0.33843  0.61532  0.16892  1.0000
  Hf  Hf88      1.0  0.34168  0.61479  0.66110  1.0000
  Hf  Hf89      1.0  0.58903  0.10911  0.17021  1.0000
  Hf  Hf90      1.0  0.59388  0.11355  0.66342  1.0000
  Hf  Hf91      1.0  0.59552  0.61447  0.15844  1.0000
  Hf  Hf92      1.0  0.59168  0.61037  0.66848  1.0000
  Hf  Hf93      1.0  0.83964  0.10654  0.16689  1.0000
  Hf  Hf94      1.0  0.84058  0.11199  0.66707  1.0000
  Hf  Hf95      1.0  0.84341  0.60858  0.16484  1.0000
  Hf  Hf96      1.0  0.84483  0.61188  0.66263  1.0000
  F   F1        1.0  0.07152  0.11886  0.31363  1.0000
  F   F2        1.0  0.08412  0.12074  0.81050  1.0000
  F   F3        1.0  0.07005  0.62067  0.30339  1.0000
  F   F4        1.0  0.07647  0.62320  0.80869  1.0000
  F   F5        1.0  0.32701  0.13533  0.30420  1.0000
  F   F6        1.0  0.32172  0.12365  0.81141  1.0000
  F   F7        1.0  0.32485  0.61033  0.32189  1.0000
  F   F8        1.0  0.32513  0.62371  0.81055  1.0000
  F   F9        1.0  0.57847  0.13549  0.30021  1.0000
  F   F10       1.0  0.58445  0.14894  0.78931  1.0000
  F   F11       1.0  0.58169  0.63116  0.29959  1.0000
  F   F12       1.0  0.58051  0.62849  0.80601  1.0000
  F   F13       1.0  0.83990  0.13574  0.28613  1.0000
  F   F14       1.0  0.83514  0.12023  0.80618  1.0000
  F   F15       1.0  0.83141  0.62109  0.30080  1.0000
  F   F16       1.0  0.83040  0.61951  0.81279  1.0000
  F   F17       1.0  0.18861  0.35183  0.44146  1.0000
  F   F18       1.0  0.19300  0.34287  0.94325  1.0000
  F   F19       1.0  0.18388  0.83608  0.45236  1.0000
  F   F20       1.0  0.17467  0.83542  0.95906  1.0000
  F   F21       1.0  0.43832  0.34880  0.44187  1.0000
  F   F22       1.0  0.44184  0.35396  0.93160  1.0000
  F   F23       1.0  0.44719  0.85645  0.43854  1.0000
  F   F24       1.0  0.43114  0.83273  0.95444  1.0000
  F   F25       1.0  0.68200  0.33826  0.44966  1.0000
  F   F26       1.0  0.69523  0.34753  0.93343  1.0000
  F   F27       1.0  0.68410  0.84530  0.43876  1.0000
  F   F28       1.0  0.69708  0.84007  0.93128  1.0000
  F   F29       1.0  0.93866  0.34297  0.44184  1.0000
  F   F30       1.0  0.94182  0.33684  0.94305  1.0000
  F   F31       1.0  0.94489  0.84882  0.44166  1.0000
  F   F32       1.0  0.93259  0.85273  0.94420  1.0000
  F   F33       1.0  0.16653  0.35561  0.20901  1.0000
  F   F34       1.0  0.17064  0.39050  0.69294  1.0000
  F   F35       1.0  0.16990  0.86683  0.19397  1.0000
  F   F36       1.0  0.17259  0.86865  0.69770  1.0000
  F   F37       1.0  0.41415  0.35777  0.21324  1.0000
  F   F38       1.0  0.42875  0.39396  0.67099  1.0000
  F   F39       1.0  0.42017  0.86660  0.19141  1.0000
  F   F40       1.0  0.41877  0.85775  0.69652  1.0000
  F   F41       1.0  0.66496  0.34651  0.20762  1.0000
  F   F42       1.0  0.66966  0.35355  0.70323  1.0000
  F   F43       1.0  0.67169  0.86792  0.19685  1.0000
  F   F44       1.0  0.67065  0.87463  0.69293  1.0000
  F   F45       1.0  0.92514  0.37015  0.19038  1.0000
  F   F46       1.0  0.91750  0.36111  0.70277  1.0000
  F   F47       1.0  0.91642  0.85801  0.20577  1.0000
  F   F48       1.0  0.91843  0.86519  0.70191  1.0000
  F   F49       1.0  0.06119  0.16833  0.05622  1.0000
  F   F50       1.0  0.06568  0.14911  0.55720  1.0000
  F   F51       1.0  0.05366  0.64862  0.06346  1.0000
  F   F52       1.0  0.06382  0.65706  0.55508  1.0000
  F   F53       1.0  0.32258  0.15746  0.04095  1.0000
  F   F54       1.0  0.31116  0.15468  0.55330  1.0000
  F   F55       1.0  0.30213  0.65669  0.06475  1.0000
  F   F56       1.0  0.31979  0.66832  0.53890  1.0000
  F   F57       1.0  0.55861  0.15599  0.05823  1.0000
  F   F58       1.0  0.56104  0.15269  0.56632  1.0000
  F   F59       1.0  0.56599  0.65213  0.06013  1.0000
  F   F60       1.0  0.57628  0.66317  0.54058  1.0000
  F   F61       1.0  0.81905  0.16883  0.05069  1.0000
  F   F62       1.0  0.81171  0.15896  0.55207  1.0000
  F   F63       1.0  0.81798  0.64236  0.06139  1.0000
  F   F64       1.0  0.81723  0.66855  0.55122  1.0000
  F   F65       1.0  0.20922  0.19096  0.21525  1.0000
  F   F66       1.0  0.20355  0.20311  0.71082  1.0000
  F   F67       1.0  0.20701  0.71175  0.20533  1.0000
  F   F68       1.0  0.19601  0.71489  0.70740  1.0000
  F   F69       1.0  0.45693  0.20819  0.19772  1.0000
  F   F70       1.0  0.45780  0.19657  0.72791  1.0000
  F   F71       1.0  0.45349  0.69994  0.21573  1.0000
  F   F72       1.0  0.45565  0.69919  0.70731  1.0000
  F   F73       1.0  0.70264  0.19032  0.21936  1.0000
  F   F74       1.0  0.71121  0.20970  0.70329  1.0000
  F   F75       1.0  0.70685  0.69364  0.20505  1.0000
  F   F76       1.0  0.70613  0.70083  0.70130  1.0000
  F   F77       1.0  0.94527  0.18629  0.21572  1.0000
  F   F78       1.0  0.96694  0.18849  0.71974  1.0000
  F   F79       1.0  0.93735  0.69900  0.22554  1.0000
  F   F80       1.0  0.94945  0.70079  0.70861  1.0000
  F   F81       1.0  0.15084  0.10187  0.04706  1.0000
  F   F82       1.0  0.15527  0.08599  0.53653  1.0000
  F   F83       1.0  0.14253  0.59521  0.04386  1.0000
  F   F84       1.0  0.14635  0.58989  0.53373  1.0000
  F   F85       1.0  0.40254  0.08633  0.03147  1.0000
  F   F86       1.0  0.39247  0.10526  0.52750  1.0000
  F   F87       1.0  0.39054  0.61304  0.04123  1.0000
  F   F88       1.0  0.39656  0.58849  0.53772  1.0000
  F   F89       1.0  0.64354  0.09074  0.04329  1.0000
  F   F90       1.0  0.64943  0.08096  0.52903  1.0000
  F   F91       1.0  0.65402  0.57934  0.03717  1.0000
  F   F92       1.0  0.65849  0.57616  0.53334  1.0000
  F   F93       1.0  0.89488  0.08008  0.03549  1.0000
  F   F94       1.0  0.89684  0.09774  0.54473  1.0000
  F   F95       1.0  0.90339  0.57696  0.05314  1.0000
  F   F96       1.0  0.89452  0.57243  0.55764  1.0000
  F   F97       1.0  0.15092  0.20822  0.13228  1.0000
  F   F98       1.0  0.15105  0.20292  0.61223  1.0000
  F   F99       1.0  0.14781  0.69898  0.13539  1.0000
  F   F100      1.0  0.14943  0.69090  0.62837  1.0000
  F   F101      1.0  0.40184  0.19324  0.11019  1.0000
  F   F102      1.0  0.40243  0.19232  0.63671  1.0000
  F   F103      1.0  0.39355  0.70029  0.14365  1.0000
  F   F104      1.0  0.39803  0.69396  0.62690  1.0000
  F   F105      1.0  0.65049  0.19852  0.11642  1.0000
  F   F106      1.0  0.65592  0.18684  0.62466  1.0000
  F   F107      1.0  0.65276  0.69948  0.10537  1.0000
  F   F108      1.0  0.64895  0.69648  0.62104  1.0000
  F   F109      1.0  0.89673  0.20438  0.11523  1.0000
  F   F110      1.0  0.90599  0.19829  0.62732  1.0000
  F   F111      1.0  0.90348  0.69099  0.10779  1.0000
  F   F112      1.0  0.90080  0.69474  0.61673  1.0000
  F   F113      1.0  0.09756  0.30501  0.38255  1.0000
  F   F114      1.0  0.09913  0.28456  0.86183  1.0000
  F   F115      1.0  0.10050  0.80411  0.37343  1.0000
  F   F116      1.0  0.09340  0.81415  0.88502  1.0000
  F   F117      1.0  0.34382  0.31776  0.38780  1.0000
  F   F118      1.0  0.35114  0.31486  0.86362  1.0000
  F   F119      1.0  0.35254  0.80495  0.36610  1.0000
  F   F120      1.0  0.34910  0.80135  0.86859  1.0000
  F   F121      1.0  0.59682  0.30617  0.38861  1.0000
  F   F122      1.0  0.59965  0.30627  0.86817  1.0000
  F   F123      1.0  0.59057  0.80263  0.34646  1.0000
  F   F124      1.0  0.59130  0.80874  0.88080  1.0000
  F   F125      1.0  0.85182  0.30098  0.37446  1.0000
  F   F126      1.0  0.84076  0.30516  0.87866  1.0000
  F   F127      1.0  0.84343  0.81061  0.36530  1.0000
  F   F128      1.0  0.85062  0.79384  0.89074  1.0000
  F   F129      1.0  0.06523  0.24745  0.15024  1.0000
  F   F130      1.0  0.06715  0.24821  0.64647  1.0000
  F   F131      1.0  0.07044  0.75803  0.12689  1.0000
  F   F132      1.0  0.06612  0.74171  0.64989  1.0000
  F   F133      1.0  0.30783  0.25154  0.14602  1.0000
  F   F134      1.0  0.31880  0.24943  0.63372  1.0000
  F   F135      1.0  0.31236  0.74940  0.15851  1.0000
  F   F136      1.0  0.31790  0.75320  0.63942  1.0000
  F   F137      1.0  0.56036  0.24715  0.14520  1.0000
  F   F138      1.0  0.57981  0.26304  0.61768  1.0000
  F   F139      1.0  0.57094  0.75372  0.13381  1.0000
  F   F140      1.0  0.55856  0.74364  0.65601  1.0000
  F   F141      1.0  0.80427  0.24350  0.16999  1.0000
  F   F142      1.0  0.82385  0.24572  0.63607  1.0000
  F   F143      1.0  0.81523  0.76043  0.12648  1.0000
  F   F144      1.0  0.81294  0.75369  0.65095  1.0000
  F   F145      1.0  0.13000  0.38508  0.09411  1.0000
  F   F146      1.0  0.12035  0.36915  0.62706  1.0000
  F   F147      1.0  0.12438  0.88901  0.09850  1.0000
  F   F148      1.0  0.12645  0.86857  0.60380  1.0000
  F   F149      1.0  0.37186  0.35850  0.11573  1.0000
  F   F150      1.0  0.37587  0.35860  0.63165  1.0000
  F   F151      1.0  0.37522  0.89518  0.08927  1.0000
  F   F152      1.0  0.37353  0.88389  0.60100  1.0000
  F   F153      1.0  0.61989  0.36948  0.11678  1.0000
  F   F154      1.0  0.62749  0.38092  0.59879  1.0000
  F   F155      1.0  0.62170  0.88222  0.09924  1.0000
  F   F156      1.0  0.62172  0.85959  0.61012  1.0000
  F   F157      1.0  0.87091  0.36694  0.12431  1.0000
  F   F158      1.0  0.87709  0.39151  0.59147  1.0000
  F   F159      1.0  0.87528  0.86785  0.11530  1.0000
  F   F160      1.0  0.87726  0.87490  0.59704  1.0000
  F   F161      1.0  0.18924  0.24260  0.35581  1.0000
  F   F162      1.0  0.18188  0.25776  0.85117  1.0000
  F   F163      1.0  0.18851  0.75130  0.34820  1.0000
  F   F164      1.0  0.18711  0.74890  0.85770  1.0000
  F   F165      1.0  0.43378  0.25380  0.35919  1.0000
  F   F166      1.0  0.43594  0.26163  0.84554  1.0000
  F   F167      1.0  0.44049  0.75595  0.35362  1.0000
  F   F168      1.0  0.43894  0.75198  0.85541  1.0000
  F   F169      1.0  0.69035  0.25221  0.34960  1.0000
  F   F170      1.0  0.68114  0.24390  0.87616  1.0000
  F   F171      1.0  0.68621  0.74163  0.36289  1.0000
  F   F172      1.0  0.68284  0.74932  0.85359  1.0000
  F   F173      1.0  0.93663  0.24628  0.35701  1.0000
  F   F174      1.0  0.92897  0.24623  0.87875  1.0000
  F   F175      1.0  0.91919  0.73643  0.38790  1.0000
  F   F176      1.0  0.93515  0.74081  0.86688  1.0000
  F   F177      1.0  0.12741  0.12669  0.38662  1.0000
  F   F178      1.0  0.12809  0.11666  0.91242  1.0000
  F   F179      1.0  0.12826  0.64251  0.37351  1.0000
  F   F180      1.0  0.12877  0.65846  0.87332  1.0000
  F   F181      1.0  0.37324  0.15494  0.37301  1.0000
  F   F182      1.0  0.37786  0.13545  0.88410  1.0000
  F   F183      1.0  0.37584  0.64922  0.37193  1.0000
  F   F184      1.0  0.37392  0.63085  0.89775  1.0000
  F   F185      1.0  0.62516  0.13185  0.39066  1.0000
  F   F186      1.0  0.63241  0.14033  0.87982  1.0000
  F   F187      1.0  0.62637  0.63005  0.38917  1.0000
  F   F188      1.0  0.62400  0.64040  0.88954  1.0000
  F   F189      1.0  0.87651  0.12152  0.39909  1.0000
  F   F190      1.0  0.88148  0.16437  0.86165  1.0000
  F   F191      1.0  0.86764  0.59431  0.41957  1.0000
  F   F192      1.0  0.87686  0.60907  0.90600  1.0000
  F   F193      1.0  0.00975  0.34314  0.07403  1.0000
  F   F194      1.0  0.00542  0.35738  0.57695  1.0000
  F   F195      1.0  0.00522  0.85038  0.08189  1.0000
  F   F196      1.0  0.00557  0.84150  0.58714  1.0000
  F   F197      1.0  0.25956  0.36962  0.06922  1.0000
  F   F198      1.0  0.25686  0.37151  0.58714  1.0000
  F   F199      1.0  0.26423  0.85905  0.06681  1.0000
  F   F200      1.0  0.26098  0.86652  0.55964  1.0000
  F   F201      1.0  0.50354  0.36483  0.08077  1.0000
  F   F202      1.0  0.51091  0.36232  0.57817  1.0000
  F   F203      1.0  0.51160  0.85514  0.07532  1.0000
  F   F204      1.0  0.50602  0.86602  0.57223  1.0000
  F   F205      1.0  0.75314  0.35907  0.08208  1.0000
  F   F206      1.0  0.75729  0.35769  0.58850  1.0000
  F   F207      1.0  0.76046  0.85920  0.06833  1.0000
  F   F208      1.0  0.75971  0.86625  0.56268  1.0000
  F   F209      1.0  0.07251  0.48005  0.17726  1.0000
  F   F210      1.0  0.06147  0.48365  0.69251  1.0000
  F   F211      1.0  0.06659  0.99579  0.18137  1.0000
  F   F212      1.0  0.07093  0.97953  0.66786  1.0000
  F   F213      1.0  0.32123  0.48681  0.16698  1.0000
  F   F214      1.0  0.32371  0.49372  0.66027  1.0000
  F   F215      1.0  0.31129  0.99091  0.17939  1.0000
  F   F216      1.0  0.31543  0.98374  0.69164  1.0000
  F   F217      1.0  0.56746  0.48362  0.18834  1.0000
  F   F218      1.0  0.56883  0.49698  0.66614  1.0000
  F   F219      1.0  0.56661  0.98460  0.17532  1.0000
  F   F220      1.0  0.57472  0.99294  0.65423  1.0000
  F   F221      1.0  0.80815  0.47518  0.18908  1.0000
  F   F222      1.0  0.81247  0.49153  0.67344  1.0000
  F   F223      1.0  0.81980  0.98281  0.17654  1.0000
  F   F224      1.0  0.80857  0.97304  0.68880  1.0000
  F   F225      1.0  0.24008  0.13487  0.44121  1.0000
  F   F226      1.0  0.24081  0.15005  0.91416  1.0000
  F   F227      1.0  0.24117  0.63838  0.43139  1.0000
  F   F228      1.0  0.24198  0.64882  0.92530  1.0000
  F   F229      1.0  0.48951  0.14727  0.43377  1.0000
  F   F230      1.0  0.49178  0.14725  0.92454  1.0000
  F   F231      1.0  0.49094  0.63963  0.42774  1.0000
  F   F232      1.0  0.48898  0.63550  0.93819  1.0000
  F   F233      1.0  0.74647  0.11540  0.41963  1.0000
  F   F234      1.0  0.74429  0.14119  0.92351  1.0000
  F   F235      1.0  0.74307  0.64157  0.42054  1.0000
  F   F236      1.0  0.74078  0.64228  0.92935  1.0000
  F   F237      1.0  0.98848  0.13817  0.43386  1.0000
  F   F238      1.0  0.98976  0.13647  0.92456  1.0000
  F   F239      1.0  0.98834  0.64061  0.42131  1.0000
  F   F240      1.0  0.99299  0.61751  0.95327  1.0000
  F   F241      1.0  0.18544  0.01579  0.30625  1.0000
  F   F242      1.0  0.18295  0.99874  0.82110  1.0000
  F   F243      1.0  0.17254  0.51727  0.34573  1.0000
  F   F244      1.0  0.17188  0.51831  0.83937  1.0000
  F   F245      1.0  0.42967  0.01945  0.33112  1.0000
  F   F246      1.0  0.43609  0.01067  0.82655  1.0000
  F   F247      1.0  0.42795  0.52111  0.33467  1.0000
  F   F248      1.0  0.42278  0.52883  0.83091  1.0000
  F   F249      1.0  0.67975  0.01100  0.31840  1.0000
  F   F250      1.0  0.69123  0.03454  0.79674  1.0000
  F   F251      1.0  0.68386  0.50647  0.32746  1.0000
  F   F252      1.0  0.68076  0.52148  0.82269  1.0000
  F   F253      1.0  0.93140  0.01194  0.33468  1.0000
  F   F254      1.0  0.92983  0.01469  0.82396  1.0000
  F   F255      1.0  0.93615  0.51629  0.31041  1.0000
  F   F256      1.0  0.93222  0.51162  0.82658  1.0000
  F   F257      1.0  0.99537  0.22950  0.00742  1.0000
  F   F258      1.0  0.00177  0.24553  0.50783  1.0000
  F   F259      1.0  0.99843  0.75620  0.99564  1.0000
  F   F260      1.0  0.00222  0.73362  0.49730  1.0000
  F   F261      1.0  0.25532  0.24293  0.00819  1.0000
  F   F262      1.0  0.24973  0.25844  0.50078  1.0000
  F   F263      1.0  0.25004  0.75879  0.98801  1.0000
  F   F264      1.0  0.24516  0.73294  0.51473  1.0000
  F   F265      1.0  0.49857  0.26634  0.98792  1.0000
  F   F266      1.0  0.49889  0.24374  0.51251  1.0000
  F   F267      1.0  0.49898  0.74451  0.01013  1.0000
  F   F268      1.0  0.50522  0.75784  0.49755  1.0000
  F   F269      1.0  0.75190  0.24699  0.00638  1.0000
  F   F270      1.0  0.75548  0.25980  0.49163  1.0000
  F   F271      1.0  0.75254  0.75471  0.99460  1.0000
  F   F272      1.0  0.75056  0.75942  0.48376  1.0000
  F   F273      1.0  0.11948  0.99246  0.26534  1.0000
  F   F274      1.0  0.12241  0.98754  0.74949  1.0000
  F   F275      1.0  0.12642  0.49989  0.25765  1.0000
  F   F276      1.0  0.12429  0.49541  0.75046  1.0000
  F   F277      1.0  0.37729  0.99568  0.24694  1.0000
  F   F278      1.0  0.38896  0.01583  0.72567  1.0000
  F   F279      1.0  0.37606  0.50634  0.24833  1.0000
  F   F280      1.0  0.38063  0.51062  0.73259  1.0000
  F   F281      1.0  0.62604  0.99651  0.24124  1.0000
  F   F282      1.0  0.62503  0.00051  0.75037  1.0000
  F   F283      1.0  0.63063  0.50258  0.24844  1.0000
  F   F284      1.0  0.62270  0.49091  0.75792  1.0000
  F   F285      1.0  0.87679  0.99264  0.26027  1.0000
  F   F286      1.0  0.87817  0.99493  0.73708  1.0000
  F   F287      1.0  0.86435  0.48087  0.26067  1.0000
  F   F288      1.0  0.87301  0.49492  0.74718  1.0000
  F   F289      1.0  0.03613  0.03449  0.03960  1.0000
  F   F290      1.0  0.04439  0.03028  0.51604  1.0000
  F   F291      1.0  0.05899  0.51230  0.01728  1.0000
  F   F292      1.0  0.04823  0.52870  0.51656  1.0000
  F   F293      1.0  0.29677  0.04007  0.00576  1.0000
  F   F294      1.0  0.30365  0.03118  0.51546  1.0000
  F   F295      1.0  0.28862  0.53345  0.02691  1.0000
  F   F296      1.0  0.28766  0.53609  0.53740  1.0000
  F   F297      1.0  0.54467  0.04391  0.00595  1.0000
  F   F298      1.0  0.54946  0.03620  0.51213  1.0000
  F   F299      1.0  0.54472  0.53046  0.02616  1.0000
  F   F300      1.0  0.54213  0.54108  0.52578  1.0000
  F   F301      1.0  0.79991  0.03973  0.02262  1.0000
  F   F302      1.0  0.79287  0.02488  0.51595  1.0000
  F   F303      1.0  0.79093  0.52395  0.02712  1.0000
  F   F304      1.0  0.78184  0.54382  0.53703  1.0000
  F   F305      1.0  0.23346  0.42517  0.22138  1.0000
  F   F306      1.0  0.23783  0.43809  0.72274  1.0000
  F   F307      1.0  0.23324  0.90992  0.22271  1.0000
  F   F308      1.0  0.23918  0.89940  0.73091  1.0000
  F   F309      1.0  0.47751  0.41901  0.23946  1.0000
  F   F310      1.0  0.48400  0.41689  0.73488  1.0000
  F   F311      1.0  0.47992  0.93396  0.21567  1.0000
  F   F312      1.0  0.48394  0.91663  0.72672  1.0000
  F   F313      1.0  0.72954  0.41029  0.22310  1.0000
  F   F314      1.0  0.73606  0.42898  0.72002  1.0000
  F   F315      1.0  0.73471  0.91624  0.22603  1.0000
  F   F316      1.0  0.73309  0.91945  0.70817  1.0000
  F   F317      1.0  0.98749  0.40989  0.21916  1.0000
  F   F318      1.0  0.97904  0.42569  0.71353  1.0000
  F   F319      1.0  0.98334  0.91331  0.23482  1.0000
  F   F320      1.0  0.98056  0.90913  0.73094  1.0000
  F   F321      1.0  0.20672  0.46328  0.49006  1.0000
  F   F322      1.0  0.20655  0.48079  0.97853  1.0000
  F   F323      1.0  0.20753  0.97057  0.47242  1.0000
  F   F324      1.0  0.21272  0.97078  0.96197  1.0000
  F   F325      1.0  0.46365  0.46610  0.47190  1.0000
  F   F326      1.0  0.45275  0.47461  0.98801  1.0000
  F   F327      1.0  0.44935  0.98395  0.50076  1.0000
  F   F328      1.0  0.46574  0.95198  0.96724  1.0000
  F   F329      1.0  0.71349  0.46018  0.46798  1.0000
  F   F330      1.0  0.70215  0.46638  0.97962  1.0000
  F   F331      1.0  0.70417  0.95863  0.48312  1.0000
  F   F332      1.0  0.70587  0.97718  0.97751  1.0000
  F   F333      1.0  0.96345  0.46568  0.45872  1.0000
  F   F334      1.0  0.96045  0.46826  0.97543  1.0000
  F   F335      1.0  0.96017  0.97688  0.48248  1.0000
  F   F336      1.0  0.96008  0.96567  0.97153  1.0000
  F   F337      1.0  0.01118  0.09022  0.28237  1.0000
  F   F338      1.0  0.02341  0.07452  0.77425  1.0000
  F   F339      1.0  0.00896  0.60814  0.26198  1.0000
  F   F340      1.0  0.00911  0.60257  0.77887  1.0000
  F   F341      1.0  0.26129  0.08213  0.28848  1.0000
  F   F342      1.0  0.26404  0.09709  0.76378  1.0000
  F   F343      1.0  0.26043  0.56659  0.28272  1.0000
  F   F344      1.0  0.26176  0.59087  0.76595  1.0000
  F   F345      1.0  0.51387  0.09051  0.28507  1.0000
  F   F346      1.0  0.52136  0.08549  0.77552  1.0000
  F   F347      1.0  0.51317  0.59440  0.28009  1.0000
  F   F348      1.0  0.51456  0.58467  0.77972  1.0000
  F   F349      1.0  0.76751  0.06622  0.27364  1.0000
  F   F350      1.0  0.76714  0.09861  0.76829  1.0000
  F   F351      1.0  0.76665  0.59041  0.27217  1.0000
  F   F352      1.0  0.76708  0.58611  0.77823  1.0000
  F   F353      1.0  0.10145  0.39407  0.47486  1.0000
  F   F354      1.0  0.10050  0.39276  0.95541  1.0000
  F   F355      1.0  0.09871  0.90634  0.46395  1.0000
  F   F356      1.0  0.08998  0.92279  0.97262  1.0000
  F   F357      1.0  0.35092  0.42651  0.46847  1.0000
  F   F358      1.0  0.35232  0.41353  0.96169  1.0000
  F   F359      1.0  0.35759  0.90465  0.45280  1.0000
  F   F360      1.0  0.35192  0.89942  0.94519  1.0000
  F   F361      1.0  0.59991  0.43182  0.44633  1.0000
  F   F362      1.0  0.60351  0.39239  0.97197  1.0000
  F   F363      1.0  0.59799  0.88392  0.46570  1.0000
  F   F364      1.0  0.60960  0.90835  0.94680  1.0000
  F   F365      1.0  0.85144  0.40235  0.46358  1.0000
  F   F366      1.0  0.85077  0.39648  0.97492  1.0000
  F   F367      1.0  0.85095  0.89333  0.46726  1.0000
  F   F368      1.0  0.84805  0.91532  0.95531  1.0000
  F   F369      1.0  0.04794  0.30275  0.29205  1.0000
  F   F370      1.0  0.04148  0.29806  0.78696  1.0000
  F   F371      1.0  0.04535  0.80535  0.29301  1.0000
  F   F372      1.0  0.04364  0.79488  0.79698  1.0000
  F   F373      1.0  0.29450  0.31798  0.28482  1.0000
  F   F374      1.0  0.29335  0.30261  0.78164  1.0000
  F   F375      1.0  0.29327  0.80768  0.29464  1.0000
  F   F376      1.0  0.30087  0.79945  0.77889  1.0000
  F   F377      1.0  0.55364  0.30769  0.28582  1.0000
  F   F378      1.0  0.54997  0.30938  0.77118  1.0000
  F   F379      1.0  0.53781  0.79808  0.27280  1.0000
  F   F380      1.0  0.53968  0.80404  0.78192  1.0000
  F   F381      1.0  0.79422  0.29956  0.29729  1.0000
  F   F382      1.0  0.79154  0.29860  0.77066  1.0000
  F   F383      1.0  0.79624  0.79835  0.28073  1.0000
  F   F384      1.0  0.80509  0.79364  0.79162  1.0000
