data_image0
_chemical_formula_structural       Hf96F384
_chemical_formula_sum              "Hf96 F384"
_cell_length_a       31.0271
_cell_length_b       15.5115
_cell_length_c       15.5069
_cell_angle_alpha    63.342
_cell_angle_beta     63.342
_cell_angle_gamma    80.1625

_space_group_name_H-M_alt    "P 1"
_space_group_IT_number       1

loop_
  _space_group_symop_operation_xyz
  'x, y, z'

loop_
  _atom_site_type_symbol
  _atom_site_label
  _atom_site_symmetry_multiplicity
  _atom_site_fract_x
  _atom_site_fract_y
  _atom_site_fract_z
  _atom_site_occupancy
  Hf  Hf1       1.0  0.19644  0.10432  0.38121  1.0000
  Hf  Hf2       1.0  0.19548  0.11140  0.87205  1.0000
  Hf  Hf3       1.0  0.19692  0.60968  0.37512  1.0000
  Hf  Hf4       1.0  0.19491  0.60314  0.87309  1.0000
  Hf  Hf5       1.0  0.44852  0.11471  0.36566  1.0000
  Hf  Hf6       1.0  0.45141  0.11179  0.85655  1.0000
  Hf  Hf7       1.0  0.44417  0.61201  0.37805  1.0000
  Hf  Hf8       1.0  0.44572  0.60980  0.87279  1.0000
  Hf  Hf9       1.0  0.69812  0.11429  0.36276  1.0000
  Hf  Hf10      1.0  0.69475  0.10856  0.87587  1.0000
  Hf  Hf11      1.0  0.70203  0.61703  0.35895  1.0000
  Hf  Hf12      1.0  0.69462  0.60676  0.87775  1.0000
  Hf  Hf13      1.0  0.94713  0.10007  0.37917  1.0000
  Hf  Hf14      1.0  0.94734  0.10588  0.87304  1.0000
  Hf  Hf15      1.0  0.94592  0.60892  0.37292  1.0000
  Hf  Hf16      1.0  0.94364  0.59871  0.88806  1.0000
  Hf  Hf17      1.0  0.05237  0.38695  0.12822  1.0000
  Hf  Hf18      1.0  0.05140  0.38314  0.63614  1.0000
  Hf  Hf19      1.0  0.05228  0.88989  0.12304  1.0000
  Hf  Hf20      1.0  0.04985  0.89587  0.63160  1.0000
  Hf  Hf21      1.0  0.30118  0.39262  0.13501  1.0000
  Hf  Hf22      1.0  0.30295  0.39758  0.62684  1.0000
  Hf  Hf23      1.0  0.30132  0.89009  0.12910  1.0000
  Hf  Hf24      1.0  0.30420  0.89367  0.62454  1.0000
  Hf  Hf25      1.0  0.54938  0.38877  0.13977  1.0000
  Hf  Hf26      1.0  0.55550  0.39693  0.62704  1.0000
  Hf  Hf27      1.0  0.55461  0.90265  0.11389  1.0000
  Hf  Hf28      1.0  0.55444  0.89447  0.62086  1.0000
  Hf  Hf29      1.0  0.80411  0.38629  0.13442  1.0000
  Hf  Hf30      1.0  0.80071  0.39067  0.63776  1.0000
  Hf  Hf31      1.0  0.80735  0.89660  0.12140  1.0000
  Hf  Hf32      1.0  0.80556  0.89694  0.62059  1.0000
  Hf  Hf33      1.0  0.05677  0.17915  0.41904  1.0000
  Hf  Hf34      1.0  0.05503  0.17594  0.91890  1.0000
  Hf  Hf35      1.0  0.05609  0.68080  0.41634  1.0000
  Hf  Hf36      1.0  0.05528  0.67940  0.91289  1.0000
  Hf  Hf37      1.0  0.30736  0.18526  0.41902  1.0000
  Hf  Hf38      1.0  0.30576  0.18234  0.91771  1.0000
  Hf  Hf39      1.0  0.30688  0.68089  0.41847  1.0000
  Hf  Hf40      1.0  0.30436  0.68352  0.91879  1.0000
  Hf  Hf41      1.0  0.55935  0.18784  0.41433  1.0000
  Hf  Hf42      1.0  0.55201  0.18199  0.91683  1.0000
  Hf  Hf43      1.0  0.55726  0.68814  0.40439  1.0000
  Hf  Hf44      1.0  0.55618  0.69077  0.91508  1.0000
  Hf  Hf45      1.0  0.80206  0.17700  0.42053  1.0000
  Hf  Hf46      1.0  0.80733  0.17814  0.91850  1.0000
  Hf  Hf47      1.0  0.80419  0.67610  0.42499  1.0000
  Hf  Hf48      1.0  0.80619  0.67449  0.91469  1.0000
  Hf  Hf49      1.0  0.15808  0.39022  0.33770  1.0000
  Hf  Hf50      1.0  0.15898  0.38943  0.83296  1.0000
  Hf  Hf51      1.0  0.15734  0.88520  0.33882  1.0000
  Hf  Hf52      1.0  0.15976  0.87406  0.84413  1.0000
  Hf  Hf53      1.0  0.40947  0.39050  0.33686  1.0000
  Hf  Hf54      1.0  0.41131  0.38600  0.83210  1.0000
  Hf  Hf55      1.0  0.41081  0.89125  0.32915  1.0000
  Hf  Hf56      1.0  0.40325  0.88037  0.84589  1.0000
  Hf  Hf57      1.0  0.66016  0.39865  0.32477  1.0000
  Hf  Hf58      1.0  0.65049  0.38713  0.83600  1.0000
  Hf  Hf59      1.0  0.66222  0.89417  0.32752  1.0000
  Hf  Hf60      1.0  0.66032  0.88980  0.83268  1.0000
  Hf  Hf61      1.0  0.90727  0.38210  0.32985  1.0000
  Hf  Hf62      1.0  0.90997  0.38856  0.83545  1.0000
  Hf  Hf63      1.0  0.90829  0.88573  0.32975  1.0000
  Hf  Hf64      1.0  0.90920  0.88876  0.82925  1.0000
  Hf  Hf65      1.0  0.19204  0.31682  0.08624  1.0000
  Hf  Hf66      1.0  0.19356  0.31415  0.58868  1.0000
  Hf  Hf67      1.0  0.19160  0.81609  0.08613  1.0000
  Hf  Hf68      1.0  0.19313  0.82098  0.58119  1.0000
  Hf  Hf69      1.0  0.44268  0.31298  0.08876  1.0000
  Hf  Hf70      1.0  0.44113  0.31438  0.59126  1.0000
  Hf  Hf71      1.0  0.44360  0.82077  0.08272  1.0000
  Hf  Hf72      1.0  0.44268  0.81703  0.58746  1.0000
  Hf  Hf73      1.0  0.69566  0.32272  0.07460  1.0000
  Hf  Hf74      1.0  0.69784  0.32810  0.57392  1.0000
  Hf  Hf75      1.0  0.69999  0.82774  0.07433  1.0000
  Hf  Hf76      1.0  0.69224  0.80921  0.58685  1.0000
  Hf  Hf77      1.0  0.94525  0.31377  0.08516  1.0000
  Hf  Hf78      1.0  0.94466  0.31833  0.57965  1.0000
  Hf  Hf79      1.0  0.94508  0.81531  0.08017  1.0000
  Hf  Hf80      1.0  0.94503  0.80916  0.58423  1.0000
  Hf  Hf81      1.0  0.09345  0.11226  0.16538  1.0000
  Hf  Hf82      1.0  0.08911  0.10567  0.66810  1.0000
  Hf  Hf83      1.0  0.08801  0.60957  0.17281  1.0000
  Hf  Hf84      1.0  0.08780  0.61202  0.67314  1.0000
  Hf  Hf85      1.0  0.34211  0.11117  0.16745  1.0000
  Hf  Hf86      1.0  0.34444  0.11228  0.66223  1.0000
  Hf  Hf87      1.0  0.34201  0.60971  0.16565  1.0000
  Hf  Hf88      1.0  0.34342  0.61603  0.67055  1.0000
  Hf  Hf89      1.0  0.59138  0.11423  0.16062  1.0000
  Hf  Hf90      1.0  0.59518  0.11822  0.66688  1.0000
  Hf  Hf91      1.0  0.58936  0.61749  0.16653  1.0000
  Hf  Hf92      1.0  0.59149  0.61221  0.66366  1.0000
  Hf  Hf93      1.0  0.83971  0.11787  0.16985  1.0000
  Hf  Hf94      1.0  0.84615  0.11557  0.65429  1.0000
  Hf  Hf95      1.0  0.84417  0.61445  0.16317  1.0000
  Hf  Hf96      1.0  0.84071  0.61436  0.66392  1.0000
  F   F1        1.0  0.08300  0.12687  0.29847  1.0000
  F   F2        1.0  0.07531  0.10129  0.82465  1.0000
  F   F3        1.0  0.07633  0.62575  0.30515  1.0000
  F   F4        1.0  0.08219  0.61764  0.81026  1.0000
  F   F5        1.0  0.32408  0.13720  0.30572  1.0000
  F   F6        1.0  0.33010  0.14158  0.80255  1.0000
  F   F7        1.0  0.33231  0.63860  0.29880  1.0000
  F   F8        1.0  0.33328  0.63160  0.80290  1.0000
  F   F9        1.0  0.58818  0.14559  0.28401  1.0000
  F   F10       1.0  0.57380  0.10455  0.82113  1.0000
  F   F11       1.0  0.57555  0.60696  0.31889  1.0000
  F   F12       1.0  0.58208  0.63279  0.80588  1.0000
  F   F13       1.0  0.82717  0.13334  0.30172  1.0000
  F   F14       1.0  0.83608  0.13609  0.79076  1.0000
  F   F15       1.0  0.82687  0.62031  0.31000  1.0000
  F   F16       1.0  0.83039  0.63114  0.79618  1.0000
  F   F17       1.0  0.19435  0.34613  0.44287  1.0000
  F   F18       1.0  0.17886  0.34465  0.96013  1.0000
  F   F19       1.0  0.18419  0.83594  0.45833  1.0000
  F   F20       1.0  0.18864  0.84076  0.94623  1.0000
  F   F21       1.0  0.43584  0.32656  0.45622  1.0000
  F   F22       1.0  0.44057  0.34620  0.94830  1.0000
  F   F23       1.0  0.43832  0.84427  0.43707  1.0000
  F   F24       1.0  0.43154  0.83702  0.95650  1.0000
  F   F25       1.0  0.68181  0.32983  0.45141  1.0000
  F   F26       1.0  0.68719  0.35456  0.92704  1.0000
  F   F27       1.0  0.69284  0.84993  0.43356  1.0000
  F   F28       1.0  0.68849  0.83796  0.94337  1.0000
  F   F29       1.0  0.93244  0.33626  0.44616  1.0000
  F   F30       1.0  0.93862  0.33787  0.94173  1.0000
  F   F31       1.0  0.93554  0.82832  0.44090  1.0000
  F   F32       1.0  0.92864  0.83191  0.94973  1.0000
  F   F33       1.0  0.16805  0.36473  0.20051  1.0000
  F   F34       1.0  0.17161  0.36912  0.69435  1.0000
  F   F35       1.0  0.16507  0.86340  0.19810  1.0000
  F   F36       1.0  0.16861  0.86956  0.70543  1.0000
  F   F37       1.0  0.42054  0.37599  0.20043  1.0000
  F   F38       1.0  0.41701  0.36627  0.70443  1.0000
  F   F39       1.0  0.42164  0.87288  0.19774  1.0000
  F   F40       1.0  0.40683  0.84875  0.72373  1.0000
  F   F41       1.0  0.67577  0.37944  0.18542  1.0000
  F   F42       1.0  0.67146  0.37398  0.69161  1.0000
  F   F43       1.0  0.67448  0.87668  0.18616  1.0000
  F   F44       1.0  0.67196  0.86759  0.70162  1.0000
  F   F45       1.0  0.92056  0.37949  0.18479  1.0000
  F   F46       1.0  0.91834  0.36924  0.69504  1.0000
  F   F47       1.0  0.91468  0.87256  0.19777  1.0000
  F   F48       1.0  0.92264  0.87041  0.69681  1.0000
  F   F49       1.0  0.06741  0.15698  0.05294  1.0000
  F   F50       1.0  0.06330  0.16282  0.55365  1.0000
  F   F51       1.0  0.06258  0.64904  0.05562  1.0000
  F   F52       1.0  0.06559  0.64792  0.55495  1.0000
  F   F53       1.0  0.31375  0.15887  0.05363  1.0000
  F   F54       1.0  0.30967  0.15240  0.55316  1.0000
  F   F55       1.0  0.31156  0.65571  0.05704  1.0000
  F   F56       1.0  0.31423  0.65687  0.56243  1.0000
  F   F57       1.0  0.56714  0.16131  0.04614  1.0000
  F   F58       1.0  0.56610  0.15666  0.55050  1.0000
  F   F59       1.0  0.56002  0.64976  0.05544  1.0000
  F   F60       1.0  0.56911  0.65319  0.55151  1.0000
  F   F61       1.0  0.81548  0.14534  0.06257  1.0000
  F   F62       1.0  0.81442  0.15850  0.55269  1.0000
  F   F63       1.0  0.81966  0.65402  0.04087  1.0000
  F   F64       1.0  0.80180  0.65061  0.57335  1.0000
  F   F65       1.0  0.20308  0.20091  0.20094  1.0000
  F   F66       1.0  0.20955  0.19042  0.71225  1.0000
  F   F67       1.0  0.20458  0.69750  0.21128  1.0000
  F   F68       1.0  0.20777  0.70085  0.70489  1.0000
  F   F69       1.0  0.45397  0.19622  0.20539  1.0000
  F   F70       1.0  0.46256  0.20331  0.70664  1.0000
  F   F71       1.0  0.45126  0.69941  0.21686  1.0000
  F   F72       1.0  0.45384  0.70604  0.71631  1.0000
  F   F73       1.0  0.70540  0.19665  0.18850  1.0000
  F   F74       1.0  0.71270  0.21224  0.70773  1.0000
  F   F75       1.0  0.70653  0.69858  0.21094  1.0000
  F   F76       1.0  0.70583  0.70141  0.70437  1.0000
  F   F77       1.0  0.95387  0.21477  0.21332  1.0000
  F   F78       1.0  0.95267  0.19142  0.71889  1.0000
  F   F79       1.0  0.95819  0.71325  0.20016  1.0000
  F   F80       1.0  0.95580  0.70777  0.70281  1.0000
  F   F81       1.0  0.15085  0.09622  0.03619  1.0000
  F   F82       1.0  0.15041  0.07568  0.55418  1.0000
  F   F83       1.0  0.14803  0.59429  0.04396  1.0000
  F   F84       1.0  0.14895  0.59268  0.53223  1.0000
  F   F85       1.0  0.39485  0.09451  0.04750  1.0000
  F   F86       1.0  0.39686  0.09814  0.53611  1.0000
  F   F87       1.0  0.39594  0.58834  0.03540  1.0000
  F   F88       1.0  0.39957  0.60799  0.54127  1.0000
  F   F89       1.0  0.64722  0.08553  0.02563  1.0000
  F   F90       1.0  0.64603  0.10395  0.54746  1.0000
  F   F91       1.0  0.64694  0.59123  0.04281  1.0000
  F   F92       1.0  0.65061  0.58341  0.52769  1.0000
  F   F93       1.0  0.89775  0.08600  0.05466  1.0000
  F   F94       1.0  0.90311  0.08740  0.52973  1.0000
  F   F95       1.0  0.90306  0.58356  0.04050  1.0000
  F   F96       1.0  0.89670  0.60286  0.53487  1.0000
  F   F97       1.0  0.15227  0.19972  0.11515  1.0000
  F   F98       1.0  0.14883  0.20091  0.63055  1.0000
  F   F99       1.0  0.14974  0.70082  0.12608  1.0000
  F   F100      1.0  0.14749  0.70322  0.63521  1.0000
  F   F101      1.0  0.39695  0.19228  0.14159  1.0000
  F   F102      1.0  0.40694  0.18520  0.62963  1.0000
  F   F103      1.0  0.40288  0.68357  0.13316  1.0000
  F   F104      1.0  0.40048  0.70963  0.62458  1.0000
  F   F105      1.0  0.64823  0.20390  0.09652  1.0000
  F   F106      1.0  0.65805  0.20409  0.62169  1.0000
  F   F107      1.0  0.65040  0.68849  0.14111  1.0000
  F   F108      1.0  0.65429  0.68222  0.61454  1.0000
  F   F109      1.0  0.90391  0.20022  0.11027  1.0000
  F   F110      1.0  0.91056  0.19015  0.60727  1.0000
  F   F111      1.0  0.90503  0.68688  0.13142  1.0000
  F   F112      1.0  0.90528  0.68979  0.62470  1.0000
  F   F113      1.0  0.09452  0.30219  0.36416  1.0000
  F   F114      1.0  0.10220  0.29971  0.87135  1.0000
  F   F115      1.0  0.09767  0.80940  0.37291  1.0000
  F   F116      1.0  0.09826  0.79148  0.86029  1.0000
  F   F117      1.0  0.34983  0.31131  0.38030  1.0000
  F   F118      1.0  0.34243  0.29543  0.88255  1.0000
  F   F119      1.0  0.34939  0.80237  0.37580  1.0000
  F   F120      1.0  0.33930  0.81650  0.89276  1.0000
  F   F121      1.0  0.60532  0.30283  0.35684  1.0000
  F   F122      1.0  0.59400  0.30328  0.87673  1.0000
  F   F123      1.0  0.60578  0.81222  0.36337  1.0000
  F   F124      1.0  0.59848  0.81141  0.87094  1.0000
  F   F125      1.0  0.84571  0.30558  0.36212  1.0000
  F   F126      1.0  0.84146  0.30110  0.87620  1.0000
  F   F127      1.0  0.84796  0.79469  0.38287  1.0000
  F   F128      1.0  0.84751  0.79743  0.87224  1.0000
  F   F129      1.0  0.06207  0.24065  0.15005  1.0000
  F   F130      1.0  0.06587  0.24479  0.65321  1.0000
  F   F131      1.0  0.06054  0.74450  0.14451  1.0000
  F   F132      1.0  0.06738  0.75251  0.63776  1.0000
  F   F133      1.0  0.31452  0.24841  0.14233  1.0000
  F   F134      1.0  0.32400  0.24940  0.62573  1.0000
  F   F135      1.0  0.32569  0.75050  0.12659  1.0000
  F   F136      1.0  0.31250  0.75839  0.64340  1.0000
  F   F137      1.0  0.55505  0.24566  0.15947  1.0000
  F   F138      1.0  0.56891  0.25321  0.64233  1.0000
  F   F139      1.0  0.56291  0.75289  0.13445  1.0000
  F   F140      1.0  0.56935  0.74959  0.64052  1.0000
  F   F141      1.0  0.81136  0.24877  0.15395  1.0000
  F   F142      1.0  0.81957  0.25510  0.62723  1.0000
  F   F143      1.0  0.81790  0.75536  0.12893  1.0000
  F   F144      1.0  0.81841  0.74856  0.63243  1.0000
  F   F145      1.0  0.12000  0.35830  0.12704  1.0000
  F   F146      1.0  0.12507  0.38055  0.59594  1.0000
  F   F147      1.0  0.12479  0.87965  0.09361  1.0000
  F   F148      1.0  0.12712  0.88892  0.59938  1.0000
  F   F149      1.0  0.37324  0.37068  0.10896  1.0000
  F   F150      1.0  0.36853  0.34791  0.63726  1.0000
  F   F151      1.0  0.37325  0.87798  0.10838  1.0000
  F   F152      1.0  0.37477  0.87334  0.60509  1.0000
  F   F153      1.0  0.62289  0.35916  0.11362  1.0000
  F   F154      1.0  0.62473  0.38157  0.59018  1.0000
  F   F155      1.0  0.62581  0.87060  0.10087  1.0000
  F   F156      1.0  0.62200  0.85499  0.61927  1.0000
  F   F157      1.0  0.87461  0.36246  0.10669  1.0000
  F   F158      1.0  0.87663  0.37411  0.59881  1.0000
  F   F159      1.0  0.87659  0.86073  0.10583  1.0000
  F   F160      1.0  0.87904  0.86904  0.60411  1.0000
  F   F161      1.0  0.18222  0.24492  0.37077  1.0000
  F   F162      1.0  0.19009  0.26130  0.84741  1.0000
  F   F163      1.0  0.18768  0.75081  0.34678  1.0000
  F   F164      1.0  0.17908  0.73617  0.87442  1.0000
  F   F165      1.0  0.43817  0.25879  0.34810  1.0000
  F   F166      1.0  0.42583  0.24013  0.87413  1.0000
  F   F167      1.0  0.44395  0.76095  0.33973  1.0000
  F   F168      1.0  0.43882  0.75275  0.86086  1.0000
  F   F169      1.0  0.69857  0.25779  0.31980  1.0000
  F   F170      1.0  0.67424  0.24227  0.87176  1.0000
  F   F171      1.0  0.69194  0.74869  0.35259  1.0000
  F   F172      1.0  0.68643  0.74317  0.86472  1.0000
  F   F173      1.0  0.92868  0.24548  0.36974  1.0000
  F   F174      1.0  0.93389  0.25112  0.85982  1.0000
  F   F175      1.0  0.93725  0.74591  0.34552  1.0000
  F   F176      1.0  0.93922  0.73716  0.86466  1.0000
  F   F177      1.0  0.12858  0.13573  0.38476  1.0000
  F   F178      1.0  0.12553  0.13701  0.88210  1.0000
  F   F179      1.0  0.12574  0.64483  0.37619  1.0000
  F   F180      1.0  0.12710  0.62411  0.89117  1.0000
  F   F181      1.0  0.37788  0.13216  0.38571  1.0000
  F   F182      1.0  0.38058  0.12541  0.88500  1.0000
  F   F183      1.0  0.37297  0.62889  0.41218  1.0000
  F   F184      1.0  0.37673  0.64561  0.88576  1.0000
  F   F185      1.0  0.63217  0.13242  0.38125  1.0000
  F   F186      1.0  0.62224  0.13899  0.87866  1.0000
  F   F187      1.0  0.62276  0.64688  0.38187  1.0000
  F   F188      1.0  0.62340  0.64128  0.89854  1.0000
  F   F189      1.0  0.87644  0.11778  0.38930  1.0000
  F   F190      1.0  0.87613  0.11659  0.91626  1.0000
  F   F191      1.0  0.87566  0.63442  0.38765  1.0000
  F   F192      1.0  0.87716  0.62036  0.88469  1.0000
  F   F193      1.0  0.00633  0.36436  0.07852  1.0000
  F   F194      1.0  0.00409  0.35838  0.58881  1.0000
  F   F195      1.0  0.00638  0.87498  0.06201  1.0000
  F   F196      1.0  0.00809  0.86791  0.56856  1.0000
  F   F197      1.0  0.25647  0.36532  0.08036  1.0000
  F   F198      1.0  0.25742  0.35735  0.58753  1.0000
  F   F199      1.0  0.25574  0.85650  0.07703  1.0000
  F   F200      1.0  0.25557  0.85562  0.58530  1.0000
  F   F201      1.0  0.50466  0.36586  0.07098  1.0000
  F   F202      1.0  0.50165  0.36888  0.58424  1.0000
  F   F203      1.0  0.50911  0.87625  0.06043  1.0000
  F   F204      1.0  0.50353  0.86416  0.57550  1.0000
  F   F205      1.0  0.75964  0.36099  0.07665  1.0000
  F   F206      1.0  0.76053  0.36646  0.57451  1.0000
  F   F207      1.0  0.76453  0.87465  0.05771  1.0000
  F   F208      1.0  0.75352  0.86613  0.58161  1.0000
  F   F209      1.0  0.06763  0.47683  0.18383  1.0000
  F   F210      1.0  0.06489  0.48170  0.69079  1.0000
  F   F211      1.0  0.06415  0.98186  0.18090  1.0000
  F   F212      1.0  0.05617  0.98132  0.69152  1.0000
  F   F213      1.0  0.31685  0.48609  0.18220  1.0000
  F   F214      1.0  0.32822  0.48752  0.66582  1.0000
  F   F215      1.0  0.31195  0.98204  0.17739  1.0000
  F   F216      1.0  0.31369  0.98740  0.67778  1.0000
  F   F217      1.0  0.57153  0.47996  0.19368  1.0000
  F   F218      1.0  0.56985  0.47718  0.68587  1.0000
  F   F219      1.0  0.56727  0.98928  0.16884  1.0000
  F   F220      1.0  0.56752  0.98186  0.66515  1.0000
  F   F221      1.0  0.82989  0.48013  0.17411  1.0000
  F   F222      1.0  0.81280  0.48068  0.68792  1.0000
  F   F223      1.0  0.81678  0.96760  0.19277  1.0000
  F   F224      1.0  0.83103  0.98743  0.65286  1.0000
  F   F225      1.0  0.23997  0.13546  0.42956  1.0000
  F   F226      1.0  0.23966  0.14294  0.93169  1.0000
  F   F227      1.0  0.24282  0.64627  0.43874  1.0000
  F   F228      1.0  0.24317  0.63828  0.92298  1.0000
  F   F229      1.0  0.49010  0.14257  0.42199  1.0000
  F   F230      1.0  0.49334  0.14771  0.90244  1.0000
  F   F231      1.0  0.49172  0.64498  0.41945  1.0000
  F   F232      1.0  0.49221  0.63264  0.92742  1.0000
  F   F233      1.0  0.73991  0.13660  0.42927  1.0000
  F   F234      1.0  0.73959  0.13777  0.92209  1.0000
  F   F235      1.0  0.74280  0.62893  0.43376  1.0000
  F   F236      1.0  0.74462  0.62315  0.93009  1.0000
  F   F237      1.0  0.99465  0.13861  0.42707  1.0000
  F   F238      1.0  0.99253  0.14160  0.92797  1.0000
  F   F239      1.0  0.99493  0.63453  0.42914  1.0000
  F   F240      1.0  0.99508  0.61257  0.94519  1.0000
  F   F241      1.0  0.17872  0.00919  0.33982  1.0000
  F   F242      1.0  0.17663  0.00544  0.83333  1.0000
  F   F243      1.0  0.17949  0.51834  0.32661  1.0000
  F   F244      1.0  0.17997  0.51987  0.82390  1.0000
  F   F245      1.0  0.43522  0.02609  0.30273  1.0000
  F   F246      1.0  0.43299  0.01311  0.80856  1.0000
  F   F247      1.0  0.42563  0.51107  0.33345  1.0000
  F   F248      1.0  0.42960  0.51612  0.82743  1.0000
  F   F249      1.0  0.68724  0.02192  0.30867  1.0000
  F   F250      1.0  0.68089  0.02055  0.81582  1.0000
  F   F251      1.0  0.67869  0.51660  0.34072  1.0000
  F   F252      1.0  0.66831  0.52170  0.84285  1.0000
  F   F253      1.0  0.93652  0.00894  0.32056  1.0000
  F   F254      1.0  0.93044  0.01190  0.82986  1.0000
  F   F255      1.0  0.93488  0.51604  0.32025  1.0000
  F   F256      1.0  0.93152  0.52171  0.81734  1.0000
  F   F257      1.0  0.00452  0.25628  0.99691  1.0000
  F   F258      1.0  0.00182  0.25211  0.49422  1.0000
  F   F259      1.0  0.00207  0.75552  0.99013  1.0000
  F   F260      1.0  0.00630  0.76028  0.48909  1.0000
  F   F261      1.0  0.25008  0.25822  0.99696  1.0000
  F   F262      1.0  0.25228  0.25074  0.49710  1.0000
  F   F263      1.0  0.25097  0.75807  0.99416  1.0000
  F   F264      1.0  0.25332  0.76353  0.50012  1.0000
  F   F265      1.0  0.49561  0.23851  0.01578  1.0000
  F   F266      1.0  0.50300  0.26726  0.50425  1.0000
  F   F267      1.0  0.49894  0.75263  0.99801  1.0000
  F   F268      1.0  0.50816  0.75164  0.48812  1.0000
  F   F269      1.0  0.75327  0.25768  0.98294  1.0000
  F   F270      1.0  0.74954  0.24916  0.50380  1.0000
  F   F271      1.0  0.75013  0.74496  0.99581  1.0000
  F   F272      1.0  0.74908  0.74760  0.50432  1.0000
  F   F273      1.0  0.13827  0.99872  0.23726  1.0000
  F   F274      1.0  0.12296  0.99503  0.74802  1.0000
  F   F275      1.0  0.13071  0.50578  0.24767  1.0000
  F   F276      1.0  0.12724  0.50540  0.73702  1.0000
  F   F277      1.0  0.36630  0.00168  0.26049  1.0000
  F   F278      1.0  0.37025  0.99210  0.75436  1.0000
  F   F279      1.0  0.37256  0.49812  0.26242  1.0000
  F   F280      1.0  0.37873  0.50733  0.74816  1.0000
  F   F281      1.0  0.62667  0.00486  0.24607  1.0000
  F   F282      1.0  0.62169  0.98776  0.75862  1.0000
  F   F283      1.0  0.63305  0.50943  0.24186  1.0000
  F   F284      1.0  0.62941  0.50890  0.73899  1.0000
  F   F285      1.0  0.87337  0.99556  0.25644  1.0000
  F   F286      1.0  0.87923  0.00081  0.73830  1.0000
  F   F287      1.0  0.88201  0.50607  0.24143  1.0000
  F   F288      1.0  0.87261  0.50178  0.75214  1.0000
  F   F289      1.0  0.03889  0.02311  0.04257  1.0000
  F   F290      1.0  0.05456  0.02966  0.50121  1.0000
  F   F291      1.0  0.04791  0.52814  0.02309  1.0000
  F   F292      1.0  0.05262  0.52143  0.52510  1.0000
  F   F293      1.0  0.28364  0.03340  0.03157  1.0000
  F   F294      1.0  0.29342  0.02291  0.52343  1.0000
  F   F295      1.0  0.30066  0.52693  0.02092  1.0000
  F   F296      1.0  0.29238  0.53574  0.51992  1.0000
  F   F297      1.0  0.53523  0.03896  0.02625  1.0000
  F   F298      1.0  0.54632  0.03407  0.50708  1.0000
  F   F299      1.0  0.54483  0.52391  0.03884  1.0000
  F   F300      1.0  0.54807  0.52020  0.51256  1.0000
  F   F301      1.0  0.78893  0.04072  0.02013  1.0000
  F   F302      1.0  0.79077  0.03805  0.52944  1.0000
  F   F303      1.0  0.79117  0.53173  0.02749  1.0000
  F   F304      1.0  0.79909  0.53054  0.52399  1.0000
  F   F305      1.0  0.23162  0.40344  0.23345  1.0000
  F   F306      1.0  0.22959  0.43379  0.71824  1.0000
  F   F307      1.0  0.23074  0.90961  0.23013  1.0000
  F   F308      1.0  0.23509  0.90286  0.73638  1.0000
  F   F309      1.0  0.48774  0.41903  0.24069  1.0000
  F   F310      1.0  0.48678  0.40915  0.74052  1.0000
  F   F311      1.0  0.48711  0.91918  0.21820  1.0000
  F   F312      1.0  0.48408  0.91192  0.71789  1.0000
  F   F313      1.0  0.73744  0.43728  0.21544  1.0000
  F   F314      1.0  0.72862  0.41508  0.72817  1.0000
  F   F315      1.0  0.74130  0.90475  0.21835  1.0000
  F   F316      1.0  0.73581  0.92969  0.72917  1.0000
  F   F317      1.0  0.98228  0.42168  0.21629  1.0000
  F   F318      1.0  0.98255  0.42109  0.72832  1.0000
  F   F319      1.0  0.98468  0.89262  0.23300  1.0000
  F   F320      1.0  0.97951  0.91886  0.71987  1.0000
  F   F321      1.0  0.20704  0.47655  0.47984  1.0000
  F   F322      1.0  0.20869  0.46932  0.97275  1.0000
  F   F323      1.0  0.21288  0.96706  0.47148  1.0000
  F   F324      1.0  0.20721  0.97218  0.97976  1.0000
  F   F325      1.0  0.44706  0.46875  0.49012  1.0000
  F   F326      1.0  0.45526  0.47045  0.97631  1.0000
  F   F327      1.0  0.45034  0.96778  0.48789  1.0000
  F   F328      1.0  0.45556  0.96914  0.97511  1.0000
  F   F329      1.0  0.71416  0.46684  0.46510  1.0000
  F   F330      1.0  0.70085  0.47205  0.99600  1.0000
  F   F331      1.0  0.69625  0.97275  0.49405  1.0000
  F   F332      1.0  0.71128  0.97054  0.96331  1.0000
  F   F333      1.0  0.95815  0.46591  0.46683  1.0000
  F   F334      1.0  0.95332  0.46259  0.97648  1.0000
  F   F335      1.0  0.95878  0.96120  0.47382  1.0000
  F   F336      1.0  0.95554  0.96556  0.97728  1.0000
  F   F337      1.0  0.01246  0.08849  0.27879  1.0000
  F   F338      1.0  0.01745  0.09178  0.77178  1.0000
  F   F339      1.0  0.01184  0.58361  0.27478  1.0000
  F   F340      1.0  0.01346  0.58400  0.78234  1.0000
  F   F341      1.0  0.26116  0.09290  0.27278  1.0000
  F   F342      1.0  0.26711  0.08734  0.77973  1.0000
  F   F343      1.0  0.26630  0.58644  0.27942  1.0000
  F   F344      1.0  0.26758  0.58616  0.76808  1.0000
  F   F345      1.0  0.52090  0.07581  0.27879  1.0000
  F   F346      1.0  0.51721  0.07955  0.76283  1.0000
  F   F347      1.0  0.51179  0.59957  0.26557  1.0000
  F   F348      1.0  0.51276  0.58313  0.77230  1.0000
  F   F349      1.0  0.76548  0.08990  0.26000  1.0000
  F   F350      1.0  0.77168  0.08343  0.76219  1.0000
  F   F351      1.0  0.76707  0.58666  0.26882  1.0000
  F   F352      1.0  0.76318  0.58915  0.78465  1.0000
  F   F353      1.0  0.10022  0.39137  0.46791  1.0000
  F   F354      1.0  0.09852  0.40954  0.95863  1.0000
  F   F355      1.0  0.10279  0.90603  0.45955  1.0000
  F   F356      1.0  0.09884  0.90106  0.95218  1.0000
  F   F357      1.0  0.35106  0.42146  0.46561  1.0000
  F   F358      1.0  0.35767  0.39317  0.96529  1.0000
  F   F359      1.0  0.35258  0.90096  0.46233  1.0000
  F   F360      1.0  0.34505  0.92209  0.96607  1.0000
  F   F361      1.0  0.59810  0.39453  0.45763  1.0000
  F   F362      1.0  0.59332  0.41128  0.96656  1.0000
  F   F363      1.0  0.60309  0.90869  0.45657  1.0000
  F   F364      1.0  0.60125  0.92021  0.95582  1.0000
  F   F365      1.0  0.85021  0.39967  0.44329  1.0000
  F   F366      1.0  0.85006  0.40288  0.96669  1.0000
  F   F367      1.0  0.84779  0.90951  0.46742  1.0000
  F   F368      1.0  0.84872  0.91407  0.96004  1.0000
  F   F369      1.0  0.04104  0.29400  0.28535  1.0000
  F   F370      1.0  0.04464  0.29065  0.79058  1.0000
  F   F371      1.0  0.04937  0.79090  0.28550  1.0000
  F   F372      1.0  0.04017  0.79979  0.78241  1.0000
  F   F373      1.0  0.29202  0.29700  0.29849  1.0000
  F   F374      1.0  0.28501  0.31337  0.78289  1.0000
  F   F375      1.0  0.29367  0.79804  0.28955  1.0000
  F   F376      1.0  0.29734  0.79526  0.79890  1.0000
  F   F377      1.0  0.54158  0.29957  0.29746  1.0000
  F   F378      1.0  0.54971  0.29450  0.78748  1.0000
  F   F379      1.0  0.55357  0.79707  0.27481  1.0000
  F   F380      1.0  0.53960  0.79840  0.79510  1.0000
  F   F381      1.0  0.79425  0.29562  0.29468  1.0000
  F   F382      1.0  0.78889  0.28636  0.79570  1.0000
  F   F383      1.0  0.79754  0.77905  0.28859  1.0000
  F   F384      1.0  0.79918  0.79322  0.78303  1.0000
