data_image0
_chemical_formula_structural       Hf96F384
_chemical_formula_sum              "Hf96 F384"
_cell_length_a       31.0258
_cell_length_b       15.5108
_cell_length_c       15.4997
_cell_angle_alpha    63.342
_cell_angle_beta     63.342
_cell_angle_gamma    80.1625

_space_group_name_H-M_alt    "P 1"
_space_group_IT_number       1

loop_
  _space_group_symop_operation_xyz
  'x, y, z'

loop_
  _atom_site_type_symbol
  _atom_site_label
  _atom_site_symmetry_multiplicity
  _atom_site_fract_x
  _atom_site_fract_y
  _atom_site_fract_z
  _atom_site_occupancy
  Hf  Hf1       1.0  0.19585  0.10827  0.37886  1.0000
  Hf  Hf2       1.0  0.19672  0.11204  0.87295  1.0000
  Hf  Hf3       1.0  0.19222  0.60944  0.38123  1.0000
  Hf  Hf4       1.0  0.19620  0.60852  0.87070  1.0000
  Hf  Hf5       1.0  0.44888  0.10871  0.36919  1.0000
  Hf  Hf6       1.0  0.44461  0.10685  0.87952  1.0000
  Hf  Hf7       1.0  0.44883  0.60972  0.37092  1.0000
  Hf  Hf8       1.0  0.44574  0.60870  0.87233  1.0000
  Hf  Hf9       1.0  0.69737  0.10887  0.37078  1.0000
  Hf  Hf10      1.0  0.69829  0.10626  0.87624  1.0000
  Hf  Hf11      1.0  0.69004  0.60924  0.38197  1.0000
  Hf  Hf12      1.0  0.69665  0.60644  0.88018  1.0000
  Hf  Hf13      1.0  0.94557  0.11364  0.36724  1.0000
  Hf  Hf14      1.0  0.94699  0.10272  0.88115  1.0000
  Hf  Hf15      1.0  0.94507  0.59923  0.37468  1.0000
  Hf  Hf16      1.0  0.94862  0.61007  0.86669  1.0000
  Hf  Hf17      1.0  0.05270  0.39162  0.13002  1.0000
  Hf  Hf18      1.0  0.05457  0.39096  0.61926  1.0000
  Hf  Hf19      1.0  0.05268  0.89628  0.12996  1.0000
  Hf  Hf20      1.0  0.05420  0.88930  0.63261  1.0000
  Hf  Hf21      1.0  0.30623  0.38993  0.11840  1.0000
  Hf  Hf22      1.0  0.30209  0.39590  0.62427  1.0000
  Hf  Hf23      1.0  0.30717  0.90048  0.10573  1.0000
  Hf  Hf24      1.0  0.30428  0.88446  0.62947  1.0000
  Hf  Hf25      1.0  0.55206  0.40019  0.12557  1.0000
  Hf  Hf26      1.0  0.55491  0.39717  0.61936  1.0000
  Hf  Hf27      1.0  0.55138  0.89823  0.12245  1.0000
  Hf  Hf28      1.0  0.55319  0.89869  0.62515  1.0000
  Hf  Hf29      1.0  0.80347  0.39053  0.12795  1.0000
  Hf  Hf30      1.0  0.80176  0.39135  0.63025  1.0000
  Hf  Hf31      1.0  0.80430  0.89416  0.12533  1.0000
  Hf  Hf32      1.0  0.80424  0.89291  0.62073  1.0000
  Hf  Hf33      1.0  0.05561  0.17551  0.42357  1.0000
  Hf  Hf34      1.0  0.05721  0.18248  0.91591  1.0000
  Hf  Hf35      1.0  0.05250  0.68074  0.41687  1.0000
  Hf  Hf36      1.0  0.05616  0.68408  0.92457  1.0000
  Hf  Hf37      1.0  0.30501  0.17898  0.42174  1.0000
  Hf  Hf38      1.0  0.30708  0.19186  0.91607  1.0000
  Hf  Hf39      1.0  0.30726  0.68912  0.41072  1.0000
  Hf  Hf40      1.0  0.30357  0.68056  0.91920  1.0000
  Hf  Hf41      1.0  0.55729  0.19380  0.40741  1.0000
  Hf  Hf42      1.0  0.55824  0.18202  0.91035  1.0000
  Hf  Hf43      1.0  0.55343  0.68541  0.41547  1.0000
  Hf  Hf44      1.0  0.55536  0.67839  0.91542  1.0000
  Hf  Hf45      1.0  0.80459  0.18238  0.41373  1.0000
  Hf  Hf46      1.0  0.80848  0.19242  0.90607  1.0000
  Hf  Hf47      1.0  0.80283  0.68013  0.42114  1.0000
  Hf  Hf48      1.0  0.80809  0.68592  0.91314  1.0000
  Hf  Hf49      1.0  0.16176  0.38849  0.33114  1.0000
  Hf  Hf50      1.0  0.15886  0.38271  0.83777  1.0000
  Hf  Hf51      1.0  0.15689  0.89284  0.33698  1.0000
  Hf  Hf52      1.0  0.16143  0.88518  0.83446  1.0000
  Hf  Hf53      1.0  0.40596  0.37627  0.33801  1.0000
  Hf  Hf54      1.0  0.40999  0.38799  0.82926  1.0000
  Hf  Hf55      1.0  0.41108  0.88775  0.33749  1.0000
  Hf  Hf56      1.0  0.40635  0.88473  0.83243  1.0000
  Hf  Hf57      1.0  0.66256  0.39235  0.32428  1.0000
  Hf  Hf58      1.0  0.65801  0.39454  0.82722  1.0000
  Hf  Hf59      1.0  0.65856  0.88223  0.34278  1.0000
  Hf  Hf60      1.0  0.66201  0.88844  0.82703  1.0000
  Hf  Hf61      1.0  0.90548  0.38409  0.34336  1.0000
  Hf  Hf62      1.0  0.90996  0.38808  0.82769  1.0000
  Hf  Hf63      1.0  0.90605  0.88379  0.33773  1.0000
  Hf  Hf64      1.0  0.90764  0.88900  0.83506  1.0000
  Hf  Hf65      1.0  0.19391  0.31217  0.08882  1.0000
  Hf  Hf66      1.0  0.19142  0.31868  0.58995  1.0000
  Hf  Hf67      1.0  0.19251  0.81655  0.09282  1.0000
  Hf  Hf68      1.0  0.19149  0.80912  0.59321  1.0000
  Hf  Hf69      1.0  0.44791  0.31336  0.07706  1.0000
  Hf  Hf70      1.0  0.44209  0.31075  0.58605  1.0000
  Hf  Hf71      1.0  0.44490  0.81538  0.08573  1.0000
  Hf  Hf72      1.0  0.45012  0.81640  0.57901  1.0000
  Hf  Hf73      1.0  0.69288  0.32036  0.08031  1.0000
  Hf  Hf74      1.0  0.69532  0.31196  0.58290  1.0000
  Hf  Hf75      1.0  0.68955  0.82304  0.08862  1.0000
  Hf  Hf76      1.0  0.69165  0.81663  0.58714  1.0000
  Hf  Hf77      1.0  0.94527  0.32208  0.07883  1.0000
  Hf  Hf78      1.0  0.94380  0.31340  0.58441  1.0000
  Hf  Hf79      1.0  0.94408  0.82156  0.08525  1.0000
  Hf  Hf80      1.0  0.94509  0.82418  0.57545  1.0000
  Hf  Hf81      1.0  0.08594  0.11203  0.17551  1.0000
  Hf  Hf82      1.0  0.09424  0.10810  0.66718  1.0000
  Hf  Hf83      1.0  0.09300  0.61071  0.16782  1.0000
  Hf  Hf84      1.0  0.09081  0.61040  0.67038  1.0000
  Hf  Hf85      1.0  0.34062  0.10318  0.17349  1.0000
  Hf  Hf86      1.0  0.34363  0.11119  0.66459  1.0000
  Hf  Hf87      1.0  0.34099  0.61420  0.16467  1.0000
  Hf  Hf88      1.0  0.34413  0.60914  0.66069  1.0000
  Hf  Hf89      1.0  0.59614  0.11327  0.16111  1.0000
  Hf  Hf90      1.0  0.59157  0.11264  0.66167  1.0000
  Hf  Hf91      1.0  0.59284  0.61198  0.16199  1.0000
  Hf  Hf92      1.0  0.59096  0.60753  0.67034  1.0000
  Hf  Hf93      1.0  0.84151  0.11454  0.16671  1.0000
  Hf  Hf94      1.0  0.84065  0.10823  0.66249  1.0000
  Hf  Hf95      1.0  0.84210  0.61383  0.16202  1.0000
  Hf  Hf96      1.0  0.84272  0.60900  0.66583  1.0000
  F   F1        1.0  0.07973  0.11190  0.31811  1.0000
  F   F2        1.0  0.07768  0.12825  0.80770  1.0000
  F   F3        1.0  0.07558  0.62638  0.30770  1.0000
  F   F4        1.0  0.08289  0.62507  0.80636  1.0000
  F   F5        1.0  0.32002  0.11659  0.31159  1.0000
  F   F6        1.0  0.32921  0.12299  0.80486  1.0000
  F   F7        1.0  0.32850  0.63052  0.30047  1.0000
  F   F8        1.0  0.33041  0.63821  0.80353  1.0000
  F   F9        1.0  0.58746  0.14691  0.28887  1.0000
  F   F10       1.0  0.58037  0.10785  0.80022  1.0000
  F   F11       1.0  0.56885  0.62762  0.31258  1.0000
  F   F12       1.0  0.57530  0.61857  0.81329  1.0000
  F   F13       1.0  0.82744  0.12492  0.30432  1.0000
  F   F14       1.0  0.83274  0.14233  0.79692  1.0000
  F   F15       1.0  0.82744  0.64136  0.30097  1.0000
  F   F16       1.0  0.83008  0.63370  0.79289  1.0000
  F   F17       1.0  0.19508  0.35557  0.43181  1.0000
  F   F18       1.0  0.19034  0.34869  0.94080  1.0000
  F   F19       1.0  0.18484  0.83308  0.45629  1.0000
  F   F20       1.0  0.18751  0.84820  0.95314  1.0000
  F   F21       1.0  0.42599  0.32356  0.45894  1.0000
  F   F22       1.0  0.44142  0.34038  0.93700  1.0000
  F   F23       1.0  0.43920  0.83550  0.44872  1.0000
  F   F24       1.0  0.43063  0.84550  0.95121  1.0000
  F   F25       1.0  0.68922  0.34018  0.44530  1.0000
  F   F26       1.0  0.68597  0.35354  0.93430  1.0000
  F   F27       1.0  0.68860  0.84188  0.45101  1.0000
  F   F28       1.0  0.67140  0.84633  0.96146  1.0000
  F   F29       1.0  0.93847  0.35435  0.43832  1.0000
  F   F30       1.0  0.93859  0.33591  0.94189  1.0000
  F   F31       1.0  0.93984  0.84636  0.44164  1.0000
  F   F32       1.0  0.93351  0.83571  0.95741  1.0000
  F   F33       1.0  0.17364  0.36452  0.19821  1.0000
  F   F34       1.0  0.16733  0.37830  0.70155  1.0000
  F   F35       1.0  0.17110  0.88006  0.20170  1.0000
  F   F36       1.0  0.17424  0.87237  0.69584  1.0000
  F   F37       1.0  0.42084  0.36838  0.19852  1.0000
  F   F38       1.0  0.42273  0.37112  0.69662  1.0000
  F   F39       1.0  0.41141  0.85491  0.21016  1.0000
  F   F40       1.0  0.42580  0.86928  0.69346  1.0000
  F   F41       1.0  0.67444  0.38906  0.18365  1.0000
  F   F42       1.0  0.67663  0.36997  0.69170  1.0000
  F   F43       1.0  0.66809  0.86417  0.20741  1.0000
  F   F44       1.0  0.67076  0.85304  0.70437  1.0000
  F   F45       1.0  0.91916  0.37025  0.20013  1.0000
  F   F46       1.0  0.92680  0.38452  0.68865  1.0000
  F   F47       1.0  0.91299  0.86133  0.20933  1.0000
  F   F48       1.0  0.91889  0.86291  0.69879  1.0000
  F   F49       1.0  0.06287  0.16270  0.04918  1.0000
  F   F50       1.0  0.06072  0.14484  0.55757  1.0000
  F   F51       1.0  0.07059  0.67294  0.04331  1.0000
  F   F52       1.0  0.05996  0.65786  0.55446  1.0000
  F   F53       1.0  0.31427  0.16361  0.05288  1.0000
  F   F54       1.0  0.31364  0.14898  0.55403  1.0000
  F   F55       1.0  0.31568  0.65212  0.05299  1.0000
  F   F56       1.0  0.32375  0.65354  0.53952  1.0000
  F   F57       1.0  0.56870  0.16798  0.04908  1.0000
  F   F58       1.0  0.56405  0.15826  0.54672  1.0000
  F   F59       1.0  0.56089  0.64925  0.05022  1.0000
  F   F60       1.0  0.57149  0.65815  0.54115  1.0000
  F   F61       1.0  0.81563  0.15223  0.06042  1.0000
  F   F62       1.0  0.81016  0.15184  0.55327  1.0000
  F   F63       1.0  0.81782  0.65516  0.04680  1.0000
  F   F64       1.0  0.81987  0.64676  0.54585  1.0000
  F   F65       1.0  0.20739  0.19268  0.20834  1.0000
  F   F66       1.0  0.19984  0.19888  0.71886  1.0000
  F   F67       1.0  0.20279  0.71322  0.22270  1.0000
  F   F68       1.0  0.20716  0.70436  0.71808  1.0000
  F   F69       1.0  0.45678  0.20644  0.20525  1.0000
  F   F70       1.0  0.44617  0.20318  0.71822  1.0000
  F   F71       1.0  0.45465  0.70473  0.20952  1.0000
  F   F72       1.0  0.45015  0.70767  0.71185  1.0000
  F   F73       1.0  0.69391  0.19980  0.20138  1.0000
  F   F74       1.0  0.70470  0.20371  0.71025  1.0000
  F   F75       1.0  0.70231  0.70621  0.22496  1.0000
  F   F76       1.0  0.70571  0.69461  0.72685  1.0000
  F   F77       1.0  0.95541  0.19760  0.20745  1.0000
  F   F78       1.0  0.94948  0.19898  0.70731  1.0000
  F   F79       1.0  0.95142  0.70317  0.22127  1.0000
  F   F80       1.0  0.96458  0.69430  0.71600  1.0000
  F   F81       1.0  0.14862  0.11791  0.04082  1.0000
  F   F82       1.0  0.14911  0.08298  0.54833  1.0000
  F   F83       1.0  0.15336  0.61459  0.04066  1.0000
  F   F84       1.0  0.15158  0.59579  0.53295  1.0000
  F   F85       1.0  0.40007  0.09518  0.03817  1.0000
  F   F86       1.0  0.40447  0.10124  0.52064  1.0000
  F   F87       1.0  0.39792  0.60114  0.03912  1.0000
  F   F88       1.0  0.40126  0.57614  0.53619  1.0000
  F   F89       1.0  0.64896  0.08977  0.03078  1.0000
  F   F90       1.0  0.65104  0.10302  0.52412  1.0000
  F   F91       1.0  0.64589  0.59359  0.03867  1.0000
  F   F92       1.0  0.64664  0.59360  0.55173  1.0000
  F   F93       1.0  0.90002  0.08946  0.04493  1.0000
  F   F94       1.0  0.89614  0.09179  0.52897  1.0000
  F   F95       1.0  0.90271  0.59890  0.03128  1.0000
  F   F96       1.0  0.89868  0.58768  0.54037  1.0000
  F   F97       1.0  0.14563  0.20817  0.13917  1.0000
  F   F98       1.0  0.15280  0.20477  0.61179  1.0000
  F   F99       1.0  0.14834  0.70349  0.14955  1.0000
  F   F100      1.0  0.15095  0.69271  0.62252  1.0000
  F   F101      1.0  0.39975  0.20799  0.12827  1.0000
  F   F102      1.0  0.39864  0.19135  0.62591  1.0000
  F   F103      1.0  0.40168  0.70292  0.12988  1.0000
  F   F104      1.0  0.40507  0.68913  0.61894  1.0000
  F   F105      1.0  0.64569  0.21337  0.10928  1.0000
  F   F106      1.0  0.66005  0.18975  0.62095  1.0000
  F   F107      1.0  0.64813  0.69572  0.13711  1.0000
  F   F108      1.0  0.64626  0.69426  0.64268  1.0000
  F   F109      1.0  0.90723  0.20267  0.11829  1.0000
  F   F110      1.0  0.90344  0.18372  0.60666  1.0000
  F   F111      1.0  0.90068  0.69862  0.13654  1.0000
  F   F112      1.0  0.90178  0.70683  0.62012  1.0000
  F   F113      1.0  0.10237  0.29784  0.37787  1.0000
  F   F114      1.0  0.10347  0.29838  0.86978  1.0000
  F   F115      1.0  0.09563  0.80709  0.36770  1.0000
  F   F116      1.0  0.10221  0.79862  0.86664  1.0000
  F   F117      1.0  0.35327  0.28772  0.38432  1.0000
  F   F118      1.0  0.34402  0.31349  0.87890  1.0000
  F   F119      1.0  0.35045  0.82089  0.38283  1.0000
  F   F120      1.0  0.34544  0.80693  0.86879  1.0000
  F   F121      1.0  0.60617  0.30151  0.37474  1.0000
  F   F122      1.0  0.59436  0.30862  0.85422  1.0000
  F   F123      1.0  0.59632  0.80797  0.35216  1.0000
  F   F124      1.0  0.59880  0.81203  0.87904  1.0000
  F   F125      1.0  0.84895  0.30226  0.37467  1.0000
  F   F126      1.0  0.84907  0.31694  0.85248  1.0000
  F   F127      1.0  0.83807  0.80562  0.39266  1.0000
  F   F128      1.0  0.84123  0.81042  0.88403  1.0000
  F   F129      1.0  0.05397  0.24681  0.16545  1.0000
  F   F130      1.0  0.06543  0.25326  0.63036  1.0000
  F   F131      1.0  0.06701  0.75115  0.15689  1.0000
  F   F132      1.0  0.06381  0.74903  0.65857  1.0000
  F   F133      1.0  0.31192  0.24671  0.14696  1.0000
  F   F134      1.0  0.31296  0.24137  0.65142  1.0000
  F   F135      1.0  0.31725  0.75252  0.14507  1.0000
  F   F136      1.0  0.31866  0.74616  0.64007  1.0000
  F   F137      1.0  0.55473  0.26088  0.16324  1.0000
  F   F138      1.0  0.57703  0.25392  0.60701  1.0000
  F   F139      1.0  0.56288  0.74873  0.12531  1.0000
  F   F140      1.0  0.55923  0.75056  0.66371  1.0000
  F   F141      1.0  0.81698  0.25222  0.13940  1.0000
  F   F142      1.0  0.81511  0.24641  0.63558  1.0000
  F   F143      1.0  0.82200  0.75687  0.12975  1.0000
  F   F144      1.0  0.81597  0.75308  0.62651  1.0000
  F   F145      1.0  0.12493  0.38074  0.09995  1.0000
  F   F146      1.0  0.12114  0.36466  0.62242  1.0000
  F   F147      1.0  0.12173  0.87719  0.10902  1.0000
  F   F148      1.0  0.12689  0.86664  0.61157  1.0000
  F   F149      1.0  0.37308  0.37704  0.10931  1.0000
  F   F150      1.0  0.37410  0.37510  0.60465  1.0000
  F   F151      1.0  0.37420  0.89507  0.09264  1.0000
  F   F152      1.0  0.37328  0.85268  0.62496  1.0000
  F   F153      1.0  0.62721  0.38239  0.08822  1.0000
  F   F154      1.0  0.62639  0.36570  0.61645  1.0000
  F   F155      1.0  0.62116  0.87514  0.11372  1.0000
  F   F156      1.0  0.62649  0.89126  0.59479  1.0000
  F   F157      1.0  0.87569  0.37820  0.10350  1.0000
  F   F158      1.0  0.87391  0.35049  0.62511  1.0000
  F   F159      1.0  0.87447  0.89302  0.09800  1.0000
  F   F160      1.0  0.87293  0.87488  0.60345  1.0000
  F   F161      1.0  0.19168  0.25076  0.34887  1.0000
  F   F162      1.0  0.19130  0.24979  0.85151  1.0000
  F   F163      1.0  0.17036  0.74318  0.38124  1.0000
  F   F164      1.0  0.19059  0.75363  0.86423  1.0000
  F   F165      1.0  0.44486  0.25227  0.34145  1.0000
  F   F166      1.0  0.42939  0.24676  0.86764  1.0000
  F   F167      1.0  0.43307  0.74517  0.36402  1.0000
  F   F168      1.0  0.42665  0.74891  0.86464  1.0000
  F   F169      1.0  0.69554  0.26040  0.33229  1.0000
  F   F170      1.0  0.67892  0.24720  0.87492  1.0000
  F   F171      1.0  0.66998  0.73601  0.39131  1.0000
  F   F172      1.0  0.68534  0.74900  0.87118  1.0000
  F   F173      1.0  0.93523  0.24765  0.36085  1.0000
  F   F174      1.0  0.94665  0.24755  0.83771  1.0000
  F   F175      1.0  0.92691  0.74284  0.37662  1.0000
  F   F176      1.0  0.93071  0.75231  0.86432  1.0000
  F   F177      1.0  0.12608  0.11551  0.40591  1.0000
  F   F178      1.0  0.12228  0.11964  0.90896  1.0000
  F   F179      1.0  0.12169  0.62056  0.39292  1.0000
  F   F180      1.0  0.12474  0.62064  0.90442  1.0000
  F   F181      1.0  0.37684  0.13156  0.37879  1.0000
  F   F182      1.0  0.36975  0.13429  0.89881  1.0000
  F   F183      1.0  0.37875  0.64606  0.37241  1.0000
  F   F184      1.0  0.37570  0.62157  0.89056  1.0000
  F   F185      1.0  0.63017  0.13679  0.38530  1.0000
  F   F186      1.0  0.62744  0.12772  0.88496  1.0000
  F   F187      1.0  0.61967  0.62521  0.39679  1.0000
  F   F188      1.0  0.62307  0.63301  0.88751  1.0000
  F   F189      1.0  0.87316  0.14001  0.38588  1.0000
  F   F190      1.0  0.87568  0.13867  0.88987  1.0000
  F   F191      1.0  0.87585  0.61389  0.38990  1.0000
  F   F192      1.0  0.87816  0.63001  0.87800  1.0000
  F   F193      1.0  0.00759  0.35602  0.07829  1.0000
  F   F194      1.0  0.00886  0.35231  0.57282  1.0000
  F   F195      1.0  0.00588  0.85867  0.08823  1.0000
  F   F196      1.0  0.01013  0.85959  0.57157  1.0000
  F   F197      1.0  0.25883  0.34560  0.07435  1.0000
  F   F198      1.0  0.25486  0.36379  0.57454  1.0000
  F   F199      1.0  0.25757  0.86233  0.06694  1.0000
  F   F200      1.0  0.25629  0.85004  0.59329  1.0000
  F   F201      1.0  0.50545  0.36857  0.07637  1.0000
  F   F202      1.0  0.51154  0.35050  0.57509  1.0000
  F   F203      1.0  0.50816  0.86258  0.06107  1.0000
  F   F204      1.0  0.51035  0.86587  0.55985  1.0000
  F   F205      1.0  0.75501  0.35055  0.08135  1.0000
  F   F206      1.0  0.76033  0.36329  0.57205  1.0000
  F   F207      1.0  0.75733  0.86686  0.07422  1.0000
  F   F208      1.0  0.75482  0.85439  0.58001  1.0000
  F   F209      1.0  0.07239  0.50112  0.16183  1.0000
  F   F210      1.0  0.07153  0.49948  0.65775  1.0000
  F   F211      1.0  0.06825  0.98954  0.17918  1.0000
  F   F212      1.0  0.06693  0.98396  0.67674  1.0000
  F   F213      1.0  0.31294  0.48758  0.17085  1.0000
  F   F214      1.0  0.31084  0.48494  0.68119  1.0000
  F   F215      1.0  0.31866  0.98557  0.17778  1.0000
  F   F216      1.0  0.31929  0.98181  0.67284  1.0000
  F   F217      1.0  0.57048  0.48225  0.17433  1.0000
  F   F218      1.0  0.56939  0.47555  0.67616  1.0000
  F   F219      1.0  0.56683  0.98257  0.18175  1.0000
  F   F220      1.0  0.56100  0.98532  0.69424  1.0000
  F   F221      1.0  0.82306  0.48334  0.17432  1.0000
  F   F222      1.0  0.81769  0.47510  0.69096  1.0000
  F   F223      1.0  0.81244  0.98868  0.18114  1.0000
  F   F224      1.0  0.81782  0.98073  0.67526  1.0000
  F   F225      1.0  0.23812  0.13099  0.44194  1.0000
  F   F226      1.0  0.24777  0.14220  0.91055  1.0000
  F   F227      1.0  0.24189  0.64981  0.42397  1.0000
  F   F228      1.0  0.24464  0.63736  0.92201  1.0000
  F   F229      1.0  0.49653  0.15430  0.41614  1.0000
  F   F230      1.0  0.49147  0.13461  0.93445  1.0000
  F   F231      1.0  0.49163  0.63645  0.41896  1.0000
  F   F232      1.0  0.48782  0.64758  0.92022  1.0000
  F   F233      1.0  0.74255  0.12641  0.43230  1.0000
  F   F234      1.0  0.74115  0.13023  0.93152  1.0000
  F   F235      1.0  0.73760  0.65097  0.41803  1.0000
  F   F236      1.0  0.74463  0.64101  0.92902  1.0000
  F   F237      1.0  0.99736  0.15343  0.40446  1.0000
  F   F238      1.0  0.99572  0.13567  0.92273  1.0000
  F   F239      1.0  0.99225  0.64832  0.41076  1.0000
  F   F240      1.0  0.99281  0.64070  0.92710  1.0000
  F   F241      1.0  0.17781  0.01291  0.31823  1.0000
  F   F242      1.0  0.17783  0.02117  0.83164  1.0000
  F   F243      1.0  0.18585  0.51882  0.30805  1.0000
  F   F244      1.0  0.18116  0.51997  0.81645  1.0000
  F   F245      1.0  0.43447  0.01726  0.31503  1.0000
  F   F246      1.0  0.42723  0.01243  0.82607  1.0000
  F   F247      1.0  0.43231  0.50443  0.33799  1.0000
  F   F248      1.0  0.43338  0.52133  0.80992  1.0000
  F   F249      1.0  0.68049  0.00515  0.33463  1.0000
  F   F250      1.0  0.68574  0.01095  0.82816  1.0000
  F   F251      1.0  0.68528  0.52134  0.31685  1.0000
  F   F252      1.0  0.67849  0.51553  0.82895  1.0000
  F   F253      1.0  0.92500  0.01559  0.33455  1.0000
  F   F254      1.0  0.92653  0.01077  0.83334  1.0000
  F   F255      1.0  0.93026  0.51833  0.31631  1.0000
  F   F256      1.0  0.93686  0.50695  0.82707  1.0000
  F   F257      1.0  0.99821  0.24460  0.00561  1.0000
  F   F258      1.0  0.99786  0.24554  0.50248  1.0000
  F   F259      1.0  0.99940  0.74568  0.00416  1.0000
  F   F260      1.0  0.99546  0.73165  0.51684  1.0000
  F   F261      1.0  0.24455  0.24542  0.00058  1.0000
  F   F262      1.0  0.24761  0.25098  0.50082  1.0000
  F   F263      1.0  0.24303  0.73368  0.01160  1.0000
  F   F264      1.0  0.24953  0.74127  0.51187  1.0000
  F   F265      1.0  0.50397  0.24702  0.00077  1.0000
  F   F266      1.0  0.49975  0.25865  0.50175  1.0000
  F   F267      1.0  0.49934  0.75215  0.99509  1.0000
  F   F268      1.0  0.49984  0.73613  0.51333  1.0000
  F   F269      1.0  0.75351  0.26144  0.98445  1.0000
  F   F270      1.0  0.74672  0.23745  0.51070  1.0000
  F   F271      1.0  0.74988  0.75796  0.99832  1.0000
  F   F272      1.0  0.74607  0.72676  0.52623  1.0000
  F   F273      1.0  0.12438  0.00454  0.25061  1.0000
  F   F274      1.0  0.12557  0.99715  0.75068  1.0000
  F   F275      1.0  0.12306  0.49444  0.25142  1.0000
  F   F276      1.0  0.11859  0.49254  0.76417  1.0000
  F   F277      1.0  0.37728  0.00116  0.24149  1.0000
  F   F278      1.0  0.37885  0.00022  0.73580  1.0000
  F   F279      1.0  0.37211  0.49455  0.26005  1.0000
  F   F280      1.0  0.36894  0.49288  0.74965  1.0000
  F   F281      1.0  0.62297  0.00817  0.25747  1.0000
  F   F282      1.0  0.63747  0.00005  0.72922  1.0000
  F   F283      1.0  0.62548  0.50804  0.25437  1.0000
  F   F284      1.0  0.62663  0.50366  0.74092  1.0000
  F   F285      1.0  0.86809  0.99547  0.26117  1.0000
  F   F286      1.0  0.87547  0.99569  0.74576  1.0000
  F   F287      1.0  0.88206  0.50867  0.23699  1.0000
  F   F288      1.0  0.87486  0.50168  0.76134  1.0000
  F   F289      1.0  0.03858  0.02820  0.04465  1.0000
  F   F290      1.0  0.03862  0.02713  0.52636  1.0000
  F   F291      1.0  0.04114  0.52632  0.02648  1.0000
  F   F292      1.0  0.04159  0.52687  0.51912  1.0000
  F   F293      1.0  0.28976  0.03808  0.01771  1.0000
  F   F294      1.0  0.29494  0.02777  0.51613  1.0000
  F   F295      1.0  0.29972  0.52380  0.00781  1.0000
  F   F296      1.0  0.28629  0.53369  0.52744  1.0000
  F   F297      1.0  0.53580  0.03485  0.03749  1.0000
  F   F298      1.0  0.54057  0.02768  0.52711  1.0000
  F   F299      1.0  0.53996  0.52779  0.01281  1.0000
  F   F300      1.0  0.53484  0.52621  0.54171  1.0000
  F   F301      1.0  0.79415  0.04097  0.02305  1.0000
  F   F302      1.0  0.79320  0.03113  0.52187  1.0000
  F   F303      1.0  0.79713  0.52721  0.01627  1.0000
  F   F304      1.0  0.79160  0.53345  0.52531  1.0000
  F   F305      1.0  0.23664  0.41275  0.20862  1.0000
  F   F306      1.0  0.23537  0.40761  0.72859  1.0000
  F   F307      1.0  0.23897  0.89246  0.23219  1.0000
  F   F308      1.0  0.23439  0.92874  0.72575  1.0000
  F   F309      1.0  0.48714  0.40565  0.24024  1.0000
  F   F310      1.0  0.49022  0.40680  0.73164  1.0000
  F   F311      1.0  0.47888  0.92215  0.21022  1.0000
  F   F312      1.0  0.48491  0.89249  0.74093  1.0000
  F   F313      1.0  0.74066  0.42137  0.23185  1.0000
  F   F314      1.0  0.73438  0.41665  0.72024  1.0000
  F   F315      1.0  0.72610  0.92507  0.23031  1.0000
  F   F316      1.0  0.73806  0.90614  0.73272  1.0000
  F   F317      1.0  0.98554  0.39586  0.23515  1.0000
  F   F318      1.0  0.99014  0.40874  0.73442  1.0000
  F   F319      1.0  0.97789  0.92209  0.22932  1.0000
  F   F320      1.0  0.98558  0.90165  0.73096  1.0000
  F   F321      1.0  0.19883  0.47539  0.48487  1.0000
  F   F322      1.0  0.20383  0.47928  0.98014  1.0000
  F   F323      1.0  0.20864  0.95889  0.48021  1.0000
  F   F324      1.0  0.20382  0.98221  0.98594  1.0000
  F   F325      1.0  0.45816  0.46075  0.47659  1.0000
  F   F326      1.0  0.44811  0.47367  0.98468  1.0000
  F   F327      1.0  0.45719  0.97132  0.47926  1.0000
  F   F328      1.0  0.45646  0.97454  0.97878  1.0000
  F   F329      1.0  0.70957  0.47151  0.47758  1.0000
  F   F330      1.0  0.71470  0.47035  0.96643  1.0000
  F   F331      1.0  0.70475  0.96510  0.47705  1.0000
  F   F332      1.0  0.70333  0.95810  0.98979  1.0000
  F   F333      1.0  0.95612  0.46320  0.48285  1.0000
  F   F334      1.0  0.96094  0.46352  0.97393  1.0000
  F   F335      1.0  0.95789  0.97432  0.48855  1.0000
  F   F336      1.0  0.95903  0.97028  0.98298  1.0000
  F   F337      1.0  0.01236  0.07310  0.28247  1.0000
  F   F338      1.0  0.01337  0.09712  0.76566  1.0000
  F   F339      1.0  0.01404  0.57916  0.27317  1.0000
  F   F340      1.0  0.01926  0.57648  0.77376  1.0000
  F   F341      1.0  0.26280  0.07627  0.28172  1.0000
  F   F342      1.0  0.26334  0.09154  0.76865  1.0000
  F   F343      1.0  0.26816  0.58665  0.27686  1.0000
  F   F344      1.0  0.27065  0.60038  0.76682  1.0000
  F   F345      1.0  0.51904  0.08850  0.28228  1.0000
  F   F346      1.0  0.51506  0.10877  0.75024  1.0000
  F   F347      1.0  0.51588  0.58780  0.26595  1.0000
  F   F348      1.0  0.51439  0.58420  0.76691  1.0000
  F   F349      1.0  0.75968  0.10426  0.25761  1.0000
  F   F350      1.0  0.76628  0.09169  0.77389  1.0000
  F   F351      1.0  0.76538  0.59340  0.27157  1.0000
  F   F352      1.0  0.76732  0.58395  0.76768  1.0000
  F   F353      1.0  0.10570  0.40635  0.46121  1.0000
  F   F354      1.0  0.10230  0.38673  0.96707  1.0000
  F   F355      1.0  0.10010  0.90077  0.47151  1.0000
  F   F356      1.0  0.09963  0.90042  0.96135  1.0000
  F   F357      1.0  0.34952  0.40998  0.46378  1.0000
  F   F358      1.0  0.35792  0.39961  0.96110  1.0000
  F   F359      1.0  0.35474  0.91372  0.46728  1.0000
  F   F360      1.0  0.34685  0.90992  0.95118  1.0000
  F   F361      1.0  0.60526  0.41561  0.46314  1.0000
  F   F362      1.0  0.59818  0.40478  0.94773  1.0000
  F   F363      1.0  0.59880  0.90178  0.45787  1.0000
  F   F364      1.0  0.59766  0.92097  0.96910  1.0000
  F   F365      1.0  0.85110  0.40634  0.46949  1.0000
  F   F366      1.0  0.84935  0.39124  0.95807  1.0000
  F   F367      1.0  0.84959  0.90737  0.46241  1.0000
  F   F368      1.0  0.85063  0.90736  0.96190  1.0000
  F   F369      1.0  0.04816  0.30881  0.28776  1.0000
  F   F370      1.0  0.04673  0.29815  0.78679  1.0000
  F   F371      1.0  0.04430  0.81121  0.29490  1.0000
  F   F372      1.0  0.04796  0.80144  0.79607  1.0000
  F   F373      1.0  0.29880  0.28981  0.28331  1.0000
  F   F374      1.0  0.29316  0.30325  0.79366  1.0000
  F   F375      1.0  0.30711  0.80581  0.28312  1.0000
  F   F376      1.0  0.29380  0.80016  0.78372  1.0000
  F   F377      1.0  0.55513  0.31471  0.29310  1.0000
  F   F378      1.0  0.54879  0.28437  0.77158  1.0000
  F   F379      1.0  0.54517  0.79992  0.27930  1.0000
  F   F380      1.0  0.55786  0.80152  0.78030  1.0000
  F   F381      1.0  0.79971  0.29477  0.28571  1.0000
  F   F382      1.0  0.79086  0.29270  0.78380  1.0000
  F   F383      1.0  0.79273  0.81112  0.28083  1.0000
  F   F384      1.0  0.79984  0.79978  0.78428  1.0000
