data_image0
_chemical_formula_structural       Hf96F384
_chemical_formula_sum              "Hf96 F384"
_cell_length_a       31.0123
_cell_length_b       15.5047
_cell_length_c       15.4949
_cell_angle_alpha    63.342
_cell_angle_beta     63.342
_cell_angle_gamma    80.1625

_space_group_name_H-M_alt    "P 1"
_space_group_IT_number       1

loop_
  _space_group_symop_operation_xyz
  'x, y, z'

loop_
  _atom_site_type_symbol
  _atom_site_label
  _atom_site_symmetry_multiplicity
  _atom_site_fract_x
  _atom_site_fract_y
  _atom_site_fract_z
  _atom_site_occupancy
  Hf  Hf1       1.0  0.19524  0.10307  0.37749  1.0000
  Hf  Hf2       1.0  0.19486  0.10767  0.87612  1.0000
  Hf  Hf3       1.0  0.19653  0.60366  0.37991  1.0000
  Hf  Hf4       1.0  0.19955  0.61245  0.85780  1.0000
  Hf  Hf5       1.0  0.44447  0.10393  0.38975  1.0000
  Hf  Hf6       1.0  0.44365  0.10278  0.88540  1.0000
  Hf  Hf7       1.0  0.44379  0.60119  0.38570  1.0000
  Hf  Hf8       1.0  0.45038  0.60825  0.87051  1.0000
  Hf  Hf9       1.0  0.69541  0.10990  0.37811  1.0000
  Hf  Hf10      1.0  0.69586  0.11584  0.86702  1.0000
  Hf  Hf11      1.0  0.69363  0.61297  0.37253  1.0000
  Hf  Hf12      1.0  0.69660  0.60966  0.87417  1.0000
  Hf  Hf13      1.0  0.94867  0.10613  0.38246  1.0000
  Hf  Hf14      1.0  0.94522  0.10617  0.87819  1.0000
  Hf  Hf15      1.0  0.94725  0.60697  0.37478  1.0000
  Hf  Hf16      1.0  0.94746  0.60631  0.87630  1.0000
  Hf  Hf17      1.0  0.05034  0.39038  0.13249  1.0000
  Hf  Hf18      1.0  0.04945  0.38527  0.63604  1.0000
  Hf  Hf19      1.0  0.05622  0.89109  0.12877  1.0000
  Hf  Hf20      1.0  0.05134  0.88922  0.63045  1.0000
  Hf  Hf21      1.0  0.30431  0.39307  0.11713  1.0000
  Hf  Hf22      1.0  0.30135  0.39780  0.62043  1.0000
  Hf  Hf23      1.0  0.30418  0.89271  0.12778  1.0000
  Hf  Hf24      1.0  0.30499  0.90106  0.61401  1.0000
  Hf  Hf25      1.0  0.55760  0.39701  0.11757  1.0000
  Hf  Hf26      1.0  0.55496  0.39161  0.62427  1.0000
  Hf  Hf27      1.0  0.55484  0.89485  0.12030  1.0000
  Hf  Hf28      1.0  0.55409  0.89743  0.62273  1.0000
  Hf  Hf29      1.0  0.80093  0.38856  0.13103  1.0000
  Hf  Hf30      1.0  0.80254  0.40073  0.62215  1.0000
  Hf  Hf31      1.0  0.80474  0.89103  0.12781  1.0000
  Hf  Hf32      1.0  0.80293  0.89104  0.62602  1.0000
  Hf  Hf33      1.0  0.05666  0.18683  0.41738  1.0000
  Hf  Hf34      1.0  0.05506  0.17913  0.92307  1.0000
  Hf  Hf35      1.0  0.05570  0.67919  0.41643  1.0000
  Hf  Hf36      1.0  0.05725  0.67703  0.91860  1.0000
  Hf  Hf37      1.0  0.30796  0.18663  0.40894  1.0000
  Hf  Hf38      1.0  0.30261  0.18413  0.92133  1.0000
  Hf  Hf39      1.0  0.30826  0.68544  0.41195  1.0000
  Hf  Hf40      1.0  0.30843  0.69240  0.90414  1.0000
  Hf  Hf41      1.0  0.55664  0.18593  0.41493  1.0000
  Hf  Hf42      1.0  0.55310  0.18360  0.91883  1.0000
  Hf  Hf43      1.0  0.55439  0.68470  0.41932  1.0000
  Hf  Hf44      1.0  0.55612  0.68140  0.91875  1.0000
  Hf  Hf45      1.0  0.80656  0.17658  0.41645  1.0000
  Hf  Hf46      1.0  0.80446  0.18302  0.91859  1.0000
  Hf  Hf47      1.0  0.80488  0.69340  0.41352  1.0000
  Hf  Hf48      1.0  0.80426  0.67523  0.92439  1.0000
  Hf  Hf49      1.0  0.15711  0.38546  0.33777  1.0000
  Hf  Hf50      1.0  0.15557  0.38253  0.83575  1.0000
  Hf  Hf51      1.0  0.15655  0.88026  0.33474  1.0000
  Hf  Hf52      1.0  0.15916  0.89226  0.82888  1.0000
  Hf  Hf53      1.0  0.40998  0.38871  0.33341  1.0000
  Hf  Hf54      1.0  0.40707  0.38118  0.84070  1.0000
  Hf  Hf55      1.0  0.40807  0.89165  0.33555  1.0000
  Hf  Hf56      1.0  0.41189  0.89335  0.82689  1.0000
  Hf  Hf57      1.0  0.65731  0.39014  0.32917  1.0000
  Hf  Hf58      1.0  0.65678  0.38439  0.83491  1.0000
  Hf  Hf59      1.0  0.65776  0.89343  0.33591  1.0000
  Hf  Hf60      1.0  0.65917  0.88600  0.83537  1.0000
  Hf  Hf61      1.0  0.90688  0.39100  0.33388  1.0000
  Hf  Hf62      1.0  0.90790  0.38570  0.84354  1.0000
  Hf  Hf63      1.0  0.91078  0.89120  0.33017  1.0000
  Hf  Hf64      1.0  0.90769  0.88796  0.83328  1.0000
  Hf  Hf65      1.0  0.19169  0.32101  0.07950  1.0000
  Hf  Hf66      1.0  0.19216  0.31342  0.58316  1.0000
  Hf  Hf67      1.0  0.19891  0.81826  0.07288  1.0000
  Hf  Hf68      1.0  0.19426  0.83019  0.56984  1.0000
  Hf  Hf69      1.0  0.44270  0.31416  0.09136  1.0000
  Hf  Hf70      1.0  0.44065  0.31500  0.58580  1.0000
  Hf  Hf71      1.0  0.44311  0.81345  0.08543  1.0000
  Hf  Hf72      1.0  0.44490  0.81292  0.58596  1.0000
  Hf  Hf73      1.0  0.69059  0.31701  0.08524  1.0000
  Hf  Hf74      1.0  0.69461  0.31853  0.58166  1.0000
  Hf  Hf75      1.0  0.69488  0.82194  0.08459  1.0000
  Hf  Hf76      1.0  0.69334  0.82109  0.58497  1.0000
  Hf  Hf77      1.0  0.94194  0.31720  0.08750  1.0000
  Hf  Hf78      1.0  0.94311  0.31274  0.58691  1.0000
  Hf  Hf79      1.0  0.94658  0.81188  0.08251  1.0000
  Hf  Hf80      1.0  0.94265  0.80826  0.58962  1.0000
  Hf  Hf81      1.0  0.09268  0.11331  0.17084  1.0000
  Hf  Hf82      1.0  0.09203  0.10657  0.66468  1.0000
  Hf  Hf83      1.0  0.09457  0.60930  0.16418  1.0000
  Hf  Hf84      1.0  0.09456  0.61811  0.66001  1.0000
  Hf  Hf85      1.0  0.34241  0.10811  0.16669  1.0000
  Hf  Hf86      1.0  0.33823  0.11379  0.67127  1.0000
  Hf  Hf87      1.0  0.34143  0.61458  0.16158  1.0000
  Hf  Hf88      1.0  0.34488  0.61970  0.66482  1.0000
  Hf  Hf89      1.0  0.59281  0.11616  0.16719  1.0000
  Hf  Hf90      1.0  0.59007  0.11110  0.66749  1.0000
  Hf  Hf91      1.0  0.59059  0.61351  0.16299  1.0000
  Hf  Hf92      1.0  0.59354  0.60751  0.66617  1.0000
  Hf  Hf93      1.0  0.84201  0.11438  0.16122  1.0000
  Hf  Hf94      1.0  0.84074  0.11153  0.66598  1.0000
  Hf  Hf95      1.0  0.83979  0.60931  0.16351  1.0000
  Hf  Hf96      1.0  0.84284  0.60709  0.66910  1.0000
  F   F1        1.0  0.08580  0.13708  0.29650  1.0000
  F   F2        1.0  0.07847  0.13676  0.80233  1.0000
  F   F3        1.0  0.07553  0.63293  0.29988  1.0000
  F   F4        1.0  0.08336  0.62522  0.80280  1.0000
  F   F5        1.0  0.32226  0.12500  0.31509  1.0000
  F   F6        1.0  0.32376  0.11513  0.81406  1.0000
  F   F7        1.0  0.33695  0.64462  0.29109  1.0000
  F   F8        1.0  0.33458  0.63428  0.79567  1.0000
  F   F9        1.0  0.58249  0.12354  0.30381  1.0000
  F   F10       1.0  0.57560  0.12762  0.80203  1.0000
  F   F11       1.0  0.58046  0.62569  0.29866  1.0000
  F   F12       1.0  0.58188  0.60768  0.80821  1.0000
  F   F13       1.0  0.83133  0.13071  0.30142  1.0000
  F   F14       1.0  0.82797  0.10876  0.81474  1.0000
  F   F15       1.0  0.83003  0.63266  0.29842  1.0000
  F   F16       1.0  0.82910  0.61843  0.80704  1.0000
  F   F17       1.0  0.19085  0.34543  0.44357  1.0000
  F   F18       1.0  0.18306  0.33604  0.95074  1.0000
  F   F19       1.0  0.18417  0.83845  0.44056  1.0000
  F   F20       1.0  0.18919  0.83925  0.93667  1.0000
  F   F21       1.0  0.43749  0.33505  0.44443  1.0000
  F   F22       1.0  0.43083  0.32658  0.95431  1.0000
  F   F23       1.0  0.43555  0.82709  0.45192  1.0000
  F   F24       1.0  0.43303  0.83736  0.94905  1.0000
  F   F25       1.0  0.68933  0.35398  0.43592  1.0000
  F   F26       1.0  0.67667  0.33987  0.95212  1.0000
  F   F27       1.0  0.68716  0.84981  0.44345  1.0000
  F   F28       1.0  0.69146  0.84431  0.93856  1.0000
  F   F29       1.0  0.93456  0.35552  0.43983  1.0000
  F   F30       1.0  0.93719  0.34170  0.94406  1.0000
  F   F31       1.0  0.94202  0.84380  0.44118  1.0000
  F   F32       1.0  0.94101  0.85131  0.93389  1.0000
  F   F33       1.0  0.16890  0.37383  0.19497  1.0000
  F   F34       1.0  0.16698  0.36750  0.69852  1.0000
  F   F35       1.0  0.17594  0.87058  0.18946  1.0000
  F   F36       1.0  0.17541  0.89348  0.67549  1.0000
  F   F37       1.0  0.42706  0.37733  0.19582  1.0000
  F   F38       1.0  0.41910  0.37287  0.69575  1.0000
  F   F39       1.0  0.41837  0.87711  0.19671  1.0000
  F   F40       1.0  0.41751  0.86916  0.69813  1.0000
  F   F41       1.0  0.67362  0.37308  0.19057  1.0000
  F   F42       1.0  0.66929  0.36493  0.69641  1.0000
  F   F43       1.0  0.67470  0.86798  0.19582  1.0000
  F   F44       1.0  0.67495  0.87814  0.69203  1.0000
  F   F45       1.0  0.92138  0.37409  0.18859  1.0000
  F   F46       1.0  0.92036  0.35344  0.70418  1.0000
  F   F47       1.0  0.92097  0.85943  0.19788  1.0000
  F   F48       1.0  0.91738  0.84600  0.71180  1.0000
  F   F49       1.0  0.06406  0.15457  0.06456  1.0000
  F   F50       1.0  0.06603  0.16572  0.54863  1.0000
  F   F51       1.0  0.06260  0.65038  0.06095  1.0000
  F   F52       1.0  0.07424  0.66663  0.53776  1.0000
  F   F53       1.0  0.31261  0.15510  0.06670  1.0000
  F   F54       1.0  0.31904  0.16059  0.55024  1.0000
  F   F55       1.0  0.31897  0.66300  0.04436  1.0000
  F   F56       1.0  0.31083  0.65570  0.55475  1.0000
  F   F57       1.0  0.56123  0.15476  0.05734  1.0000
  F   F58       1.0  0.56758  0.16981  0.54556  1.0000
  F   F59       1.0  0.56635  0.67346  0.04499  1.0000
  F   F60       1.0  0.56278  0.65455  0.55989  1.0000
  F   F61       1.0  0.81583  0.16718  0.04825  1.0000
  F   F62       1.0  0.80752  0.15365  0.56207  1.0000
  F   F63       1.0  0.81284  0.66409  0.05626  1.0000
  F   F64       1.0  0.81428  0.66285  0.55779  1.0000
  F   F65       1.0  0.20213  0.20237  0.21280  1.0000
  F   F66       1.0  0.20568  0.20021  0.70935  1.0000
  F   F67       1.0  0.20986  0.70612  0.21412  1.0000
  F   F68       1.0  0.20540  0.71694  0.69457  1.0000
  F   F69       1.0  0.45202  0.20659  0.22217  1.0000
  F   F70       1.0  0.44844  0.19804  0.70686  1.0000
  F   F71       1.0  0.44854  0.69693  0.21261  1.0000
  F   F72       1.0  0.45750  0.70945  0.70726  1.0000
  F   F73       1.0  0.69957  0.20366  0.21471  1.0000
  F   F74       1.0  0.70437  0.20020  0.70297  1.0000
  F   F75       1.0  0.69944  0.70230  0.21263  1.0000
  F   F76       1.0  0.70035  0.69981  0.71356  1.0000
  F   F77       1.0  0.95781  0.20840  0.21167  1.0000
  F   F78       1.0  0.95181  0.19961  0.72475  1.0000
  F   F79       1.0  0.96076  0.69790  0.19754  1.0000
  F   F80       1.0  0.95114  0.69503  0.71397  1.0000
  F   F81       1.0  0.15043  0.09475  0.03203  1.0000
  F   F82       1.0  0.15213  0.07361  0.54576  1.0000
  F   F83       1.0  0.14991  0.59155  0.04116  1.0000
  F   F84       1.0  0.15180  0.58982  0.54165  1.0000
  F   F85       1.0  0.40162  0.07677  0.05025  1.0000
  F   F86       1.0  0.40133  0.08471  0.54110  1.0000
  F   F87       1.0  0.40443  0.58702  0.03582  1.0000
  F   F88       1.0  0.40633  0.60399  0.53944  1.0000
  F   F89       1.0  0.65092  0.09855  0.02917  1.0000
  F   F90       1.0  0.65061  0.08015  0.53927  1.0000
  F   F91       1.0  0.64545  0.59565  0.03727  1.0000
  F   F92       1.0  0.65079  0.59369  0.52584  1.0000
  F   F93       1.0  0.89717  0.08282  0.04040  1.0000
  F   F94       1.0  0.90469  0.09223  0.54137  1.0000
  F   F95       1.0  0.89619  0.59007  0.03704  1.0000
  F   F96       1.0  0.89910  0.58653  0.53117  1.0000
  F   F97       1.0  0.15071  0.19665  0.12345  1.0000
  F   F98       1.0  0.15816  0.19027  0.60189  1.0000
  F   F99       1.0  0.15835  0.69274  0.12920  1.0000
  F   F100      1.0  0.15119  0.71031  0.62316  1.0000
  F   F101      1.0  0.39777  0.18259  0.14652  1.0000
  F   F102      1.0  0.39223  0.19624  0.63200  1.0000
  F   F103      1.0  0.40269  0.69586  0.11444  1.0000
  F   F104      1.0  0.40447  0.68931  0.63902  1.0000
  F   F105      1.0  0.65380  0.19603  0.12112  1.0000
  F   F106      1.0  0.65028  0.19084  0.62560  1.0000
  F   F107      1.0  0.65178  0.70218  0.11009  1.0000
  F   F108      1.0  0.64772  0.70358  0.61522  1.0000
  F   F109      1.0  0.90012  0.19271  0.12175  1.0000
  F   F110      1.0  0.90029  0.19452  0.62989  1.0000
  F   F111      1.0  0.90594  0.69730  0.11756  1.0000
  F   F112      1.0  0.90299  0.69484  0.61508  1.0000
  F   F113      1.0  0.09633  0.30550  0.37272  1.0000
  F   F114      1.0  0.09532  0.29869  0.89206  1.0000
  F   F115      1.0  0.10138  0.79831  0.36965  1.0000
  F   F116      1.0  0.10084  0.79967  0.87437  1.0000
  F   F117      1.0  0.35208  0.29385  0.37868  1.0000
  F   F118      1.0  0.34620  0.29563  0.88318  1.0000
  F   F119      1.0  0.34921  0.79665  0.38030  1.0000
  F   F120      1.0  0.35275  0.80334  0.87250  1.0000
  F   F121      1.0  0.59555  0.31471  0.36280  1.0000
  F   F122      1.0  0.59911  0.30094  0.89108  1.0000
  F   F123      1.0  0.60176  0.79849  0.37825  1.0000
  F   F124      1.0  0.60283  0.80542  0.87131  1.0000
  F   F125      1.0  0.84726  0.29864  0.35831  1.0000
  F   F126      1.0  0.84405  0.31155  0.87219  1.0000
  F   F127      1.0  0.84381  0.80873  0.37179  1.0000
  F   F128      1.0  0.84726  0.80344  0.88834  1.0000
  F   F129      1.0  0.06404  0.24891  0.14696  1.0000
  F   F130      1.0  0.06546  0.24512  0.64398  1.0000
  F   F131      1.0  0.07479  0.74553  0.12782  1.0000
  F   F132      1.0  0.07129  0.75663  0.62478  1.0000
  F   F133      1.0  0.30607  0.25122  0.15383  1.0000
  F   F134      1.0  0.30908  0.26120  0.64039  1.0000
  F   F135      1.0  0.31069  0.74892  0.15075  1.0000
  F   F136      1.0  0.31731  0.75599  0.63287  1.0000
  F   F137      1.0  0.57427  0.25836  0.11684  1.0000
  F   F138      1.0  0.55905  0.24243  0.66095  1.0000
  F   F139      1.0  0.56503  0.75270  0.14671  1.0000
  F   F140      1.0  0.56437  0.75219  0.64550  1.0000
  F   F141      1.0  0.81896  0.24749  0.14084  1.0000
  F   F142      1.0  0.81423  0.25018  0.64004  1.0000
  F   F143      1.0  0.81770  0.76374  0.12639  1.0000
  F   F144      1.0  0.81605  0.74802  0.64884  1.0000
  F   F145      1.0  0.12200  0.36754  0.11537  1.0000
  F   F146      1.0  0.11879  0.36890  0.60869  1.0000
  F   F147      1.0  0.12596  0.87881  0.11203  1.0000
  F   F148      1.0  0.12638  0.88540  0.58658  1.0000
  F   F149      1.0  0.37499  0.35164  0.11528  1.0000
  F   F150      1.0  0.37226  0.36591  0.61275  1.0000
  F   F151      1.0  0.37553  0.85861  0.11084  1.0000
  F   F152      1.0  0.37301  0.87087  0.60426  1.0000
  F   F153      1.0  0.62501  0.38125  0.10841  1.0000
  F   F154      1.0  0.62532  0.36398  0.60076  1.0000
  F   F155      1.0  0.62399  0.87848  0.10901  1.0000
  F   F156      1.0  0.62310  0.87733  0.61057  1.0000
  F   F157      1.0  0.87114  0.36917  0.11100  1.0000
  F   F158      1.0  0.87325  0.37632  0.59246  1.0000
  F   F159      1.0  0.87862  0.86846  0.11237  1.0000
  F   F160      1.0  0.87599  0.87259  0.59927  1.0000
  F   F161      1.0  0.17890  0.24842  0.36170  1.0000
  F   F162      1.0  0.17453  0.24233  0.87000  1.0000
  F   F163      1.0  0.18768  0.74218  0.35955  1.0000
  F   F164      1.0  0.18611  0.75701  0.84270  1.0000
  F   F165      1.0  0.43895  0.24683  0.35682  1.0000
  F   F166      1.0  0.44008  0.24887  0.84526  1.0000
  F   F167      1.0  0.44101  0.74180  0.35337  1.0000
  F   F168      1.0  0.43454  0.74520  0.85890  1.0000
  F   F169      1.0  0.67780  0.24873  0.37472  1.0000
  F   F170      1.0  0.68878  0.25054  0.84639  1.0000
  F   F171      1.0  0.68863  0.75619  0.35008  1.0000
  F   F172      1.0  0.68092  0.73931  0.87199  1.0000
  F   F173      1.0  0.93166  0.24736  0.36796  1.0000
  F   F174      1.0  0.93028  0.24565  0.86479  1.0000
  F   F175      1.0  0.93610  0.75359  0.34392  1.0000
  F   F176      1.0  0.94032  0.74143  0.86604  1.0000
  F   F177      1.0  0.12519  0.12635  0.39670  1.0000
  F   F178      1.0  0.12304  0.12460  0.89222  1.0000
  F   F179      1.0  0.12332  0.61677  0.40513  1.0000
  F   F180      1.0  0.12842  0.62432  0.88724  1.0000
  F   F181      1.0  0.37893  0.12201  0.38973  1.0000
  F   F182      1.0  0.37580  0.13216  0.89530  1.0000
  F   F183      1.0  0.37405  0.60375  0.40928  1.0000
  F   F184      1.0  0.37963  0.63785  0.87707  1.0000
  F   F185      1.0  0.62722  0.14625  0.38217  1.0000
  F   F186      1.0  0.62111  0.13047  0.89138  1.0000
  F   F187      1.0  0.62489  0.64012  0.39177  1.0000
  F   F188      1.0  0.62151  0.61803  0.90049  1.0000
  F   F189      1.0  0.87747  0.12694  0.40512  1.0000
  F   F190      1.0  0.87207  0.14128  0.89043  1.0000
  F   F191      1.0  0.87561  0.64009  0.38608  1.0000
  F   F192      1.0  0.87596  0.62620  0.88585  1.0000
  F   F193      1.0  0.00889  0.36761  0.07647  1.0000
  F   F194      1.0  0.00918  0.36517  0.57186  1.0000
  F   F195      1.0  0.00955  0.85433  0.08905  1.0000
  F   F196      1.0  0.00535  0.85445  0.58433  1.0000
  F   F197      1.0  0.25546  0.36910  0.06554  1.0000
  F   F198      1.0  0.25300  0.36726  0.57333  1.0000
  F   F199      1.0  0.26138  0.87302  0.05693  1.0000
  F   F200      1.0  0.25890  0.86739  0.56757  1.0000
  F   F201      1.0  0.50805  0.35553  0.08754  1.0000
  F   F202      1.0  0.50597  0.35217  0.58748  1.0000
  F   F203      1.0  0.50551  0.86010  0.07094  1.0000
  F   F204      1.0  0.50921  0.86096  0.57870  1.0000
  F   F205      1.0  0.76198  0.34971  0.07563  1.0000
  F   F206      1.0  0.75636  0.36599  0.57673  1.0000
  F   F207      1.0  0.75979  0.86929  0.06717  1.0000
  F   F208      1.0  0.76045  0.85722  0.57117  1.0000
  F   F209      1.0  0.06470  0.48850  0.18123  1.0000
  F   F210      1.0  0.06875  0.48490  0.67959  1.0000
  F   F211      1.0  0.06884  0.99546  0.18032  1.0000
  F   F212      1.0  0.06655  0.98802  0.66761  1.0000
  F   F213      1.0  0.32317  0.48350  0.15944  1.0000
  F   F214      1.0  0.32695  0.48572  0.66520  1.0000
  F   F215      1.0  0.32134  0.98994  0.16455  1.0000
  F   F216      1.0  0.32651  0.98892  0.67052  1.0000
  F   F217      1.0  0.56822  0.49418  0.16485  1.0000
  F   F218      1.0  0.57639  0.47384  0.67257  1.0000
  F   F219      1.0  0.56521  0.98749  0.18031  1.0000
  F   F220      1.0  0.56397  0.98726  0.67647  1.0000
  F   F221      1.0  0.81812  0.48381  0.17618  1.0000
  F   F222      1.0  0.81221  0.49189  0.67804  1.0000
  F   F223      1.0  0.82230  0.97510  0.18392  1.0000
  F   F224      1.0  0.81755  0.98473  0.68059  1.0000
  F   F225      1.0  0.23952  0.14669  0.42352  1.0000
  F   F226      1.0  0.24225  0.14007  0.92157  1.0000
  F   F227      1.0  0.24646  0.64566  0.41161  1.0000
  F   F228      1.0  0.24687  0.64378  0.89670  1.0000
  F   F229      1.0  0.49338  0.12556  0.43601  1.0000
  F   F230      1.0  0.49086  0.14511  0.92782  1.0000
  F   F231      1.0  0.49613  0.63075  0.42920  1.0000
  F   F232      1.0  0.49490  0.63618  0.91890  1.0000
  F   F233      1.0  0.74153  0.13705  0.42341  1.0000
  F   F234      1.0  0.74188  0.13257  0.92755  1.0000
  F   F235      1.0  0.74181  0.63981  0.42762  1.0000
  F   F236      1.0  0.73967  0.62968  0.93705  1.0000
  F   F237      1.0  0.99301  0.14748  0.42905  1.0000
  F   F238      1.0  0.99205  0.14144  0.92356  1.0000
  F   F239      1.0  0.98848  0.63587  0.42784  1.0000
  F   F240      1.0  0.99305  0.62336  0.95301  1.0000
  F   F241      1.0  0.18537  0.00539  0.32025  1.0000
  F   F242      1.0  0.18177  0.01588  0.81149  1.0000
  F   F243      1.0  0.18144  0.52060  0.32521  1.0000
  F   F244      1.0  0.18159  0.51437  0.81411  1.0000
  F   F245      1.0  0.43254  0.00480  0.33345  1.0000
  F   F246      1.0  0.43381  0.01433  0.82383  1.0000
  F   F247      1.0  0.43132  0.51652  0.32083  1.0000
  F   F248      1.0  0.42618  0.51016  0.83859  1.0000
  F   F249      1.0  0.67687  0.01535  0.33747  1.0000
  F   F250      1.0  0.68076  0.01570  0.82412  1.0000
  F   F251      1.0  0.67893  0.53297  0.31659  1.0000
  F   F252      1.0  0.68195  0.51121  0.82879  1.0000
  F   F253      1.0  0.93674  0.01549  0.32566  1.0000
  F   F254      1.0  0.92774  0.02462  0.82147  1.0000
  F   F255      1.0  0.92020  0.52105  0.32777  1.0000
  F   F256      1.0  0.93363  0.51555  0.82649  1.0000
  F   F257      1.0  0.00117  0.25020  0.00362  1.0000
  F   F258      1.0  0.00113  0.24664  0.51361  1.0000
  F   F259      1.0  0.00977  0.77012  0.97290  1.0000
  F   F260      1.0  0.00374  0.73706  0.50884  1.0000
  F   F261      1.0  0.24937  0.23997  0.00750  1.0000
  F   F262      1.0  0.25108  0.24846  0.50395  1.0000
  F   F263      1.0  0.25447  0.74830  0.99620  1.0000
  F   F264      1.0  0.25315  0.76582  0.48296  1.0000
  F   F265      1.0  0.49608  0.25190  0.00693  1.0000
  F   F266      1.0  0.50590  0.26117  0.48150  1.0000
  F   F267      1.0  0.49816  0.74199  0.00044  1.0000
  F   F268      1.0  0.50114  0.74545  0.50475  1.0000
  F   F269      1.0  0.74932  0.24875  0.99751  1.0000
  F   F270      1.0  0.74995  0.24837  0.49709  1.0000
  F   F271      1.0  0.74897  0.74171  0.00485  1.0000
  F   F272      1.0  0.74556  0.75340  0.49940  1.0000
  F   F273      1.0  0.12867  0.99858  0.25167  1.0000
  F   F274      1.0  0.11562  0.99333  0.75932  1.0000
  F   F275      1.0  0.12576  0.49936  0.25281  1.0000
  F   F276      1.0  0.11941  0.49629  0.75959  1.0000
  F   F277      1.0  0.36997  0.99597  0.25802  1.0000
  F   F278      1.0  0.38565  0.01451  0.73871  1.0000
  F   F279      1.0  0.37184  0.49633  0.25348  1.0000
  F   F280      1.0  0.36914  0.49445  0.76067  1.0000
  F   F281      1.0  0.62072  0.99986  0.26089  1.0000
  F   F282      1.0  0.62265  0.99878  0.74770  1.0000
  F   F283      1.0  0.63638  0.50544  0.22831  1.0000
  F   F284      1.0  0.63501  0.50794  0.73177  1.0000
  F   F285      1.0  0.88062  0.00178  0.24709  1.0000
  F   F286      1.0  0.87717  0.99286  0.73851  1.0000
  F   F287      1.0  0.87448  0.49677  0.24321  1.0000
  F   F288      1.0  0.87678  0.49619  0.74242  1.0000
  F   F289      1.0  0.04285  0.03338  0.03717  1.0000
  F   F290      1.0  0.04346  0.02944  0.51700  1.0000
  F   F291      1.0  0.05165  0.53070  0.01851  1.0000
  F   F292      1.0  0.03778  0.53021  0.53833  1.0000
  F   F293      1.0  0.29121  0.02891  0.02885  1.0000
  F   F294      1.0  0.29112  0.03750  0.52144  1.0000
  F   F295      1.0  0.29401  0.54087  0.01232  1.0000
  F   F296      1.0  0.29297  0.52601  0.51336  1.0000
  F   F297      1.0  0.54334  0.02902  0.01708  1.0000
  F   F298      1.0  0.54334  0.03304  0.52609  1.0000
  F   F299      1.0  0.53776  0.54257  0.02769  1.0000
  F   F300      1.0  0.54432  0.52382  0.53264  1.0000
  F   F301      1.0  0.79338  0.03159  0.02345  1.0000
  F   F302      1.0  0.79646  0.02921  0.51310  1.0000
  F   F303      1.0  0.79551  0.52847  0.02030  1.0000
  F   F304      1.0  0.79772  0.53260  0.51428  1.0000
  F   F305      1.0  0.23290  0.40901  0.23019  1.0000
  F   F306      1.0  0.23641  0.39513  0.73794  1.0000
  F   F307      1.0  0.23978  0.90273  0.22444  1.0000
  F   F308      1.0  0.23724  0.91476  0.72057  1.0000
  F   F309      1.0  0.48640  0.41431  0.23123  1.0000
  F   F310      1.0  0.48470  0.40109  0.73312  1.0000
  F   F311      1.0  0.48757  0.91033  0.22864  1.0000
  F   F312      1.0  0.48192  0.92082  0.71959  1.0000
  F   F313      1.0  0.73300  0.43192  0.21282  1.0000
  F   F314      1.0  0.72947  0.41232  0.72234  1.0000
  F   F315      1.0  0.73136  0.93972  0.21241  1.0000
  F   F316      1.0  0.73663  0.91096  0.72327  1.0000
  F   F317      1.0  0.98409  0.42940  0.22351  1.0000
  F   F318      1.0  0.98018  0.41371  0.73992  1.0000
  F   F319      1.0  0.98250  0.91716  0.22660  1.0000
  F   F320      1.0  0.98158  0.91810  0.72483  1.0000
  F   F321      1.0  0.20476  0.47166  0.48096  1.0000
  F   F322      1.0  0.20356  0.47707  0.97609  1.0000
  F   F323      1.0  0.21389  0.97526  0.46667  1.0000
  F   F324      1.0  0.20641  0.97337  0.97006  1.0000
  F   F325      1.0  0.45610  0.46638  0.47264  1.0000
  F   F326      1.0  0.46277  0.45951  0.96237  1.0000
  F   F327      1.0  0.46025  0.96259  0.47509  1.0000
  F   F328      1.0  0.46229  0.96922  0.96695  1.0000
  F   F329      1.0  0.70483  0.46797  0.48134  1.0000
  F   F330      1.0  0.70878  0.46482  0.97166  1.0000
  F   F331      1.0  0.70898  0.97193  0.48016  1.0000
  F   F332      1.0  0.70747  0.97554  0.96759  1.0000
  F   F333      1.0  0.95762  0.46356  0.47641  1.0000
  F   F334      1.0  0.96308  0.47044  0.96960  1.0000
  F   F335      1.0  0.95574  0.96539  0.48075  1.0000
  F   F336      1.0  0.96350  0.96209  0.97868  1.0000
  F   F337      1.0  0.01579  0.09515  0.28183  1.0000
  F   F338      1.0  0.01527  0.07653  0.76884  1.0000
  F   F339      1.0  0.01617  0.57719  0.28295  1.0000
  F   F340      1.0  0.01812  0.60672  0.76319  1.0000
  F   F341      1.0  0.26523  0.08449  0.28194  1.0000
  F   F342      1.0  0.26465  0.09191  0.76801  1.0000
  F   F343      1.0  0.26987  0.55894  0.29522  1.0000
  F   F344      1.0  0.26592  0.58547  0.75620  1.0000
  F   F345      1.0  0.51798  0.09817  0.27251  1.0000
  F   F346      1.0  0.51012  0.09972  0.77159  1.0000
  F   F347      1.0  0.51029  0.59299  0.26192  1.0000
  F   F348      1.0  0.51856  0.57602  0.77331  1.0000
  F   F349      1.0  0.76663  0.09200  0.26927  1.0000
  F   F350      1.0  0.76528  0.08831  0.77255  1.0000
  F   F351      1.0  0.76391  0.59329  0.26166  1.0000
  F   F352      1.0  0.76421  0.58471  0.78158  1.0000
  F   F353      1.0  0.09960  0.39647  0.46815  1.0000
  F   F354      1.0  0.10008  0.40494  0.96586  1.0000
  F   F355      1.0  0.09935  0.91339  0.45350  1.0000
  F   F356      1.0  0.10178  0.90668  0.97071  1.0000
  F   F357      1.0  0.34871  0.39928  0.46776  1.0000
  F   F358      1.0  0.34937  0.39709  0.97608  1.0000
  F   F359      1.0  0.35172  0.92006  0.45738  1.0000
  F   F360      1.0  0.35184  0.90990  0.96204  1.0000
  F   F361      1.0  0.60039  0.39763  0.46474  1.0000
  F   F362      1.0  0.59680  0.41887  0.95310  1.0000
  F   F363      1.0  0.60216  0.90116  0.47111  1.0000
  F   F364      1.0  0.60686  0.90375  0.96059  1.0000
  F   F365      1.0  0.84635  0.39296  0.45565  1.0000
  F   F366      1.0  0.85496  0.41206  0.96340  1.0000
  F   F367      1.0  0.85212  0.90208  0.45404  1.0000
  F   F368      1.0  0.85338  0.90915  0.96504  1.0000
  F   F369      1.0  0.04180  0.30349  0.29343  1.0000
  F   F370      1.0  0.05144  0.29800  0.78698  1.0000
  F   F371      1.0  0.04859  0.80197  0.27961  1.0000
  F   F372      1.0  0.04901  0.79445  0.78148  1.0000
  F   F373      1.0  0.29886  0.31012  0.29039  1.0000
  F   F374      1.0  0.29271  0.28468  0.80330  1.0000
  F   F375      1.0  0.29975  0.80278  0.29263  1.0000
  F   F376      1.0  0.29746  0.80421  0.78148  1.0000
  F   F377      1.0  0.54466  0.29076  0.27302  1.0000
  F   F378      1.0  0.55239  0.30486  0.79303  1.0000
  F   F379      1.0  0.54996  0.80023  0.29016  1.0000
  F   F380      1.0  0.54128  0.79305  0.79541  1.0000
  F   F381      1.0  0.78516  0.29409  0.29287  1.0000
  F   F382      1.0  0.79944  0.29927  0.77647  1.0000
  F   F383      1.0  0.79175  0.79427  0.28434  1.0000
  F   F384      1.0  0.80464  0.79026  0.79139  1.0000
