data_image0
_chemical_formula_structural       Hf96F384
_chemical_formula_sum              "Hf96 F384"
_cell_length_a       31.027
_cell_length_b       15.509
_cell_length_c       15.5033
_cell_angle_alpha    63.342
_cell_angle_beta     63.342
_cell_angle_gamma    80.1625

_space_group_name_H-M_alt    "P 1"
_space_group_IT_number       1

loop_
  _space_group_symop_operation_xyz
  'x, y, z'

loop_
  _atom_site_type_symbol
  _atom_site_label
  _atom_site_symmetry_multiplicity
  _atom_site_fract_x
  _atom_site_fract_y
  _atom_site_fract_z
  _atom_site_occupancy
  Hf  Hf1       1.0  0.19745  0.11534  0.37413  1.0000
  Hf  Hf2       1.0  0.19396  0.10770  0.87671  1.0000
  Hf  Hf3       1.0  0.19732  0.61176  0.36843  1.0000
  Hf  Hf4       1.0  0.19915  0.61570  0.86514  1.0000
  Hf  Hf5       1.0  0.44585  0.10472  0.37412  1.0000
  Hf  Hf6       1.0  0.44749  0.10998  0.87242  1.0000
  Hf  Hf7       1.0  0.44571  0.60996  0.37371  1.0000
  Hf  Hf8       1.0  0.44632  0.60183  0.87663  1.0000
  Hf  Hf9       1.0  0.69869  0.11062  0.36672  1.0000
  Hf  Hf10      1.0  0.69663  0.09903  0.87796  1.0000
  Hf  Hf11      1.0  0.69665  0.60016  0.38257  1.0000
  Hf  Hf12      1.0  0.69359  0.61046  0.87545  1.0000
  Hf  Hf13      1.0  0.94697  0.10833  0.37800  1.0000
  Hf  Hf14      1.0  0.95278  0.11362  0.86723  1.0000
  Hf  Hf15      1.0  0.94989  0.60875  0.36114  1.0000
  Hf  Hf16      1.0  0.94314  0.61008  0.88474  1.0000
  Hf  Hf17      1.0  0.05671  0.40402  0.11659  1.0000
  Hf  Hf18      1.0  0.04996  0.39736  0.62563  1.0000
  Hf  Hf19      1.0  0.05176  0.89634  0.12926  1.0000
  Hf  Hf20      1.0  0.05484  0.89292  0.62884  1.0000
  Hf  Hf21      1.0  0.30586  0.40158  0.11476  1.0000
  Hf  Hf22      1.0  0.30078  0.39087  0.62466  1.0000
  Hf  Hf23      1.0  0.30172  0.88594  0.13711  1.0000
  Hf  Hf24      1.0  0.30011  0.89268  0.62766  1.0000
  Hf  Hf25      1.0  0.55326  0.38434  0.13401  1.0000
  Hf  Hf26      1.0  0.55359  0.39175  0.63167  1.0000
  Hf  Hf27      1.0  0.55779  0.89178  0.12060  1.0000
  Hf  Hf28      1.0  0.55495  0.88722  0.62313  1.0000
  Hf  Hf29      1.0  0.80282  0.39121  0.12381  1.0000
  Hf  Hf30      1.0  0.80094  0.39328  0.62636  1.0000
  Hf  Hf31      1.0  0.80181  0.89000  0.13356  1.0000
  Hf  Hf32      1.0  0.80410  0.88869  0.62018  1.0000
  Hf  Hf33      1.0  0.05626  0.17603  0.41890  1.0000
  Hf  Hf34      1.0  0.05492  0.18785  0.92140  1.0000
  Hf  Hf35      1.0  0.05419  0.68837  0.41525  1.0000
  Hf  Hf36      1.0  0.05493  0.68324  0.91667  1.0000
  Hf  Hf37      1.0  0.30536  0.18312  0.41409  1.0000
  Hf  Hf38      1.0  0.30474  0.18286  0.91551  1.0000
  Hf  Hf39      1.0  0.30655  0.68014  0.41554  1.0000
  Hf  Hf40      1.0  0.31062  0.68704  0.90627  1.0000
  Hf  Hf41      1.0  0.55862  0.17668  0.42039  1.0000
  Hf  Hf42      1.0  0.55019  0.17572  0.92771  1.0000
  Hf  Hf43      1.0  0.55261  0.67980  0.41829  1.0000
  Hf  Hf44      1.0  0.55102  0.67084  0.93043  1.0000
  Hf  Hf45      1.0  0.80756  0.18341  0.41714  1.0000
  Hf  Hf46      1.0  0.80524  0.18664  0.91610  1.0000
  Hf  Hf47      1.0  0.80653  0.67765  0.42151  1.0000
  Hf  Hf48      1.0  0.80484  0.67877  0.91718  1.0000
  Hf  Hf49      1.0  0.15740  0.39411  0.32932  1.0000
  Hf  Hf50      1.0  0.15983  0.39344  0.82189  1.0000
  Hf  Hf51      1.0  0.16042  0.89684  0.32408  1.0000
  Hf  Hf52      1.0  0.15620  0.88711  0.83818  1.0000
  Hf  Hf53      1.0  0.41375  0.38762  0.33593  1.0000
  Hf  Hf54      1.0  0.40813  0.38426  0.83216  1.0000
  Hf  Hf55      1.0  0.40880  0.89135  0.32771  1.0000
  Hf  Hf56      1.0  0.41129  0.89116  0.82648  1.0000
  Hf  Hf57      1.0  0.65798  0.39513  0.33035  1.0000
  Hf  Hf58      1.0  0.65660  0.38125  0.84069  1.0000
  Hf  Hf59      1.0  0.66043  0.88162  0.33594  1.0000
  Hf  Hf60      1.0  0.65645  0.88273  0.83137  1.0000
  Hf  Hf61      1.0  0.90782  0.39293  0.33262  1.0000
  Hf  Hf62      1.0  0.90964  0.39134  0.83966  1.0000
  Hf  Hf63      1.0  0.90824  0.88801  0.33386  1.0000
  Hf  Hf64      1.0  0.91149  0.89544  0.83572  1.0000
  Hf  Hf65      1.0  0.19666  0.32877  0.07210  1.0000
  Hf  Hf66      1.0  0.19071  0.32009  0.58292  1.0000
  Hf  Hf67      1.0  0.19737  0.81983  0.08154  1.0000
  Hf  Hf68      1.0  0.19392  0.81517  0.58382  1.0000
  Hf  Hf69      1.0  0.44155  0.31650  0.08837  1.0000
  Hf  Hf70      1.0  0.44538  0.31859  0.57972  1.0000
  Hf  Hf71      1.0  0.44449  0.82530  0.07437  1.0000
  Hf  Hf72      1.0  0.44090  0.82149  0.58582  1.0000
  Hf  Hf73      1.0  0.69300  0.31424  0.08571  1.0000
  Hf  Hf74      1.0  0.69539  0.30777  0.58387  1.0000
  Hf  Hf75      1.0  0.69276  0.80519  0.09097  1.0000
  Hf  Hf76      1.0  0.69088  0.82121  0.57894  1.0000
  Hf  Hf77      1.0  0.94033  0.31518  0.09326  1.0000
  Hf  Hf78      1.0  0.94277  0.31379  0.58492  1.0000
  Hf  Hf79      1.0  0.94331  0.82617  0.08329  1.0000
  Hf  Hf80      1.0  0.94692  0.81324  0.58713  1.0000
  Hf  Hf81      1.0  0.09440  0.12239  0.15775  1.0000
  Hf  Hf82      1.0  0.09315  0.11768  0.65712  1.0000
  Hf  Hf83      1.0  0.09303  0.62126  0.16080  1.0000
  Hf  Hf84      1.0  0.09127  0.60866  0.66712  1.0000
  Hf  Hf85      1.0  0.33728  0.11260  0.16985  1.0000
  Hf  Hf86      1.0  0.34004  0.11031  0.66375  1.0000
  Hf  Hf87      1.0  0.34589  0.61455  0.15612  1.0000
  Hf  Hf88      1.0  0.34491  0.60946  0.65882  1.0000
  Hf  Hf89      1.0  0.58888  0.10379  0.17666  1.0000
  Hf  Hf90      1.0  0.59456  0.10463  0.66916  1.0000
  Hf  Hf91      1.0  0.58721  0.60659  0.17361  1.0000
  Hf  Hf92      1.0  0.59246  0.60842  0.67195  1.0000
  Hf  Hf93      1.0  0.84142  0.10828  0.17411  1.0000
  Hf  Hf94      1.0  0.84238  0.10676  0.67150  1.0000
  Hf  Hf95      1.0  0.83926  0.61779  0.16550  1.0000
  Hf  Hf96      1.0  0.84299  0.61179  0.65915  1.0000
  F   F1        1.0  0.07959  0.12700  0.29758  1.0000
  F   F2        1.0  0.08361  0.13798  0.79582  1.0000
  F   F3        1.0  0.08078  0.65020  0.29636  1.0000
  F   F4        1.0  0.07761  0.63085  0.80507  1.0000
  F   F5        1.0  0.32409  0.12506  0.30957  1.0000
  F   F6        1.0  0.32136  0.12428  0.81317  1.0000
  F   F7        1.0  0.33755  0.63384  0.28745  1.0000
  F   F8        1.0  0.33496  0.64130  0.79040  1.0000
  F   F9        1.0  0.58124  0.11853  0.30812  1.0000
  F   F10       1.0  0.57896  0.13426  0.80891  1.0000
  F   F11       1.0  0.57661  0.61435  0.31329  1.0000
  F   F12       1.0  0.57409  0.61471  0.81340  1.0000
  F   F13       1.0  0.83071  0.12928  0.30476  1.0000
  F   F14       1.0  0.82564  0.11785  0.82311  1.0000
  F   F15       1.0  0.82793  0.62814  0.30539  1.0000
  F   F16       1.0  0.82983  0.61640  0.80901  1.0000
  F   F17       1.0  0.18374  0.35027  0.44589  1.0000
  F   F18       1.0  0.18783  0.35016  0.93024  1.0000
  F   F19       1.0  0.19211  0.85308  0.43339  1.0000
  F   F20       1.0  0.19209  0.85048  0.93518  1.0000
  F   F21       1.0  0.44182  0.34720  0.44034  1.0000
  F   F22       1.0  0.42318  0.33286  0.95720  1.0000
  F   F23       1.0  0.42997  0.84770  0.44986  1.0000
  F   F24       1.0  0.44439  0.85219  0.92949  1.0000
  F   F25       1.0  0.68016  0.34001  0.45124  1.0000
  F   F26       1.0  0.68078  0.32434  0.95367  1.0000
  F   F27       1.0  0.68948  0.84169  0.43912  1.0000
  F   F28       1.0  0.68513  0.84310  0.93878  1.0000
  F   F29       1.0  0.93827  0.35208  0.43859  1.0000
  F   F30       1.0  0.93855  0.34234  0.94944  1.0000
  F   F31       1.0  0.93178  0.84092  0.44714  1.0000
  F   F32       1.0  0.94487  0.84426  0.93903  1.0000
  F   F33       1.0  0.17098  0.38776  0.18720  1.0000
  F   F34       1.0  0.17630  0.38459  0.68342  1.0000
  F   F35       1.0  0.17082  0.85356  0.20511  1.0000
  F   F36       1.0  0.17438  0.87263  0.69255  1.0000
  F   F37       1.0  0.41996  0.34687  0.21424  1.0000
  F   F38       1.0  0.42813  0.38394  0.67989  1.0000
  F   F39       1.0  0.42046  0.89271  0.18276  1.0000
  F   F40       1.0  0.42729  0.88423  0.68463  1.0000
  F   F41       1.0  0.66942  0.35441  0.20722  1.0000
  F   F42       1.0  0.67933  0.37376  0.69139  1.0000
  F   F43       1.0  0.67363  0.85590  0.20317  1.0000
  F   F44       1.0  0.66825  0.87390  0.69066  1.0000
  F   F45       1.0  0.92431  0.38388  0.19695  1.0000
  F   F46       1.0  0.91847  0.35354  0.70947  1.0000
  F   F47       1.0  0.91786  0.87977  0.19484  1.0000
  F   F48       1.0  0.92624  0.86741  0.70410  1.0000
  F   F49       1.0  0.07274  0.18095  0.04376  1.0000
  F   F50       1.0  0.06082  0.16890  0.55240  1.0000
  F   F51       1.0  0.07188  0.67196  0.03714  1.0000
  F   F52       1.0  0.06310  0.66034  0.56172  1.0000
  F   F53       1.0  0.30641  0.15758  0.05801  1.0000
  F   F54       1.0  0.31198  0.15226  0.55094  1.0000
  F   F55       1.0  0.32052  0.68270  0.03885  1.0000
  F   F56       1.0  0.31775  0.66387  0.55096  1.0000
  F   F57       1.0  0.55823  0.14404  0.07041  1.0000
  F   F58       1.0  0.55812  0.14073  0.56377  1.0000
  F   F59       1.0  0.56026  0.63435  0.07281  1.0000
  F   F60       1.0  0.57492  0.66461  0.54531  1.0000
  F   F61       1.0  0.80907  0.14056  0.05619  1.0000
  F   F62       1.0  0.81462  0.15360  0.56254  1.0000
  F   F63       1.0  0.81151  0.65952  0.05388  1.0000
  F   F64       1.0  0.80382  0.65247  0.56096  1.0000
  F   F65       1.0  0.19951  0.20959  0.20991  1.0000
  F   F66       1.0  0.20321  0.20285  0.70320  1.0000
  F   F67       1.0  0.20539  0.70404  0.21179  1.0000
  F   F68       1.0  0.20998  0.70581  0.71100  1.0000
  F   F69       1.0  0.45377  0.19052  0.21591  1.0000
  F   F70       1.0  0.46277  0.20661  0.70719  1.0000
  F   F71       1.0  0.45202  0.70037  0.21309  1.0000
  F   F72       1.0  0.44988  0.70837  0.72432  1.0000
  F   F73       1.0  0.70684  0.19345  0.20776  1.0000
  F   F74       1.0  0.70336  0.19626  0.71129  1.0000
  F   F75       1.0  0.70874  0.69853  0.20373  1.0000
  F   F76       1.0  0.69713  0.69892  0.70150  1.0000
  F   F77       1.0  0.94652  0.20290  0.21450  1.0000
  F   F78       1.0  0.95648  0.19339  0.70451  1.0000
  F   F79       1.0  0.95507  0.70018  0.20546  1.0000
  F   F80       1.0  0.95771  0.71409  0.71538  1.0000
  F   F81       1.0  0.15711  0.09436  0.03946  1.0000
  F   F82       1.0  0.14873  0.09307  0.53314  1.0000
  F   F83       1.0  0.15034  0.59264  0.04240  1.0000
  F   F84       1.0  0.14951  0.59396  0.54449  1.0000
  F   F85       1.0  0.39072  0.09439  0.03499  1.0000
  F   F86       1.0  0.39798  0.08353  0.53669  1.0000
  F   F87       1.0  0.40322  0.57928  0.04268  1.0000
  F   F88       1.0  0.40293  0.57606  0.54114  1.0000
  F   F89       1.0  0.64643  0.08192  0.04614  1.0000
  F   F90       1.0  0.65339  0.08791  0.53754  1.0000
  F   F91       1.0  0.64649  0.61265  0.04155  1.0000
  F   F92       1.0  0.65487  0.58528  0.53399  1.0000
  F   F93       1.0  0.89497  0.10209  0.03987  1.0000
  F   F94       1.0  0.89919  0.07817  0.54198  1.0000
  F   F95       1.0  0.89471  0.60684  0.03989  1.0000
  F   F96       1.0  0.89732  0.60024  0.52981  1.0000
  F   F97       1.0  0.15474  0.20805  0.11136  1.0000
  F   F98       1.0  0.15176  0.20475  0.61063  1.0000
  F   F99       1.0  0.15595  0.70150  0.12338  1.0000
  F   F100      1.0  0.14871  0.70211  0.63977  1.0000
  F   F101      1.0  0.39851  0.18344  0.13219  1.0000
  F   F102      1.0  0.39915  0.19081  0.61740  1.0000
  F   F103      1.0  0.40408  0.70470  0.11076  1.0000
  F   F104      1.0  0.39972  0.70173  0.61977  1.0000
  F   F105      1.0  0.65348  0.19513  0.13457  1.0000
  F   F106      1.0  0.65636  0.18725  0.62104  1.0000
  F   F107      1.0  0.64489  0.69966  0.14353  1.0000
  F   F108      1.0  0.64678  0.69304  0.62508  1.0000
  F   F109      1.0  0.89653  0.20220  0.12457  1.0000
  F   F110      1.0  0.89867  0.19907  0.62479  1.0000
  F   F111      1.0  0.89717  0.70543  0.13013  1.0000
  F   F112      1.0  0.90996  0.68640  0.62915  1.0000
  F   F113      1.0  0.09865  0.31067  0.37219  1.0000
  F   F114      1.0  0.09821  0.30252  0.86833  1.0000
  F   F115      1.0  0.09332  0.80114  0.37511  1.0000
  F   F116      1.0  0.09739  0.80811  0.86339  1.0000
  F   F117      1.0  0.34914  0.29686  0.39312  1.0000
  F   F118      1.0  0.34895  0.30581  0.87757  1.0000
  F   F119      1.0  0.34763  0.79074  0.37592  1.0000
  F   F120      1.0  0.35251  0.80458  0.84425  1.0000
  F   F121      1.0  0.59602  0.29873  0.39443  1.0000
  F   F122      1.0  0.59450  0.28496  0.90630  1.0000
  F   F123      1.0  0.60223  0.79563  0.36565  1.0000
  F   F124      1.0  0.59230  0.79598  0.88255  1.0000
  F   F125      1.0  0.84430  0.29927  0.39148  1.0000
  F   F126      1.0  0.85073  0.31387  0.91134  1.0000
  F   F127      1.0  0.84945  0.79760  0.38505  1.0000
  F   F128      1.0  0.84422  0.79515  0.85471  1.0000
  F   F129      1.0  0.06645  0.26100  0.14450  1.0000
  F   F130      1.0  0.05852  0.25024  0.65756  1.0000
  F   F131      1.0  0.06575  0.75634  0.13714  1.0000
  F   F132      1.0  0.06815  0.75406  0.63539  1.0000
  F   F133      1.0  0.32126  0.26153  0.12374  1.0000
  F   F134      1.0  0.31276  0.24732  0.64005  1.0000
  F   F135      1.0  0.31260  0.75766  0.14376  1.0000
  F   F136      1.0  0.31391  0.75209  0.64229  1.0000
  F   F137      1.0  0.56172  0.24173  0.15341  1.0000
  F   F138      1.0  0.57414  0.23771  0.63042  1.0000
  F   F139      1.0  0.55846  0.75325  0.15936  1.0000
  F   F140      1.0  0.56399  0.74744  0.64966  1.0000
  F   F141      1.0  0.81698  0.25536  0.12413  1.0000
  F   F142      1.0  0.81150  0.24601  0.65841  1.0000
  F   F143      1.0  0.81406  0.75250  0.13982  1.0000
  F   F144      1.0  0.83199  0.74140  0.62915  1.0000
  F   F145      1.0  0.12680  0.36703  0.10656  1.0000
  F   F146      1.0  0.11965  0.36861  0.62850  1.0000
  F   F147      1.0  0.12681  0.87102  0.10377  1.0000
  F   F148      1.0  0.12431  0.87510  0.60315  1.0000
  F   F149      1.0  0.37245  0.36855  0.12075  1.0000
  F   F150      1.0  0.37795  0.35241  0.62099  1.0000
  F   F151      1.0  0.37609  0.86652  0.10556  1.0000
  F   F152      1.0  0.37154  0.87706  0.61418  1.0000
  F   F153      1.0  0.62379  0.37111  0.11436  1.0000
  F   F154      1.0  0.62453  0.36121  0.62421  1.0000
  F   F155      1.0  0.62870  0.86823  0.10667  1.0000
  F   F156      1.0  0.62947  0.88756  0.58647  1.0000
  F   F157      1.0  0.87141  0.35068  0.13988  1.0000
  F   F158      1.0  0.87387  0.37508  0.61335  1.0000
  F   F159      1.0  0.87572  0.88331  0.09141  1.0000
  F   F160      1.0  0.87661  0.86966  0.60287  1.0000
  F   F161      1.0  0.18844  0.25325  0.35584  1.0000
  F   F162      1.0  0.18734  0.25311  0.84628  1.0000
  F   F163      1.0  0.18024  0.75405  0.35933  1.0000
  F   F164      1.0  0.17813  0.75344  0.86301  1.0000
  F   F165      1.0  0.44058  0.24842  0.35605  1.0000
  F   F166      1.0  0.43869  0.25334  0.84691  1.0000
  F   F167      1.0  0.42540  0.75031  0.37583  1.0000
  F   F168      1.0  0.42124  0.74196  0.88266  1.0000
  F   F169      1.0  0.69398  0.24550  0.35476  1.0000
  F   F170      1.0  0.68418  0.23858  0.86665  1.0000
  F   F171      1.0  0.68535  0.74793  0.35785  1.0000
  F   F172      1.0  0.68595  0.75302  0.84596  1.0000
  F   F173      1.0  0.93595  0.24777  0.36052  1.0000
  F   F174      1.0  0.94004  0.24704  0.86102  1.0000
  F   F175      1.0  0.94282  0.74987  0.34328  1.0000
  F   F176      1.0  0.92165  0.74906  0.87997  1.0000
  F   F177      1.0  0.12357  0.13625  0.40107  1.0000
  F   F178      1.0  0.12496  0.12442  0.90413  1.0000
  F   F179      1.0  0.12518  0.62670  0.40341  1.0000
  F   F180      1.0  0.12542  0.61953  0.89326  1.0000
  F   F181      1.0  0.37564  0.12794  0.38544  1.0000
  F   F182      1.0  0.37808  0.15219  0.87388  1.0000
  F   F183      1.0  0.37939  0.63247  0.38568  1.0000
  F   F184      1.0  0.37529  0.61717  0.89736  1.0000
  F   F185      1.0  0.62379  0.12913  0.40483  1.0000
  F   F186      1.0  0.62248  0.12830  0.90410  1.0000
  F   F187      1.0  0.62751  0.61395  0.39330  1.0000
  F   F188      1.0  0.62193  0.62581  0.90001  1.0000
  F   F189      1.0  0.87817  0.13984  0.38211  1.0000
  F   F190      1.0  0.87873  0.15134  0.87345  1.0000
  F   F191      1.0  0.87820  0.61926  0.38929  1.0000
  F   F192      1.0  0.87286  0.62811  0.90435  1.0000
  F   F193      1.0  0.00451  0.36588  0.06637  1.0000
  F   F194      1.0  0.00385  0.37957  0.56980  1.0000
  F   F195      1.0  0.00488  0.86003  0.08603  1.0000
  F   F196      1.0  0.01492  0.86597  0.56228  1.0000
  F   F197      1.0  0.26236  0.37366  0.06308  1.0000
  F   F198      1.0  0.25398  0.37976  0.57285  1.0000
  F   F199      1.0  0.25823  0.85477  0.07676  1.0000
  F   F200      1.0  0.25704  0.85521  0.56326  1.0000
  F   F201      1.0  0.50521  0.35267  0.09014  1.0000
  F   F202      1.0  0.51210  0.35238  0.58241  1.0000
  F   F203      1.0  0.50577  0.85924  0.07217  1.0000
  F   F204      1.0  0.50923  0.85819  0.56625  1.0000
  F   F205      1.0  0.75376  0.36977  0.07202  1.0000
  F   F206      1.0  0.76587  0.35302  0.56814  1.0000
  F   F207      1.0  0.75563  0.85922  0.07392  1.0000
  F   F208      1.0  0.75750  0.85273  0.58999  1.0000
  F   F209      1.0  0.07315  0.49168  0.16065  1.0000
  F   F210      1.0  0.06846  0.48968  0.67603  1.0000
  F   F211      1.0  0.07180  0.99262  0.17232  1.0000
  F   F212      1.0  0.07649  0.99757  0.64748  1.0000
  F   F213      1.0  0.32241  0.50061  0.15184  1.0000
  F   F214      1.0  0.32436  0.48939  0.64694  1.0000
  F   F215      1.0  0.31521  0.97609  0.19378  1.0000
  F   F216      1.0  0.31473  0.97799  0.69360  1.0000
  F   F217      1.0  0.57018  0.47799  0.18161  1.0000
  F   F218      1.0  0.57484  0.48849  0.66061  1.0000
  F   F219      1.0  0.56872  0.97294  0.18748  1.0000
  F   F220      1.0  0.57153  0.97769  0.67473  1.0000
  F   F221      1.0  0.81847  0.48665  0.16045  1.0000
  F   F222      1.0  0.81615  0.48284  0.68700  1.0000
  F   F223      1.0  0.81653  0.98154  0.19006  1.0000
  F   F224      1.0  0.82042  0.97672  0.69147  1.0000
  F   F225      1.0  0.23999  0.14633  0.42844  1.0000
  F   F226      1.0  0.24166  0.14365  0.92603  1.0000
  F   F227      1.0  0.24934  0.64925  0.39046  1.0000
  F   F228      1.0  0.24557  0.64253  0.90896  1.0000
  F   F229      1.0  0.49308  0.14064  0.41867  1.0000
  F   F230      1.0  0.49139  0.13498  0.93133  1.0000
  F   F231      1.0  0.48923  0.63958  0.42524  1.0000
  F   F232      1.0  0.49466  0.63001  0.92105  1.0000
  F   F233      1.0  0.75028  0.12932  0.42849  1.0000
  F   F234      1.0  0.74164  0.14441  0.92520  1.0000
  F   F235      1.0  0.74509  0.63659  0.42137  1.0000
  F   F236      1.0  0.73636  0.63261  0.93383  1.0000
  F   F237      1.0  0.98964  0.12996  0.43765  1.0000
  F   F238      1.0  0.99425  0.13672  0.93173  1.0000
  F   F239      1.0  0.99592  0.62605  0.41688  1.0000
  F   F240      1.0  0.98783  0.64935  0.92768  1.0000
  F   F241      1.0  0.18200  0.02863  0.32740  1.0000
  F   F242      1.0  0.17986  0.01554  0.81953  1.0000
  F   F243      1.0  0.18338  0.51204  0.32290  1.0000
  F   F244      1.0  0.18276  0.51764  0.80865  1.0000
  F   F245      1.0  0.43394  0.01945  0.30274  1.0000
  F   F246      1.0  0.42834  0.01377  0.82109  1.0000
  F   F247      1.0  0.43111  0.50413  0.33898  1.0000
  F   F248      1.0  0.43738  0.50333  0.82462  1.0000
  F   F249      1.0  0.68300  0.01292  0.32898  1.0000
  F   F250      1.0  0.67675  0.01919  0.82127  1.0000
  F   F251      1.0  0.68574  0.50823  0.31790  1.0000
  F   F252      1.0  0.67624  0.50893  0.83454  1.0000
  F   F253      1.0  0.93108  0.01986  0.32824  1.0000
  F   F254      1.0  0.92293  0.02569  0.83942  1.0000
  F   F255      1.0  0.93283  0.51885  0.31023  1.0000
  F   F256      1.0  0.93200  0.52319  0.81755  1.0000
  F   F257      1.0  0.99559  0.22626  0.02036  1.0000
  F   F258      1.0  0.00250  0.26874  0.49121  1.0000
  F   F259      1.0  0.99950  0.73676  0.01268  1.0000
  F   F260      1.0  0.99402  0.74332  0.49428  1.0000
  F   F261      1.0  0.24622  0.25180  0.00071  1.0000
  F   F262      1.0  0.24841  0.26026  0.49599  1.0000
  F   F263      1.0  0.25081  0.74384  0.00522  1.0000
  F   F264      1.0  0.24250  0.72603  0.50518  1.0000
  F   F265      1.0  0.49429  0.24826  0.00843  1.0000
  F   F266      1.0  0.50192  0.24684  0.50116  1.0000
  F   F267      1.0  0.49638  0.73472  0.00797  1.0000
  F   F268      1.0  0.49143  0.72915  0.52084  1.0000
  F   F269      1.0  0.75166  0.26953  0.98383  1.0000
  F   F270      1.0  0.75346  0.25511  0.48963  1.0000
  F   F271      1.0  0.74922  0.74305  0.99872  1.0000
  F   F272      1.0  0.74808  0.75940  0.49221  1.0000
  F   F273      1.0  0.13276  0.00584  0.24106  1.0000
  F   F274      1.0  0.12220  0.99718  0.74684  1.0000
  F   F275      1.0  0.11516  0.50818  0.27003  1.0000
  F   F276      1.0  0.12280  0.49640  0.75037  1.0000
  F   F277      1.0  0.36506  0.99491  0.26511  1.0000
  F   F278      1.0  0.37191  0.99650  0.74890  1.0000
  F   F279      1.0  0.38410  0.50040  0.24086  1.0000
  F   F280      1.0  0.37625  0.50128  0.74484  1.0000
  F   F281      1.0  0.63286  0.99754  0.23677  1.0000
  F   F282      1.0  0.61689  0.99497  0.76903  1.0000
  F   F283      1.0  0.62613  0.50229  0.24690  1.0000
  F   F284      1.0  0.62112  0.48121  0.75988  1.0000
  F   F285      1.0  0.87672  0.99958  0.24929  1.0000
  F   F286      1.0  0.88496  0.00344  0.73637  1.0000
  F   F287      1.0  0.86634  0.49844  0.25485  1.0000
  F   F288      1.0  0.87395  0.49010  0.75154  1.0000
  F   F289      1.0  0.04635  0.04214  0.02264  1.0000
  F   F290      1.0  0.03885  0.02731  0.52822  1.0000
  F   F291      1.0  0.03949  0.53098  0.01866  1.0000
  F   F292      1.0  0.04101  0.53529  0.52115  1.0000
  F   F293      1.0  0.30103  0.02345  0.01418  1.0000
  F   F294      1.0  0.29317  0.02611  0.52213  1.0000
  F   F295      1.0  0.28459  0.53544  0.02654  1.0000
  F   F296      1.0  0.28818  0.53839  0.51712  1.0000
  F   F297      1.0  0.53715  0.02742  0.03059  1.0000
  F   F298      1.0  0.54316  0.02004  0.51645  1.0000
  F   F299      1.0  0.53507  0.52104  0.03909  1.0000
  F   F300      1.0  0.53923  0.53629  0.53233  1.0000
  F   F301      1.0  0.79255  0.01398  0.03219  1.0000
  F   F302      1.0  0.79634  0.02972  0.52210  1.0000
  F   F303      1.0  0.78963  0.52656  0.03338  1.0000
  F   F304      1.0  0.79394  0.52578  0.52066  1.0000
  F   F305      1.0  0.23945  0.41591  0.22009  1.0000
  F   F306      1.0  0.23671  0.39969  0.73775  1.0000
  F   F307      1.0  0.23219  0.92636  0.21829  1.0000
  F   F308      1.0  0.23283  0.90735  0.71925  1.0000
  F   F309      1.0  0.48453  0.41903  0.22619  1.0000
  F   F310      1.0  0.49163  0.40933  0.73453  1.0000
  F   F311      1.0  0.48817  0.89952  0.22323  1.0000
  F   F312      1.0  0.48570  0.90464  0.73651  1.0000
  F   F313      1.0  0.73518  0.40901  0.22381  1.0000
  F   F314      1.0  0.73488  0.38952  0.74213  1.0000
  F   F315      1.0  0.73522  0.91732  0.22615  1.0000
  F   F316      1.0  0.73236  0.91610  0.72649  1.0000
  F   F317      1.0  0.99120  0.41182  0.22522  1.0000
  F   F318      1.0  0.97814  0.41935  0.72530  1.0000
  F   F319      1.0  0.98601  0.93496  0.21542  1.0000
  F   F320      1.0  0.98755  0.92855  0.71878  1.0000
  F   F321      1.0  0.20178  0.47994  0.47764  1.0000
  F   F322      1.0  0.20252  0.48622  0.97402  1.0000
  F   F323      1.0  0.21104  0.97989  0.48121  1.0000
  F   F324      1.0  0.21178  0.96953  0.97375  1.0000
  F   F325      1.0  0.46120  0.46198  0.47900  1.0000
  F   F326      1.0  0.46347  0.46498  0.96948  1.0000
  F   F327      1.0  0.45915  0.96380  0.47679  1.0000
  F   F328      1.0  0.45550  0.97849  0.97911  1.0000
  F   F329      1.0  0.70942  0.45886  0.47708  1.0000
  F   F330      1.0  0.69870  0.47187  0.98598  1.0000
  F   F331      1.0  0.71728  0.97305  0.47034  1.0000
  F   F332      1.0  0.70555  0.96603  0.97916  1.0000
  F   F333      1.0  0.96036  0.47477  0.46049  1.0000
  F   F334      1.0  0.94756  0.48420  0.99012  1.0000
  F   F335      1.0  0.96062  0.96322  0.47088  1.0000
  F   F336      1.0  0.95806  0.97160  0.97944  1.0000
  F   F337      1.0  0.01293  0.09106  0.26140  1.0000
  F   F338      1.0  0.01948  0.09168  0.76673  1.0000
  F   F339      1.0  0.01678  0.58113  0.26542  1.0000
  F   F340      1.0  0.01261  0.58217  0.78675  1.0000
  F   F341      1.0  0.26501  0.08975  0.27024  1.0000
  F   F342      1.0  0.26205  0.09536  0.76248  1.0000
  F   F343      1.0  0.26749  0.57636  0.25744  1.0000
  F   F344      1.0  0.27548  0.58071  0.76750  1.0000
  F   F345      1.0  0.51584  0.06767  0.27662  1.0000
  F   F346      1.0  0.51613  0.07634  0.78361  1.0000
  F   F347      1.0  0.51374  0.57734  0.27535  1.0000
  F   F348      1.0  0.51621  0.58217  0.75877  1.0000
  F   F349      1.0  0.76942  0.09855  0.26221  1.0000
  F   F350      1.0  0.76642  0.08269  0.78931  1.0000
  F   F351      1.0  0.76505  0.58079  0.27987  1.0000
  F   F352      1.0  0.76352  0.60032  0.76836  1.0000
  F   F353      1.0  0.09923  0.40825  0.47695  1.0000
  F   F354      1.0  0.10190  0.40684  0.95775  1.0000
  F   F355      1.0  0.10489  0.91286  0.45067  1.0000
  F   F356      1.0  0.09828  0.90247  0.96726  1.0000
  F   F357      1.0  0.35026  0.41081  0.46961  1.0000
  F   F358      1.0  0.35153  0.42728  0.95373  1.0000
  F   F359      1.0  0.34948  0.90204  0.46656  1.0000
  F   F360      1.0  0.35683  0.88962  0.96159  1.0000
  F   F361      1.0  0.60236  0.41559  0.46316  1.0000
  F   F362      1.0  0.59545  0.40937  0.97678  1.0000
  F   F363      1.0  0.60088  0.89697  0.45259  1.0000
  F   F364      1.0  0.60355  0.89608  0.96597  1.0000
  F   F365      1.0  0.84811  0.40252  0.46444  1.0000
  F   F366      1.0  0.86030  0.43305  0.97114  1.0000
  F   F367      1.0  0.85035  0.90729  0.46253  1.0000
  F   F368      1.0  0.85085  0.89726  0.95726  1.0000
  F   F369      1.0  0.05080  0.28036  0.29989  1.0000
  F   F370      1.0  0.03791  0.30241  0.80083  1.0000
  F   F371      1.0  0.04539  0.81314  0.28702  1.0000
  F   F372      1.0  0.04049  0.79795  0.79291  1.0000
  F   F373      1.0  0.29906  0.29651  0.28712  1.0000
  F   F374      1.0  0.30197  0.29872  0.77956  1.0000
  F   F375      1.0  0.29478  0.80842  0.28919  1.0000
  F   F376      1.0  0.28589  0.79451  0.79453  1.0000
  F   F377      1.0  0.54681  0.29015  0.29536  1.0000
  F   F378      1.0  0.54207  0.29377  0.79765  1.0000
  F   F379      1.0  0.54618  0.79393  0.29242  1.0000
  F   F380      1.0  0.54621  0.78766  0.79469  1.0000
  F   F381      1.0  0.79702  0.29430  0.28503  1.0000
  F   F382      1.0  0.80354  0.29531  0.79173  1.0000
  F   F383      1.0  0.80474  0.80115  0.28360  1.0000
  F   F384      1.0  0.78548  0.78914  0.77584  1.0000
