data_image0
_chemical_formula_structural       Hf96F384
_chemical_formula_sum              "Hf96 F384"
_cell_length_a       31.0063
_cell_length_b       15.5029
_cell_length_c       15.4953
_cell_angle_alpha    63.342
_cell_angle_beta     63.342
_cell_angle_gamma    80.1625

_space_group_name_H-M_alt    "P 1"
_space_group_IT_number       1

loop_
  _space_group_symop_operation_xyz
  'x, y, z'

loop_
  _atom_site_type_symbol
  _atom_site_label
  _atom_site_symmetry_multiplicity
  _atom_site_fract_x
  _atom_site_fract_y
  _atom_site_fract_z
  _atom_site_occupancy
  Hf  Hf1       1.0  0.19582  0.10994  0.36420  1.0000
  Hf  Hf2       1.0  0.19578  0.10528  0.87976  1.0000
  Hf  Hf3       1.0  0.19834  0.61053  0.37093  1.0000
  Hf  Hf4       1.0  0.19414  0.61022  0.87120  1.0000
  Hf  Hf5       1.0  0.44649  0.10892  0.37254  1.0000
  Hf  Hf6       1.0  0.44392  0.11425  0.87103  1.0000
  Hf  Hf7       1.0  0.45113  0.61186  0.36524  1.0000
  Hf  Hf8       1.0  0.44680  0.60979  0.87833  1.0000
  Hf  Hf9       1.0  0.69757  0.10437  0.38114  1.0000
  Hf  Hf10      1.0  0.69589  0.10664  0.87479  1.0000
  Hf  Hf11      1.0  0.69980  0.60791  0.37265  1.0000
  Hf  Hf12      1.0  0.69602  0.60925  0.87658  1.0000
  Hf  Hf13      1.0  0.94813  0.10245  0.38146  1.0000
  Hf  Hf14      1.0  0.95130  0.10612  0.86984  1.0000
  Hf  Hf15      1.0  0.94622  0.60542  0.37387  1.0000
  Hf  Hf16      1.0  0.94821  0.60955  0.86583  1.0000
  Hf  Hf17      1.0  0.05166  0.39672  0.12604  1.0000
  Hf  Hf18      1.0  0.05338  0.39180  0.62125  1.0000
  Hf  Hf19      1.0  0.05649  0.89748  0.11613  1.0000
  Hf  Hf20      1.0  0.05566  0.89519  0.62071  1.0000
  Hf  Hf21      1.0  0.30317  0.39424  0.12056  1.0000
  Hf  Hf22      1.0  0.29998  0.38801  0.62979  1.0000
  Hf  Hf23      1.0  0.30162  0.89157  0.12479  1.0000
  Hf  Hf24      1.0  0.31070  0.89719  0.61619  1.0000
  Hf  Hf25      1.0  0.55199  0.39108  0.12280  1.0000
  Hf  Hf26      1.0  0.55273  0.39429  0.63154  1.0000
  Hf  Hf27      1.0  0.55156  0.88881  0.12572  1.0000
  Hf  Hf28      1.0  0.55497  0.88999  0.62145  1.0000
  Hf  Hf29      1.0  0.79914  0.38968  0.12734  1.0000
  Hf  Hf30      1.0  0.80541  0.39761  0.62034  1.0000
  Hf  Hf31      1.0  0.80450  0.88885  0.13411  1.0000
  Hf  Hf32      1.0  0.80304  0.88611  0.63113  1.0000
  Hf  Hf33      1.0  0.05624  0.18459  0.41500  1.0000
  Hf  Hf34      1.0  0.05583  0.18210  0.91636  1.0000
  Hf  Hf35      1.0  0.05740  0.68888  0.41082  1.0000
  Hf  Hf36      1.0  0.05234  0.67603  0.92568  1.0000
  Hf  Hf37      1.0  0.30719  0.18279  0.41386  1.0000
  Hf  Hf38      1.0  0.30244  0.18908  0.92482  1.0000
  Hf  Hf39      1.0  0.30617  0.68117  0.41341  1.0000
  Hf  Hf40      1.0  0.30442  0.68904  0.90699  1.0000
  Hf  Hf41      1.0  0.55884  0.17998  0.41778  1.0000
  Hf  Hf42      1.0  0.55282  0.17782  0.92427  1.0000
  Hf  Hf43      1.0  0.55772  0.68048  0.41804  1.0000
  Hf  Hf44      1.0  0.55677  0.68665  0.91260  1.0000
  Hf  Hf45      1.0  0.80971  0.18691  0.41568  1.0000
  Hf  Hf46      1.0  0.80789  0.17197  0.91985  1.0000
  Hf  Hf47      1.0  0.80727  0.68624  0.41177  1.0000
  Hf  Hf48      1.0  0.80420  0.68061  0.91926  1.0000
  Hf  Hf49      1.0  0.15663  0.38545  0.33603  1.0000
  Hf  Hf50      1.0  0.15855  0.38894  0.83229  1.0000
  Hf  Hf51      1.0  0.15959  0.88708  0.32520  1.0000
  Hf  Hf52      1.0  0.16281  0.88996  0.82584  1.0000
  Hf  Hf53      1.0  0.40664  0.39119  0.33272  1.0000
  Hf  Hf54      1.0  0.40431  0.38919  0.83936  1.0000
  Hf  Hf55      1.0  0.40956  0.88735  0.33893  1.0000
  Hf  Hf56      1.0  0.40772  0.88538  0.83752  1.0000
  Hf  Hf57      1.0  0.65887  0.38375  0.33765  1.0000
  Hf  Hf58      1.0  0.65726  0.39032  0.83351  1.0000
  Hf  Hf59      1.0  0.66023  0.88992  0.33336  1.0000
  Hf  Hf60      1.0  0.66175  0.89154  0.82410  1.0000
  Hf  Hf61      1.0  0.90982  0.38857  0.33485  1.0000
  Hf  Hf62      1.0  0.91000  0.38170  0.83661  1.0000
  Hf  Hf63      1.0  0.91237  0.89325  0.33220  1.0000
  Hf  Hf64      1.0  0.91014  0.88671  0.83757  1.0000
  Hf  Hf65      1.0  0.19383  0.32991  0.07700  1.0000
  Hf  Hf66      1.0  0.18960  0.30737  0.58816  1.0000
  Hf  Hf67      1.0  0.19464  0.81883  0.08100  1.0000
  Hf  Hf68      1.0  0.19626  0.82210  0.57438  1.0000
  Hf  Hf69      1.0  0.44260  0.31601  0.08773  1.0000
  Hf  Hf70      1.0  0.44384  0.32310  0.58092  1.0000
  Hf  Hf71      1.0  0.44208  0.81589  0.08537  1.0000
  Hf  Hf72      1.0  0.44481  0.81350  0.58707  1.0000
  Hf  Hf73      1.0  0.69641  0.31597  0.07781  1.0000
  Hf  Hf74      1.0  0.69663  0.31858  0.58716  1.0000
  Hf  Hf75      1.0  0.69671  0.81651  0.08429  1.0000
  Hf  Hf76      1.0  0.69664  0.81454  0.58777  1.0000
  Hf  Hf77      1.0  0.94236  0.31339  0.08881  1.0000
  Hf  Hf78      1.0  0.94321  0.31584  0.58408  1.0000
  Hf  Hf79      1.0  0.94606  0.81938  0.08494  1.0000
  Hf  Hf80      1.0  0.94211  0.81172  0.58638  1.0000
  Hf  Hf81      1.0  0.09366  0.11223  0.16795  1.0000
  Hf  Hf82      1.0  0.09067  0.10899  0.67112  1.0000
  Hf  Hf83      1.0  0.09064  0.61371  0.16746  1.0000
  Hf  Hf84      1.0  0.09202  0.61707  0.66343  1.0000
  Hf  Hf85      1.0  0.33996  0.11112  0.17350  1.0000
  Hf  Hf86      1.0  0.33996  0.11061  0.66893  1.0000
  Hf  Hf87      1.0  0.33948  0.61260  0.15933  1.0000
  Hf  Hf88      1.0  0.34042  0.61712  0.65917  1.0000
  Hf  Hf89      1.0  0.59290  0.10865  0.17081  1.0000
  Hf  Hf90      1.0  0.59215  0.11868  0.66722  1.0000
  Hf  Hf91      1.0  0.59002  0.61587  0.16297  1.0000
  Hf  Hf92      1.0  0.58980  0.61057  0.66911  1.0000
  Hf  Hf93      1.0  0.84228  0.10730  0.16743  1.0000
  Hf  Hf94      1.0  0.83966  0.10892  0.67200  1.0000
  Hf  Hf95      1.0  0.84365  0.60888  0.16110  1.0000
  Hf  Hf96      1.0  0.83902  0.60471  0.66941  1.0000
  F   F1        1.0  0.08183  0.13904  0.29995  1.0000
  F   F2        1.0  0.07655  0.11113  0.81979  1.0000
  F   F3        1.0  0.07536  0.63203  0.30125  1.0000
  F   F4        1.0  0.07722  0.61192  0.80954  1.0000
  F   F5        1.0  0.32825  0.12357  0.30530  1.0000
  F   F6        1.0  0.32787  0.12575  0.81692  1.0000
  F   F7        1.0  0.32935  0.62486  0.30071  1.0000
  F   F8        1.0  0.32762  0.63102  0.80234  1.0000
  F   F9        1.0  0.58371  0.11089  0.31974  1.0000
  F   F10       1.0  0.57166  0.12411  0.80850  1.0000
  F   F11       1.0  0.58200  0.63434  0.29749  1.0000
  F   F12       1.0  0.57778  0.62381  0.80836  1.0000
  F   F13       1.0  0.82671  0.11453  0.31592  1.0000
  F   F14       1.0  0.82860  0.11113  0.81354  1.0000
  F   F15       1.0  0.82512  0.61192  0.31376  1.0000
  F   F16       1.0  0.82639  0.62217  0.80696  1.0000
  F   F17       1.0  0.17269  0.31812  0.46939  1.0000
  F   F18       1.0  0.19086  0.36231  0.93523  1.0000
  F   F19       1.0  0.18290  0.84160  0.44497  1.0000
  F   F20       1.0  0.18278  0.83708  0.94529  1.0000
  F   F21       1.0  0.43490  0.34595  0.44687  1.0000
  F   F22       1.0  0.42298  0.33324  0.97210  1.0000
  F   F23       1.0  0.43054  0.83518  0.45904  1.0000
  F   F24       1.0  0.43922  0.86385  0.93276  1.0000
  F   F25       1.0  0.67812  0.33180  0.45813  1.0000
  F   F26       1.0  0.68519  0.33557  0.94444  1.0000
  F   F27       1.0  0.68879  0.84108  0.44290  1.0000
  F   F28       1.0  0.68818  0.84095  0.94213  1.0000
  F   F29       1.0  0.93116  0.33412  0.44848  1.0000
  F   F30       1.0  0.93605  0.34454  0.94369  1.0000
  F   F31       1.0  0.94190  0.84512  0.44246  1.0000
  F   F32       1.0  0.93771  0.83645  0.94983  1.0000
  F   F33       1.0  0.17085  0.38200  0.19672  1.0000
  F   F34       1.0  0.16429  0.35916  0.70330  1.0000
  F   F35       1.0  0.17120  0.87901  0.18471  1.0000
  F   F36       1.0  0.17162  0.88857  0.67946  1.0000
  F   F37       1.0  0.42044  0.37069  0.19358  1.0000
  F   F38       1.0  0.42190  0.37764  0.69379  1.0000
  F   F39       1.0  0.41451  0.86785  0.19868  1.0000
  F   F40       1.0  0.42075  0.87534  0.69427  1.0000
  F   F41       1.0  0.67271  0.36273  0.19687  1.0000
  F   F42       1.0  0.67313  0.37351  0.69604  1.0000
  F   F43       1.0  0.67107  0.86962  0.19571  1.0000
  F   F44       1.0  0.67575  0.87636  0.69201  1.0000
  F   F45       1.0  0.91506  0.36917  0.20036  1.0000
  F   F46       1.0  0.91786  0.36212  0.70774  1.0000
  F   F47       1.0  0.91714  0.87938  0.19647  1.0000
  F   F48       1.0  0.92339  0.87643  0.69227  1.0000
  F   F49       1.0  0.06317  0.16479  0.05765  1.0000
  F   F50       1.0  0.06231  0.16025  0.55640  1.0000
  F   F51       1.0  0.05521  0.64990  0.06588  1.0000
  F   F52       1.0  0.06202  0.66296  0.55439  1.0000
  F   F53       1.0  0.30835  0.16513  0.06239  1.0000
  F   F54       1.0  0.31027  0.15932  0.55931  1.0000
  F   F55       1.0  0.32229  0.67316  0.03920  1.0000
  F   F56       1.0  0.31985  0.65645  0.53829  1.0000
  F   F57       1.0  0.56375  0.15804  0.05112  1.0000
  F   F58       1.0  0.56504  0.16249  0.54990  1.0000
  F   F59       1.0  0.56588  0.66152  0.04502  1.0000
  F   F60       1.0  0.55929  0.66847  0.56123  1.0000
  F   F61       1.0  0.81778  0.15503  0.05257  1.0000
  F   F62       1.0  0.80922  0.14718  0.56526  1.0000
  F   F63       1.0  0.82097  0.66985  0.04890  1.0000
  F   F64       1.0  0.81827  0.65314  0.54603  1.0000
  F   F65       1.0  0.19898  0.20939  0.21064  1.0000
  F   F66       1.0  0.20557  0.19722  0.73175  1.0000
  F   F67       1.0  0.20675  0.69319  0.21101  1.0000
  F   F68       1.0  0.19702  0.70788  0.70956  1.0000
  F   F69       1.0  0.46377  0.21042  0.21757  1.0000
  F   F70       1.0  0.44590  0.20191  0.70739  1.0000
  F   F71       1.0  0.45626  0.70156  0.20532  1.0000
  F   F72       1.0  0.46384  0.71221  0.69891  1.0000
  F   F73       1.0  0.70151  0.20311  0.21682  1.0000
  F   F74       1.0  0.70827  0.18802  0.70767  1.0000
  F   F75       1.0  0.70107  0.69563  0.21526  1.0000
  F   F76       1.0  0.70533  0.70057  0.71360  1.0000
  F   F77       1.0  0.95762  0.19322  0.21334  1.0000
  F   F78       1.0  0.95282  0.19992  0.72074  1.0000
  F   F79       1.0  0.95568  0.71049  0.21676  1.0000
  F   F80       1.0  0.94474  0.70011  0.71655  1.0000
  F   F81       1.0  0.15016  0.07969  0.04217  1.0000
  F   F82       1.0  0.14722  0.10730  0.53570  1.0000
  F   F83       1.0  0.15061  0.60478  0.03107  1.0000
  F   F84       1.0  0.14581  0.58757  0.53308  1.0000
  F   F85       1.0  0.39728  0.11208  0.03982  1.0000
  F   F86       1.0  0.39839  0.08821  0.52914  1.0000
  F   F87       1.0  0.39492  0.57693  0.03351  1.0000
  F   F88       1.0  0.39710  0.60061  0.53289  1.0000
  F   F89       1.0  0.64801  0.07714  0.03414  1.0000
  F   F90       1.0  0.64898  0.09800  0.55242  1.0000
  F   F91       1.0  0.64358  0.58757  0.03051  1.0000
  F   F92       1.0  0.64758  0.60419  0.53825  1.0000
  F   F93       1.0  0.90208  0.09586  0.04444  1.0000
  F   F94       1.0  0.89678  0.10032  0.53098  1.0000
  F   F95       1.0  0.90490  0.58417  0.04029  1.0000
  F   F96       1.0  0.90087  0.58315  0.53008  1.0000
  F   F97       1.0  0.15284  0.19854  0.11362  1.0000
  F   F98       1.0  0.15026  0.19217  0.64646  1.0000
  F   F99       1.0  0.15475  0.69463  0.12769  1.0000
  F   F100      1.0  0.15342  0.70206  0.61015  1.0000
  F   F101      1.0  0.40075  0.19989  0.14441  1.0000
  F   F102      1.0  0.39188  0.20126  0.61672  1.0000
  F   F103      1.0  0.40046  0.69341  0.13036  1.0000
  F   F104      1.0  0.40449  0.69737  0.62582  1.0000
  F   F105      1.0  0.64988  0.19611  0.12497  1.0000
  F   F106      1.0  0.65167  0.21087  0.63799  1.0000
  F   F107      1.0  0.64817  0.69004  0.12515  1.0000
  F   F108      1.0  0.64986  0.70888  0.63426  1.0000
  F   F109      1.0  0.89956  0.19938  0.12789  1.0000
  F   F110      1.0  0.89801  0.19796  0.63644  1.0000
  F   F111      1.0  0.90296  0.70507  0.12374  1.0000
  F   F112      1.0  0.89677  0.70358  0.61817  1.0000
  F   F113      1.0  0.09834  0.29948  0.36360  1.0000
  F   F114      1.0  0.09533  0.30762  0.88765  1.0000
  F   F115      1.0  0.09734  0.81724  0.36204  1.0000
  F   F116      1.0  0.10444  0.78328  0.89389  1.0000
  F   F117      1.0  0.34805  0.29591  0.37216  1.0000
  F   F118      1.0  0.34765  0.30371  0.87774  1.0000
  F   F119      1.0  0.35134  0.81201  0.39028  1.0000
  F   F120      1.0  0.34585  0.80739  0.87067  1.0000
  F   F121      1.0  0.60171  0.30025  0.37282  1.0000
  F   F122      1.0  0.59500  0.32000  0.86857  1.0000
  F   F123      1.0  0.59680  0.79517  0.38227  1.0000
  F   F124      1.0  0.60010  0.81367  0.87546  1.0000
  F   F125      1.0  0.85072  0.29427  0.38849  1.0000
  F   F126      1.0  0.84243  0.29042  0.88773  1.0000
  F   F127      1.0  0.84406  0.80472  0.36596  1.0000
  F   F128      1.0  0.84769  0.78768  0.86427  1.0000
  F   F129      1.0  0.06421  0.25931  0.14512  1.0000
  F   F130      1.0  0.06127  0.23818  0.65371  1.0000
  F   F131      1.0  0.06430  0.75827  0.12796  1.0000
  F   F132      1.0  0.06090  0.75678  0.65380  1.0000
  F   F133      1.0  0.32173  0.25756  0.13069  1.0000
  F   F134      1.0  0.30809  0.24754  0.66588  1.0000
  F   F135      1.0  0.30743  0.74773  0.15352  1.0000
  F   F136      1.0  0.32756  0.76323  0.61275  1.0000
  F   F137      1.0  0.55938  0.24985  0.14911  1.0000
  F   F138      1.0  0.56731  0.25679  0.64033  1.0000
  F   F139      1.0  0.55916  0.74926  0.13778  1.0000
  F   F140      1.0  0.55449  0.74939  0.66478  1.0000
  F   F141      1.0  0.80879  0.24653  0.15724  1.0000
  F   F142      1.0  0.82145  0.25038  0.62752  1.0000
  F   F143      1.0  0.82017  0.74837  0.15017  1.0000
  F   F144      1.0  0.80977  0.74872  0.64530  1.0000
  F   F145      1.0  0.12022  0.36139  0.12935  1.0000
  F   F146      1.0  0.11972  0.37881  0.60727  1.0000
  F   F147      1.0  0.12582  0.86568  0.10105  1.0000
  F   F148      1.0  0.12505  0.86502  0.60724  1.0000
  F   F149      1.0  0.36995  0.38077  0.10788  1.0000
  F   F150      1.0  0.36952  0.37409  0.61616  1.0000
  F   F151      1.0  0.37086  0.85773  0.10792  1.0000
  F   F152      1.0  0.37543  0.86829  0.61568  1.0000
  F   F153      1.0  0.62363  0.36146  0.10463  1.0000
  F   F154      1.0  0.61908  0.38035  0.62181  1.0000
  F   F155      1.0  0.62211  0.84592  0.12868  1.0000
  F   F156      1.0  0.62780  0.88719  0.59659  1.0000
  F   F157      1.0  0.87413  0.37062  0.09920  1.0000
  F   F158      1.0  0.87741  0.37628  0.60334  1.0000
  F   F159      1.0  0.87438  0.87114  0.11221  1.0000
  F   F160      1.0  0.87286  0.86059  0.61745  1.0000
  F   F161      1.0  0.18345  0.25098  0.35569  1.0000
  F   F162      1.0  0.18205  0.24438  0.87718  1.0000
  F   F163      1.0  0.19080  0.75452  0.33878  1.0000
  F   F164      1.0  0.19503  0.75026  0.83893  1.0000
  F   F165      1.0  0.42759  0.25296  0.37133  1.0000
  F   F166      1.0  0.43459  0.25421  0.86043  1.0000
  F   F167      1.0  0.43901  0.74966  0.35088  1.0000
  F   F168      1.0  0.44006  0.74688  0.86853  1.0000
  F   F169      1.0  0.69426  0.24196  0.36618  1.0000
  F   F170      1.0  0.68411  0.24530  0.85232  1.0000
  F   F171      1.0  0.68445  0.75176  0.35698  1.0000
  F   F172      1.0  0.69010  0.74921  0.84670  1.0000
  F   F173      1.0  0.94068  0.24355  0.35086  1.0000
  F   F174      1.0  0.93548  0.24079  0.86978  1.0000
  F   F175      1.0  0.92663  0.74889  0.37730  1.0000
  F   F176      1.0  0.93637  0.75228  0.84877  1.0000
  F   F177      1.0  0.12273  0.10963  0.40451  1.0000
  F   F178      1.0  0.12499  0.13611  0.88704  1.0000
  F   F179      1.0  0.12693  0.63630  0.38338  1.0000
  F   F180      1.0  0.11960  0.61270  0.90739  1.0000
  F   F181      1.0  0.37603  0.12752  0.38375  1.0000
  F   F182      1.0  0.37552  0.13218  0.89314  1.0000
  F   F183      1.0  0.37724  0.63838  0.37768  1.0000
  F   F184      1.0  0.37737  0.65233  0.87205  1.0000
  F   F185      1.0  0.62919  0.12768  0.39972  1.0000
  F   F186      1.0  0.62474  0.14368  0.87187  1.0000
  F   F187      1.0  0.62604  0.61712  0.39687  1.0000
  F   F188      1.0  0.62572  0.65548  0.87306  1.0000
  F   F189      1.0  0.87562  0.13655  0.38280  1.0000
  F   F190      1.0  0.87877  0.11089  0.89423  1.0000
  F   F191      1.0  0.87943  0.63275  0.37384  1.0000
  F   F192      1.0  0.87650  0.61166  0.90084  1.0000
  F   F193      1.0  0.00927  0.35716  0.07249  1.0000
  F   F194      1.0  0.00535  0.35298  0.57784  1.0000
  F   F195      1.0  0.00664  0.88172  0.05342  1.0000
  F   F196      1.0  0.00702  0.86042  0.57422  1.0000
  F   F197      1.0  0.25779  0.35445  0.07921  1.0000
  F   F198      1.0  0.25211  0.36239  0.58374  1.0000
  F   F199      1.0  0.25533  0.86338  0.07719  1.0000
  F   F200      1.0  0.25818  0.86282  0.57999  1.0000
  F   F201      1.0  0.50415  0.36869  0.07264  1.0000
  F   F202      1.0  0.50375  0.36673  0.57677  1.0000
  F   F203      1.0  0.50591  0.86726  0.06410  1.0000
  F   F204      1.0  0.51126  0.87112  0.56331  1.0000
  F   F205      1.0  0.75802  0.36784  0.06671  1.0000
  F   F206      1.0  0.75889  0.35218  0.59201  1.0000
  F   F207      1.0  0.76170  0.84726  0.07885  1.0000
  F   F208      1.0  0.76341  0.85976  0.56576  1.0000
  F   F209      1.0  0.06936  0.48471  0.17345  1.0000
  F   F210      1.0  0.06482  0.49005  0.67895  1.0000
  F   F211      1.0  0.07332  0.98030  0.17133  1.0000
  F   F212      1.0  0.07782  0.98365  0.66573  1.0000
  F   F213      1.0  0.31500  0.49022  0.17720  1.0000
  F   F214      1.0  0.31360  0.49513  0.67615  1.0000
  F   F215      1.0  0.32067  0.97659  0.18443  1.0000
  F   F216      1.0  0.32395  0.98626  0.66889  1.0000
  F   F217      1.0  0.56892  0.48713  0.16929  1.0000
  F   F218      1.0  0.56143  0.48793  0.68897  1.0000
  F   F219      1.0  0.56745  0.98511  0.16345  1.0000
  F   F220      1.0  0.57036  0.98753  0.68593  1.0000
  F   F221      1.0  0.81554  0.48748  0.17735  1.0000
  F   F222      1.0  0.81675  0.48142  0.68571  1.0000
  F   F223      1.0  0.82117  0.98488  0.17480  1.0000
  F   F224      1.0  0.82070  0.97911  0.68673  1.0000
  F   F225      1.0  0.24497  0.13379  0.40231  1.0000
  F   F226      1.0  0.24167  0.14842  0.92621  1.0000
  F   F227      1.0  0.24563  0.63678  0.42176  1.0000
  F   F228      1.0  0.24259  0.63824  0.92143  1.0000
  F   F229      1.0  0.49609  0.13272  0.41452  1.0000
  F   F230      1.0  0.48960  0.14147  0.92529  1.0000
  F   F231      1.0  0.49006  0.63118  0.43413  1.0000
  F   F232      1.0  0.49273  0.62218  0.93488  1.0000
  F   F233      1.0  0.74306  0.12081  0.45189  1.0000
  F   F234      1.0  0.74170  0.13079  0.92870  1.0000
  F   F235      1.0  0.74167  0.64043  0.42900  1.0000
  F   F236      1.0  0.74012  0.61718  0.94229  1.0000
  F   F237      1.0  0.99549  0.11554  0.43128  1.0000
  F   F238      1.0  0.99214  0.14045  0.92312  1.0000
  F   F239      1.0  0.99374  0.64820  0.41512  1.0000
  F   F240      1.0  0.99130  0.64323  0.92276  1.0000
  F   F241      1.0  0.17996  0.01224  0.31008  1.0000
  F   F242      1.0  0.18005  0.01551  0.83194  1.0000
  F   F243      1.0  0.17689  0.50613  0.32795  1.0000
  F   F244      1.0  0.18249  0.52324  0.82171  1.0000
  F   F245      1.0  0.43392  0.02478  0.31206  1.0000
  F   F246      1.0  0.42489  0.01831  0.82596  1.0000
  F   F247      1.0  0.43041  0.51838  0.31926  1.0000
  F   F248      1.0  0.42320  0.51551  0.84442  1.0000
  F   F249      1.0  0.67881  0.01211  0.32735  1.0000
  F   F250      1.0  0.67501  0.02240  0.83525  1.0000
  F   F251      1.0  0.68231  0.50885  0.32376  1.0000
  F   F252      1.0  0.66993  0.50875  0.84423  1.0000
  F   F253      1.0  0.93645  0.01749  0.31430  1.0000
  F   F254      1.0  0.93353  0.00591  0.81852  1.0000
  F   F255      1.0  0.93675  0.50856  0.32157  1.0000
  F   F256      1.0  0.92662  0.50672  0.82583  1.0000
  F   F257      1.0  0.00520  0.25580  0.98860  1.0000
  F   F258      1.0  0.99774  0.24904  0.49809  1.0000
  F   F259      1.0  0.99862  0.74257  0.00971  1.0000
  F   F260      1.0  0.99235  0.73763  0.50657  1.0000
  F   F261      1.0  0.25022  0.26361  0.00159  1.0000
  F   F262      1.0  0.24865  0.25578  0.50041  1.0000
  F   F263      1.0  0.24957  0.75408  0.99875  1.0000
  F   F264      1.0  0.25401  0.75986  0.48694  1.0000
  F   F265      1.0  0.49644  0.25198  0.00415  1.0000
  F   F266      1.0  0.49800  0.25409  0.50731  1.0000
  F   F267      1.0  0.49784  0.74291  0.00380  1.0000
  F   F268      1.0  0.49609  0.74507  0.50120  1.0000
  F   F269      1.0  0.74838  0.24192  0.00411  1.0000
  F   F270      1.0  0.75134  0.27414  0.48815  1.0000
  F   F271      1.0  0.74973  0.73470  0.01077  1.0000
  F   F272      1.0  0.75237  0.75662  0.49589  1.0000
  F   F273      1.0  0.12803  0.00263  0.24235  1.0000
  F   F274      1.0  0.12413  0.00421  0.75822  1.0000
  F   F275      1.0  0.11475  0.49615  0.26888  1.0000
  F   F276      1.0  0.12924  0.50603  0.74224  1.0000
  F   F277      1.0  0.37773  0.00628  0.23986  1.0000
  F   F278      1.0  0.37785  0.00587  0.73672  1.0000
  F   F279      1.0  0.37218  0.50061  0.24963  1.0000
  F   F280      1.0  0.37264  0.49696  0.75527  1.0000
  F   F281      1.0  0.62262  0.99227  0.24679  1.0000
  F   F282      1.0  0.62730  0.01004  0.74676  1.0000
  F   F283      1.0  0.62386  0.49840  0.24838  1.0000
  F   F284      1.0  0.63365  0.51669  0.72954  1.0000
  F   F285      1.0  0.87533  0.00327  0.24683  1.0000
  F   F286      1.0  0.87330  0.99501  0.75592  1.0000
  F   F287      1.0  0.88534  0.51148  0.23830  1.0000
  F   F288      1.0  0.87698  0.50378  0.73735  1.0000
  F   F289      1.0  0.04192  0.03156  0.02326  1.0000
  F   F290      1.0  0.04078  0.03309  0.53223  1.0000
  F   F291      1.0  0.03575  0.52482  0.02881  1.0000
  F   F292      1.0  0.04785  0.53396  0.50706  1.0000
  F   F293      1.0  0.29576  0.03209  0.02928  1.0000
  F   F294      1.0  0.29526  0.03638  0.52208  1.0000
  F   F295      1.0  0.28740  0.54874  0.03410  1.0000
  F   F296      1.0  0.29223  0.53076  0.52438  1.0000
  F   F297      1.0  0.54053  0.03768  0.01587  1.0000
  F   F298      1.0  0.54241  0.03490  0.52427  1.0000
  F   F299      1.0  0.54683  0.54005  0.01528  1.0000
  F   F300      1.0  0.53784  0.53837  0.54022  1.0000
  F   F301      1.0  0.79654  0.01767  0.02462  1.0000
  F   F302      1.0  0.80494  0.01951  0.52298  1.0000
  F   F303      1.0  0.79276  0.52695  0.03506  1.0000
  F   F304      1.0  0.79916  0.53184  0.52360  1.0000
  F   F305      1.0  0.23301  0.41156  0.23862  1.0000
  F   F306      1.0  0.23032  0.41687  0.72892  1.0000
  F   F307      1.0  0.23736  0.90924  0.23600  1.0000
  F   F308      1.0  0.23288  0.92982  0.71779  1.0000
  F   F309      1.0  0.48374  0.40971  0.22472  1.0000
  F   F310      1.0  0.48069  0.41101  0.74069  1.0000
  F   F311      1.0  0.47945  0.90065  0.23328  1.0000
  F   F312      1.0  0.48574  0.91834  0.72113  1.0000
  F   F313      1.0  0.73563  0.40078  0.23797  1.0000
  F   F314      1.0  0.73904  0.42431  0.71813  1.0000
  F   F315      1.0  0.73598  0.92111  0.21533  1.0000
  F   F316      1.0  0.73580  0.91530  0.72219  1.0000
  F   F317      1.0  0.98304  0.42108  0.21806  1.0000
  F   F318      1.0  0.98432  0.41529  0.72205  1.0000
  F   F319      1.0  0.98482  0.91183  0.22267  1.0000
  F   F320      1.0  0.99013  0.90879  0.71776  1.0000
  F   F321      1.0  0.20141  0.46475  0.47950  1.0000
  F   F322      1.0  0.20361  0.48141  0.98125  1.0000
  F   F323      1.0  0.20174  0.97437  0.48160  1.0000
  F   F324      1.0  0.21404  0.96519  0.97373  1.0000
  F   F325      1.0  0.45603  0.47076  0.47588  1.0000
  F   F326      1.0  0.45677  0.46196  0.97357  1.0000
  F   F327      1.0  0.45588  0.96353  0.47650  1.0000
  F   F328      1.0  0.45231  0.97895  0.98185  1.0000
  F   F329      1.0  0.70844  0.47022  0.47527  1.0000
  F   F330      1.0  0.70416  0.46810  0.97012  1.0000
  F   F331      1.0  0.70548  0.97326  0.48927  1.0000
  F   F332      1.0  0.70783  0.96278  0.98383  1.0000
  F   F333      1.0  0.96391  0.46342  0.46602  1.0000
  F   F334      1.0  0.95772  0.46847  0.98180  1.0000
  F   F335      1.0  0.95297  0.96692  0.48505  1.0000
  F   F336      1.0  0.95266  0.97356  0.97492  1.0000
  F   F337      1.0  0.02262  0.06541  0.28266  1.0000
  F   F338      1.0  0.01672  0.07847  0.76545  1.0000
  F   F339      1.0  0.01584  0.59236  0.27080  1.0000
  F   F340      1.0  0.01178  0.60053  0.76080  1.0000
  F   F341      1.0  0.26361  0.08396  0.26976  1.0000
  F   F342      1.0  0.26939  0.07764  0.78288  1.0000
  F   F343      1.0  0.26292  0.57833  0.27695  1.0000
  F   F344      1.0  0.26123  0.61335  0.74792  1.0000
  F   F345      1.0  0.52454  0.06813  0.27065  1.0000
  F   F346      1.0  0.51012  0.09792  0.76103  1.0000
  F   F347      1.0  0.51652  0.58140  0.27382  1.0000
  F   F348      1.0  0.51326  0.58038  0.77880  1.0000
  F   F349      1.0  0.76136  0.08319  0.27831  1.0000
  F   F350      1.0  0.76704  0.07272  0.78257  1.0000
  F   F351      1.0  0.76362  0.58278  0.27830  1.0000
  F   F352      1.0  0.76441  0.57918  0.77964  1.0000
  F   F353      1.0  0.09669  0.39942  0.46648  1.0000
  F   F354      1.0  0.10342  0.41034  0.95533  1.0000
  F   F355      1.0  0.09895  0.89936  0.46218  1.0000
  F   F356      1.0  0.10252  0.91006  0.96128  1.0000
  F   F357      1.0  0.34757  0.39287  0.46934  1.0000
  F   F358      1.0  0.34646  0.41775  0.96353  1.0000
  F   F359      1.0  0.35585  0.92704  0.45341  1.0000
  F   F360      1.0  0.35080  0.90362  0.96115  1.0000
  F   F361      1.0  0.59811  0.41495  0.46393  1.0000
  F   F362      1.0  0.59588  0.40862  0.96410  1.0000
  F   F363      1.0  0.60124  0.90210  0.45676  1.0000
  F   F364      1.0  0.59885  0.91495  0.96660  1.0000
  F   F365      1.0  0.84590  0.41110  0.46116  1.0000
  F   F366      1.0  0.84974  0.40812  0.95200  1.0000
  F   F367      1.0  0.85515  0.89640  0.45585  1.0000
  F   F368      1.0  0.85307  0.89845  0.96308  1.0000
  F   F369      1.0  0.03360  0.29872  0.30258  1.0000
  F   F370      1.0  0.04684  0.30335  0.78154  1.0000
  F   F371      1.0  0.05127  0.79645  0.28434  1.0000
  F   F372      1.0  0.05812  0.79715  0.79151  1.0000
  F   F373      1.0  0.29417  0.29360  0.29122  1.0000
  F   F374      1.0  0.29385  0.30969  0.79240  1.0000
  F   F375      1.0  0.30008  0.79853  0.28787  1.0000
  F   F376      1.0  0.28943  0.79906  0.78612  1.0000
  F   F377      1.0  0.54729  0.29480  0.29058  1.0000
  F   F378      1.0  0.54423  0.29877  0.78914  1.0000
  F   F379      1.0  0.54347  0.79556  0.29024  1.0000
  F   F380      1.0  0.54753  0.81068  0.78715  1.0000
  F   F381      1.0  0.79972  0.30276  0.29392  1.0000
  F   F382      1.0  0.79527  0.29564  0.78265  1.0000
  F   F383      1.0  0.78857  0.80382  0.30186  1.0000
  F   F384      1.0  0.78917  0.78396  0.79604  1.0000
