data_image0
_chemical_formula_structural       Hf96F384
_chemical_formula_sum              "Hf96 F384"
_cell_length_a       31.0257
_cell_length_b       15.5102
_cell_length_c       15.5061
_cell_angle_alpha    63.342
_cell_angle_beta     63.342
_cell_angle_gamma    80.1625

_space_group_name_H-M_alt    "P 1"
_space_group_IT_number       1

loop_
  _space_group_symop_operation_xyz
  'x, y, z'

loop_
  _atom_site_type_symbol
  _atom_site_label
  _atom_site_symmetry_multiplicity
  _atom_site_fract_x
  _atom_site_fract_y
  _atom_site_fract_z
  _atom_site_occupancy
  Hf  Hf1       1.0  0.19339  0.11095  0.37777  1.0000
  Hf  Hf2       1.0  0.19638  0.11222  0.87235  1.0000
  Hf  Hf3       1.0  0.19785  0.60875  0.36779  1.0000
  Hf  Hf4       1.0  0.19287  0.60497  0.87924  1.0000
  Hf  Hf5       1.0  0.44467  0.10749  0.37709  1.0000
  Hf  Hf6       1.0  0.44321  0.10063  0.87551  1.0000
  Hf  Hf7       1.0  0.44620  0.60979  0.37627  1.0000
  Hf  Hf8       1.0  0.44521  0.60587  0.88071  1.0000
  Hf  Hf9       1.0  0.69395  0.10151  0.38418  1.0000
  Hf  Hf10      1.0  0.69920  0.11235  0.87036  1.0000
  Hf  Hf11      1.0  0.69527  0.59927  0.37513  1.0000
  Hf  Hf12      1.0  0.69434  0.61135  0.87940  1.0000
  Hf  Hf13      1.0  0.94824  0.10559  0.36894  1.0000
  Hf  Hf14      1.0  0.94583  0.10865  0.87617  1.0000
  Hf  Hf15      1.0  0.94398  0.61060  0.37337  1.0000
  Hf  Hf16      1.0  0.94555  0.60878  0.87283  1.0000
  Hf  Hf17      1.0  0.05405  0.39615  0.12443  1.0000
  Hf  Hf18      1.0  0.05500  0.40249  0.61888  1.0000
  Hf  Hf19      1.0  0.05313  0.89572  0.11965  1.0000
  Hf  Hf20      1.0  0.05760  0.89985  0.60961  1.0000
  Hf  Hf21      1.0  0.30291  0.38648  0.13250  1.0000
  Hf  Hf22      1.0  0.30790  0.39520  0.61121  1.0000
  Hf  Hf23      1.0  0.30085  0.89715  0.12996  1.0000
  Hf  Hf24      1.0  0.30165  0.88944  0.63747  1.0000
  Hf  Hf25      1.0  0.55533  0.39505  0.12317  1.0000
  Hf  Hf26      1.0  0.55416  0.39368  0.62692  1.0000
  Hf  Hf27      1.0  0.55753  0.89586  0.11700  1.0000
  Hf  Hf28      1.0  0.55381  0.88623  0.62385  1.0000
  Hf  Hf29      1.0  0.79940  0.39118  0.12508  1.0000
  Hf  Hf30      1.0  0.79924  0.39503  0.63734  1.0000
  Hf  Hf31      1.0  0.80729  0.89335  0.12141  1.0000
  Hf  Hf32      1.0  0.80126  0.89453  0.62974  1.0000
  Hf  Hf33      1.0  0.05370  0.19139  0.41252  1.0000
  Hf  Hf34      1.0  0.05711  0.17617  0.91485  1.0000
  Hf  Hf35      1.0  0.05713  0.68796  0.40974  1.0000
  Hf  Hf36      1.0  0.05561  0.68291  0.91582  1.0000
  Hf  Hf37      1.0  0.30424  0.17498  0.42354  1.0000
  Hf  Hf38      1.0  0.30757  0.19094  0.91161  1.0000
  Hf  Hf39      1.0  0.30819  0.68557  0.41376  1.0000
  Hf  Hf40      1.0  0.30549  0.67738  0.91904  1.0000
  Hf  Hf41      1.0  0.55003  0.17128  0.42617  1.0000
  Hf  Hf42      1.0  0.55272  0.17935  0.91866  1.0000
  Hf  Hf43      1.0  0.55542  0.68073  0.42208  1.0000
  Hf  Hf44      1.0  0.55642  0.67565  0.92015  1.0000
  Hf  Hf45      1.0  0.80329  0.17647  0.41496  1.0000
  Hf  Hf46      1.0  0.80098  0.17752  0.92928  1.0000
  Hf  Hf47      1.0  0.80340  0.67768  0.41416  1.0000
  Hf  Hf48      1.0  0.80648  0.68465  0.91746  1.0000
  Hf  Hf49      1.0  0.15559  0.39107  0.33456  1.0000
  Hf  Hf50      1.0  0.15719  0.39047  0.83453  1.0000
  Hf  Hf51      1.0  0.16064  0.89012  0.32199  1.0000
  Hf  Hf52      1.0  0.15822  0.88482  0.83388  1.0000
  Hf  Hf53      1.0  0.40963  0.38871  0.32942  1.0000
  Hf  Hf54      1.0  0.41047  0.38203  0.84034  1.0000
  Hf  Hf55      1.0  0.40952  0.88798  0.33218  1.0000
  Hf  Hf56      1.0  0.40620  0.88125  0.84651  1.0000
  Hf  Hf57      1.0  0.65575  0.38214  0.33810  1.0000
  Hf  Hf58      1.0  0.65722  0.38887  0.84032  1.0000
  Hf  Hf59      1.0  0.66231  0.88424  0.33037  1.0000
  Hf  Hf60      1.0  0.65993  0.88794  0.82629  1.0000
  Hf  Hf61      1.0  0.91177  0.38673  0.32911  1.0000
  Hf  Hf62      1.0  0.90695  0.39088  0.83224  1.0000
  Hf  Hf63      1.0  0.91095  0.88435  0.33756  1.0000
  Hf  Hf64      1.0  0.91230  0.89128  0.82677  1.0000
  Hf  Hf65      1.0  0.19627  0.32082  0.08433  1.0000
  Hf  Hf66      1.0  0.19601  0.32433  0.57655  1.0000
  Hf  Hf67      1.0  0.19412  0.82354  0.07320  1.0000
  Hf  Hf68      1.0  0.19748  0.81895  0.57973  1.0000
  Hf  Hf69      1.0  0.44275  0.31039  0.08973  1.0000
  Hf  Hf70      1.0  0.44661  0.31686  0.58146  1.0000
  Hf  Hf71      1.0  0.44460  0.81957  0.08800  1.0000
  Hf  Hf72      1.0  0.44494  0.81489  0.58687  1.0000
  Hf  Hf73      1.0  0.69366  0.31653  0.09715  1.0000
  Hf  Hf74      1.0  0.69164  0.31415  0.59059  1.0000
  Hf  Hf75      1.0  0.69547  0.82157  0.07638  1.0000
  Hf  Hf76      1.0  0.69546  0.81548  0.58272  1.0000
  Hf  Hf77      1.0  0.94472  0.31223  0.08613  1.0000
  Hf  Hf78      1.0  0.94339  0.31834  0.58320  1.0000
  Hf  Hf79      1.0  0.94734  0.81576  0.08583  1.0000
  Hf  Hf80      1.0  0.94238  0.81713  0.58702  1.0000
  Hf  Hf81      1.0  0.09123  0.11541  0.16184  1.0000
  Hf  Hf82      1.0  0.09281  0.12142  0.65825  1.0000
  Hf  Hf83      1.0  0.08955  0.61352  0.17057  1.0000
  Hf  Hf84      1.0  0.09285  0.62135  0.66220  1.0000
  Hf  Hf85      1.0  0.33747  0.10964  0.17313  1.0000
  Hf  Hf86      1.0  0.34142  0.10573  0.67084  1.0000
  Hf  Hf87      1.0  0.34246  0.61484  0.16573  1.0000
  Hf  Hf88      1.0  0.33809  0.61148  0.66865  1.0000
  Hf  Hf89      1.0  0.59072  0.10817  0.16942  1.0000
  Hf  Hf90      1.0  0.58733  0.10357  0.67373  1.0000
  Hf  Hf91      1.0  0.58916  0.61136  0.17284  1.0000
  Hf  Hf92      1.0  0.59151  0.60923  0.67208  1.0000
  Hf  Hf93      1.0  0.84502  0.10401  0.16803  1.0000
  Hf  Hf94      1.0  0.84361  0.11787  0.65991  1.0000
  Hf  Hf95      1.0  0.84185  0.61186  0.16246  1.0000
  Hf  Hf96      1.0  0.84024  0.62615  0.66427  1.0000
  F   F1        1.0  0.08080  0.15188  0.29209  1.0000
  F   F2        1.0  0.08821  0.12999  0.79103  1.0000
  F   F3        1.0  0.08564  0.64238  0.29278  1.0000
  F   F4        1.0  0.07446  0.63383  0.79851  1.0000
  F   F5        1.0  0.32758  0.10922  0.31225  1.0000
  F   F6        1.0  0.33081  0.13289  0.80247  1.0000
  F   F7        1.0  0.33373  0.63978  0.30023  1.0000
  F   F8        1.0  0.33051  0.63208  0.80038  1.0000
  F   F9        1.0  0.57686  0.12286  0.31105  1.0000
  F   F10       1.0  0.57180  0.10469  0.81354  1.0000
  F   F11       1.0  0.58195  0.63608  0.29181  1.0000
  F   F12       1.0  0.58484  0.61338  0.81124  1.0000
  F   F13       1.0  0.82429  0.10526  0.30942  1.0000
  F   F14       1.0  0.83112  0.13680  0.80405  1.0000
  F   F15       1.0  0.82704  0.62217  0.30292  1.0000
  F   F16       1.0  0.83354  0.64964  0.79319  1.0000
  F   F17       1.0  0.18876  0.33673  0.44075  1.0000
  F   F18       1.0  0.18822  0.33881  0.93338  1.0000
  F   F19       1.0  0.18576  0.83588  0.44959  1.0000
  F   F20       1.0  0.18972  0.84746  0.93192  1.0000
  F   F21       1.0  0.43357  0.34472  0.44412  1.0000
  F   F22       1.0  0.43941  0.33619  0.94930  1.0000
  F   F23       1.0  0.44165  0.84047  0.44581  1.0000
  F   F24       1.0  0.44150  0.85058  0.93546  1.0000
  F   F25       1.0  0.68500  0.34291  0.44245  1.0000
  F   F26       1.0  0.68218  0.34209  0.95833  1.0000
  F   F27       1.0  0.69301  0.84373  0.44736  1.0000
  F   F28       1.0  0.67717  0.84404  0.95051  1.0000
  F   F29       1.0  0.93105  0.33331  0.45070  1.0000
  F   F30       1.0  0.93321  0.34704  0.94406  1.0000
  F   F31       1.0  0.93578  0.83699  0.45592  1.0000
  F   F32       1.0  0.93697  0.83401  0.94450  1.0000
  F   F33       1.0  0.16910  0.38120  0.19235  1.0000
  F   F34       1.0  0.17135  0.36617  0.69715  1.0000
  F   F35       1.0  0.17146  0.88744  0.18432  1.0000
  F   F36       1.0  0.16903  0.87058  0.69364  1.0000
  F   F37       1.0  0.42354  0.37349  0.18912  1.0000
  F   F38       1.0  0.42658  0.35872  0.69758  1.0000
  F   F39       1.0  0.42456  0.87582  0.19236  1.0000
  F   F40       1.0  0.42342  0.87205  0.70214  1.0000
  F   F41       1.0  0.67359  0.38956  0.19252  1.0000
  F   F42       1.0  0.66506  0.35743  0.70622  1.0000
  F   F43       1.0  0.67655  0.85577  0.20059  1.0000
  F   F44       1.0  0.66846  0.86635  0.69627  1.0000
  F   F45       1.0  0.91712  0.36394  0.20508  1.0000
  F   F46       1.0  0.92163  0.39348  0.68530  1.0000
  F   F47       1.0  0.92960  0.88228  0.18039  1.0000
  F   F48       1.0  0.92489  0.89564  0.68699  1.0000
  F   F49       1.0  0.06062  0.15895  0.05420  1.0000
  F   F50       1.0  0.06821  0.17337  0.54621  1.0000
  F   F51       1.0  0.07412  0.66604  0.04430  1.0000
  F   F52       1.0  0.06287  0.66046  0.55596  1.0000
  F   F53       1.0  0.31761  0.17035  0.04664  1.0000
  F   F54       1.0  0.31369  0.14697  0.56272  1.0000
  F   F55       1.0  0.32453  0.66761  0.04080  1.0000
  F   F56       1.0  0.32067  0.66945  0.54386  1.0000
  F   F57       1.0  0.56379  0.13881  0.05789  1.0000
  F   F58       1.0  0.55691  0.14526  0.57192  1.0000
  F   F59       1.0  0.55447  0.65407  0.06166  1.0000
  F   F60       1.0  0.55974  0.64131  0.56325  1.0000
  F   F61       1.0  0.81228  0.15004  0.06199  1.0000
  F   F62       1.0  0.81374  0.14988  0.55149  1.0000
  F   F63       1.0  0.81450  0.66193  0.04869  1.0000
  F   F64       1.0  0.81305  0.65949  0.55675  1.0000
  F   F65       1.0  0.20608  0.19969  0.22242  1.0000
  F   F66       1.0  0.20196  0.20497  0.70591  1.0000
  F   F67       1.0  0.20149  0.71838  0.20588  1.0000
  F   F68       1.0  0.20664  0.71070  0.71208  1.0000
  F   F69       1.0  0.45403  0.19241  0.21255  1.0000
  F   F70       1.0  0.45927  0.19387  0.70673  1.0000
  F   F71       1.0  0.44674  0.69694  0.21369  1.0000
  F   F72       1.0  0.45582  0.69758  0.71592  1.0000
  F   F73       1.0  0.69107  0.20818  0.22997  1.0000
  F   F74       1.0  0.71418  0.19002  0.71153  1.0000
  F   F75       1.0  0.70727  0.69631  0.22221  1.0000
  F   F76       1.0  0.70228  0.69469  0.72471  1.0000
  F   F77       1.0  0.95627  0.18725  0.20619  1.0000
  F   F78       1.0  0.94672  0.21625  0.71965  1.0000
  F   F79       1.0  0.95539  0.70503  0.21304  1.0000
  F   F80       1.0  0.95619  0.70262  0.70777  1.0000
  F   F81       1.0  0.14700  0.11651  0.04403  1.0000
  F   F82       1.0  0.15372  0.09309  0.52944  1.0000
  F   F83       1.0  0.14771  0.57935  0.04258  1.0000
  F   F84       1.0  0.15136  0.61036  0.53239  1.0000
  F   F85       1.0  0.39387  0.08815  0.04819  1.0000
  F   F86       1.0  0.40041  0.10080  0.53235  1.0000
  F   F87       1.0  0.39602  0.57800  0.04999  1.0000
  F   F88       1.0  0.40056  0.59741  0.54103  1.0000
  F   F89       1.0  0.64842  0.08518  0.03494  1.0000
  F   F90       1.0  0.64444  0.10189  0.53849  1.0000
  F   F91       1.0  0.64970  0.60902  0.04102  1.0000
  F   F92       1.0  0.65350  0.58903  0.53952  1.0000
  F   F93       1.0  0.90243  0.08644  0.03726  1.0000
  F   F94       1.0  0.90139  0.08808  0.53690  1.0000
  F   F95       1.0  0.89962  0.60742  0.03348  1.0000
  F   F96       1.0  0.89949  0.60321  0.52785  1.0000
  F   F97       1.0  0.15433  0.20510  0.13900  1.0000
  F   F98       1.0  0.15646  0.19782  0.60581  1.0000
  F   F99       1.0  0.15267  0.70354  0.10127  1.0000
  F   F100      1.0  0.15491  0.69477  0.62964  1.0000
  F   F101      1.0  0.40146  0.18032  0.12657  1.0000
  F   F102      1.0  0.39977  0.19463  0.62262  1.0000
  F   F103      1.0  0.40480  0.69533  0.11726  1.0000
  F   F104      1.0  0.40898  0.69617  0.62459  1.0000
  F   F105      1.0  0.65493  0.18348  0.13124  1.0000
  F   F106      1.0  0.65219  0.19714  0.63890  1.0000
  F   F107      1.0  0.66055  0.69411  0.12383  1.0000
  F   F108      1.0  0.65319  0.69290  0.63954  1.0000
  F   F109      1.0  0.90278  0.19430  0.11839  1.0000
  F   F110      1.0  0.90466  0.18347  0.63162  1.0000
  F   F111      1.0  0.90371  0.69506  0.13954  1.0000
  F   F112      1.0  0.90268  0.69978  0.61206  1.0000
  F   F113      1.0  0.09815  0.31247  0.34492  1.0000
  F   F114      1.0  0.10172  0.29634  0.88030  1.0000
  F   F115      1.0  0.10257  0.80600  0.35852  1.0000
  F   F116      1.0  0.09536  0.80587  0.87165  1.0000
  F   F117      1.0  0.34925  0.29638  0.37780  1.0000
  F   F118      1.0  0.34825  0.30817  0.87838  1.0000
  F   F119      1.0  0.35306  0.79498  0.36611  1.0000
  F   F120      1.0  0.35182  0.80635  0.87538  1.0000
  F   F121      1.0  0.59460  0.29337  0.36790  1.0000
  F   F122      1.0  0.59515  0.30397  0.90100  1.0000
  F   F123      1.0  0.59814  0.80144  0.37638  1.0000
  F   F124      1.0  0.60271  0.79631  0.88536  1.0000
  F   F125      1.0  0.85204  0.30736  0.39277  1.0000
  F   F126      1.0  0.85076  0.29086  0.87516  1.0000
  F   F127      1.0  0.85412  0.80769  0.38068  1.0000
  F   F128      1.0  0.84461  0.80225  0.86675  1.0000
  F   F129      1.0  0.06891  0.25276  0.13179  1.0000
  F   F130      1.0  0.06571  0.26367  0.63591  1.0000
  F   F131      1.0  0.06329  0.74438  0.14933  1.0000
  F   F132      1.0  0.07308  0.75891  0.63448  1.0000
  F   F133      1.0  0.31179  0.25326  0.14426  1.0000
  F   F134      1.0  0.31900  0.24919  0.63551  1.0000
  F   F135      1.0  0.31234  0.75370  0.14582  1.0000
  F   F136      1.0  0.32021  0.75265  0.64128  1.0000
  F   F137      1.0  0.57522  0.24500  0.13109  1.0000
  F   F138      1.0  0.56296  0.23842  0.65451  1.0000
  F   F139      1.0  0.57036  0.75517  0.12174  1.0000
  F   F140      1.0  0.56438  0.74176  0.63895  1.0000
  F   F141      1.0  0.81276  0.23798  0.16668  1.0000
  F   F142      1.0  0.81956  0.25475  0.62643  1.0000
  F   F143      1.0  0.81615  0.75199  0.14202  1.0000
  F   F144      1.0  0.82232  0.76673  0.61872  1.0000
  F   F145      1.0  0.13020  0.38362  0.08207  1.0000
  F   F146      1.0  0.12752  0.37754  0.58602  1.0000
  F   F147      1.0  0.12604  0.87555  0.10116  1.0000
  F   F148      1.0  0.12674  0.88816  0.59058  1.0000
  F   F149      1.0  0.37390  0.34967  0.12455  1.0000
  F   F150      1.0  0.37924  0.37279  0.59917  1.0000
  F   F151      1.0  0.37407  0.87071  0.11067  1.0000
  F   F152      1.0  0.37413  0.87176  0.62102  1.0000
  F   F153      1.0  0.62441  0.36358  0.11886  1.0000
  F   F154      1.0  0.62764  0.40199  0.58114  1.0000
  F   F155      1.0  0.62654  0.86920  0.10434  1.0000
  F   F156      1.0  0.62510  0.87984  0.59790  1.0000
  F   F157      1.0  0.87301  0.36484  0.10983  1.0000
  F   F158      1.0  0.87343  0.36178  0.62590  1.0000
  F   F159      1.0  0.87369  0.85964  0.12782  1.0000
  F   F160      1.0  0.87451  0.85208  0.63043  1.0000
  F   F161      1.0  0.18221  0.25713  0.35240  1.0000
  F   F162      1.0  0.19462  0.24643  0.84580  1.0000
  F   F163      1.0  0.18436  0.75024  0.35609  1.0000
  F   F164      1.0  0.18054  0.75012  0.86746  1.0000
  F   F165      1.0  0.43607  0.24865  0.34650  1.0000
  F   F166      1.0  0.43340  0.24074  0.85614  1.0000
  F   F167      1.0  0.44429  0.75746  0.33953  1.0000
  F   F168      1.0  0.42931  0.73766  0.87717  1.0000
  F   F169      1.0  0.67593  0.24137  0.37493  1.0000
  F   F170      1.0  0.68117  0.25134  0.86424  1.0000
  F   F171      1.0  0.68618  0.75350  0.35940  1.0000
  F   F172      1.0  0.68849  0.75142  0.85869  1.0000
  F   F173      1.0  0.93764  0.24461  0.34824  1.0000
  F   F174      1.0  0.93570  0.24563  0.85583  1.0000
  F   F175      1.0  0.94619  0.75155  0.34905  1.0000
  F   F176      1.0  0.93343  0.75169  0.84203  1.0000
  F   F177      1.0  0.12119  0.12664  0.39474  1.0000
  F   F178      1.0  0.12387  0.11996  0.89986  1.0000
  F   F179      1.0  0.12599  0.62467  0.40323  1.0000
  F   F180      1.0  0.12624  0.63963  0.87233  1.0000
  F   F181      1.0  0.37390  0.13299  0.38716  1.0000
  F   F182      1.0  0.37073  0.13606  0.89751  1.0000
  F   F183      1.0  0.37479  0.61614  0.40779  1.0000
  F   F184      1.0  0.37475  0.63384  0.88491  1.0000
  F   F185      1.0  0.62137  0.10539  0.40701  1.0000
  F   F186      1.0  0.62470  0.14390  0.86886  1.0000
  F   F187      1.0  0.62848  0.63251  0.38845  1.0000
  F   F188      1.0  0.62184  0.61717  0.91813  1.0000
  F   F189      1.0  0.87638  0.13975  0.37954  1.0000
  F   F190      1.0  0.87364  0.12601  0.90225  1.0000
  F   F191      1.0  0.87728  0.64982  0.37474  1.0000
  F   F192      1.0  0.87404  0.61118  0.90604  1.0000
  F   F193      1.0  0.00462  0.36303  0.07885  1.0000
  F   F194      1.0  0.00332  0.36183  0.57278  1.0000
  F   F195      1.0  0.01178  0.86574  0.07170  1.0000
  F   F196      1.0  0.00848  0.85489  0.57790  1.0000
  F   F197      1.0  0.25612  0.36248  0.07656  1.0000
  F   F198      1.0  0.26072  0.37760  0.56223  1.0000
  F   F199      1.0  0.25595  0.86913  0.06865  1.0000
  F   F200      1.0  0.26090  0.85342  0.57711  1.0000
  F   F201      1.0  0.50931  0.34086  0.09828  1.0000
  F   F202      1.0  0.51215  0.36170  0.57195  1.0000
  F   F203      1.0  0.50511  0.86279  0.08063  1.0000
  F   F204      1.0  0.51195  0.86651  0.56100  1.0000
  F   F205      1.0  0.76176  0.35949  0.06597  1.0000
  F   F206      1.0  0.75872  0.34061  0.58924  1.0000
  F   F207      1.0  0.75856  0.85654  0.07725  1.0000
  F   F208      1.0  0.75400  0.85708  0.57868  1.0000
  F   F209      1.0  0.06495  0.48752  0.17643  1.0000
  F   F210      1.0  0.07382  0.48544  0.66737  1.0000
  F   F211      1.0  0.07405  0.99924  0.15403  1.0000
  F   F212      1.0  0.07342  0.99877  0.65700  1.0000
  F   F213      1.0  0.32132  0.48241  0.16993  1.0000
  F   F214      1.0  0.31987  0.48552  0.66571  1.0000
  F   F215      1.0  0.31281  0.98986  0.18382  1.0000
  F   F216      1.0  0.31470  0.97362  0.69061  1.0000
  F   F217      1.0  0.56816  0.48501  0.17164  1.0000
  F   F218      1.0  0.56016  0.48412  0.69063  1.0000
  F   F219      1.0  0.57102  0.97051  0.17971  1.0000
  F   F220      1.0  0.57160  0.97524  0.68384  1.0000
  F   F221      1.0  0.81716  0.47592  0.17112  1.0000
  F   F222      1.0  0.82072  0.49148  0.66358  1.0000
  F   F223      1.0  0.82246  0.98641  0.17663  1.0000
  F   F224      1.0  0.82523  0.97683  0.66796  1.0000
  F   F225      1.0  0.24231  0.14036  0.43915  1.0000
  F   F226      1.0  0.23979  0.14327  0.92301  1.0000
  F   F227      1.0  0.24232  0.63823  0.41926  1.0000
  F   F228      1.0  0.24252  0.63286  0.92505  1.0000
  F   F229      1.0  0.48477  0.12424  0.44679  1.0000
  F   F230      1.0  0.49277  0.14463  0.91191  1.0000
  F   F231      1.0  0.49073  0.63928  0.43505  1.0000
  F   F232      1.0  0.48796  0.63055  0.93742  1.0000
  F   F233      1.0  0.73748  0.14619  0.43029  1.0000
  F   F234      1.0  0.73801  0.14028  0.93551  1.0000
  F   F235      1.0  0.74318  0.63494  0.41987  1.0000
  F   F236      1.0  0.74816  0.64289  0.91700  1.0000
  F   F237      1.0  0.99816  0.14620  0.40259  1.0000
  F   F238      1.0  0.99747  0.14259  0.90709  1.0000
  F   F239      1.0  0.99795  0.63054  0.42599  1.0000
  F   F240      1.0  0.98852  0.64279  0.92786  1.0000
  F   F241      1.0  0.17812  0.01252  0.32163  1.0000
  F   F242      1.0  0.18201  0.01815  0.81156  1.0000
  F   F243      1.0  0.18174  0.51995  0.31529  1.0000
  F   F244      1.0  0.18318  0.52241  0.81436  1.0000
  F   F245      1.0  0.43112  0.01300  0.32364  1.0000
  F   F246      1.0  0.42684  0.01691  0.81511  1.0000
  F   F247      1.0  0.42910  0.52014  0.31827  1.0000
  F   F248      1.0  0.43373  0.50679  0.83091  1.0000
  F   F249      1.0  0.68776  0.00344  0.32012  1.0000
  F   F250      1.0  0.68139  0.01796  0.82668  1.0000
  F   F251      1.0  0.67747  0.51896  0.31654  1.0000
  F   F252      1.0  0.67717  0.50799  0.85115  1.0000
  F   F253      1.0  0.93532  0.00875  0.32577  1.0000
  F   F254      1.0  0.92895  0.02065  0.82094  1.0000
  F   F255      1.0  0.92699  0.51619  0.32472  1.0000
  F   F256      1.0  0.93112  0.52741  0.80703  1.0000
  F   F257      1.0  0.00387  0.25587  0.99364  1.0000
  F   F258      1.0  1.00000  0.25363  0.49158  1.0000
  F   F259      1.0  0.00035  0.74674  0.00609  1.0000
  F   F260      1.0  0.00103  0.75359  0.49787  1.0000
  F   F261      1.0  0.24896  0.25172  0.99767  1.0000
  F   F262      1.0  0.25371  0.26147  0.49556  1.0000
  F   F263      1.0  0.24921  0.73739  0.00479  1.0000
  F   F264      1.0  0.25625  0.75119  0.49552  1.0000
  F   F265      1.0  0.49837  0.23684  0.01187  1.0000
  F   F266      1.0  0.50168  0.26473  0.48784  1.0000
  F   F267      1.0  0.50336  0.75468  0.98596  1.0000
  F   F268      1.0  0.50434  0.76136  0.48865  1.0000
  F   F269      1.0  0.74668  0.24220  0.01664  1.0000
  F   F270      1.0  0.75373  0.25343  0.48640  1.0000
  F   F271      1.0  0.75084  0.76525  0.97766  1.0000
  F   F272      1.0  0.75245  0.74664  0.49945  1.0000
  F   F273      1.0  0.11948  0.00035  0.25195  1.0000
  F   F274      1.0  0.12316  0.99714  0.74948  1.0000
  F   F275      1.0  0.12548  0.50744  0.24113  1.0000
  F   F276      1.0  0.12023  0.50426  0.76231  1.0000
  F   F277      1.0  0.36968  0.99265  0.25789  1.0000
  F   F278      1.0  0.37465  0.99506  0.74667  1.0000
  F   F279      1.0  0.37134  0.49622  0.25509  1.0000
  F   F280      1.0  0.37561  0.49431  0.76148  1.0000
  F   F281      1.0  0.62725  0.98699  0.24475  1.0000
  F   F282      1.0  0.63372  0.00515  0.73548  1.0000
  F   F283      1.0  0.61682  0.49852  0.25862  1.0000
  F   F284      1.0  0.62752  0.49613  0.74066  1.0000
  F   F285      1.0  0.88367  0.99834  0.24584  1.0000
  F   F286      1.0  0.86279  0.99216  0.77277  1.0000
  F   F287      1.0  0.87406  0.49712  0.25239  1.0000
  F   F288      1.0  0.86777  0.49918  0.75542  1.0000
  F   F289      1.0  0.03875  0.03583  0.02156  1.0000
  F   F290      1.0  0.03955  0.03118  0.52174  1.0000
  F   F291      1.0  0.04761  0.53935  0.01506  1.0000
  F   F292      1.0  0.04450  0.53124  0.50912  1.0000
  F   F293      1.0  0.28985  0.03842  0.02092  1.0000
  F   F294      1.0  0.29876  0.02234  0.52017  1.0000
  F   F295      1.0  0.28990  0.52633  0.02815  1.0000
  F   F296      1.0  0.29362  0.54078  0.52757  1.0000
  F   F297      1.0  0.54317  0.03622  0.00880  1.0000
  F   F298      1.0  0.54128  0.02215  0.53244  1.0000
  F   F299      1.0  0.53625  0.52790  0.02657  1.0000
  F   F300      1.0  0.55205  0.52957  0.51131  1.0000
  F   F301      1.0  0.79344  0.03010  0.02095  1.0000
  F   F302      1.0  0.79303  0.03095  0.51352  1.0000
  F   F303      1.0  0.79532  0.52324  0.02139  1.0000
  F   F304      1.0  0.77803  0.53504  0.53370  1.0000
  F   F305      1.0  0.23424  0.41902  0.22505  1.0000
  F   F306      1.0  0.23380  0.43200  0.71280  1.0000
  F   F307      1.0  0.23242  0.92970  0.21686  1.0000
  F   F308      1.0  0.23434  0.90901  0.72277  1.0000
  F   F309      1.0  0.48270  0.42079  0.22809  1.0000
  F   F310      1.0  0.48599  0.39516  0.73956  1.0000
  F   F311      1.0  0.48294  0.93751  0.21404  1.0000
  F   F312      1.0  0.48905  0.90514  0.73528  1.0000
  F   F313      1.0  0.73264  0.39799  0.23644  1.0000
  F   F314      1.0  0.72866  0.41702  0.73205  1.0000
  F   F315      1.0  0.73981  0.90454  0.22314  1.0000
  F   F316      1.0  0.73016  0.93067  0.70961  1.0000
  F   F317      1.0  0.98659  0.42305  0.20702  1.0000
  F   F318      1.0  0.99012  0.42131  0.71404  1.0000
  F   F319      1.0  0.98960  0.91803  0.22573  1.0000
  F   F320      1.0  0.98831  0.91553  0.71879  1.0000
  F   F321      1.0  0.20535  0.47722  0.46960  1.0000
  F   F322      1.0  0.20983  0.46980  0.96368  1.0000
  F   F323      1.0  0.20743  0.97416  0.47497  1.0000
  F   F324      1.0  0.20514  0.97143  0.97165  1.0000
  F   F325      1.0  0.45520  0.47687  0.47202  1.0000
  F   F326      1.0  0.45431  0.45913  0.99267  1.0000
  F   F327      1.0  0.45014  0.97288  0.48246  1.0000
  F   F328      1.0  0.45718  0.97098  0.97093  1.0000
  F   F329      1.0  0.70925  0.45628  0.47397  1.0000
  F   F330      1.0  0.71163  0.47581  0.98904  1.0000
  F   F331      1.0  0.70854  0.97115  0.47727  1.0000
  F   F332      1.0  0.71029  0.96838  0.97073  1.0000
  F   F333      1.0  0.95991  0.46120  0.46617  1.0000
  F   F334      1.0  0.95155  0.46289  0.98098  1.0000
  F   F335      1.0  0.95343  0.96756  0.48646  1.0000
  F   F336      1.0  0.95979  0.96870  0.96764  1.0000
  F   F337      1.0  0.01824  0.07300  0.26589  1.0000
  F   F338      1.0  0.01528  0.10610  0.75329  1.0000
  F   F339      1.0  0.01065  0.57482  0.28850  1.0000
  F   F340      1.0  0.01534  0.58555  0.77945  1.0000
  F   F341      1.0  0.26246  0.08634  0.28897  1.0000
  F   F342      1.0  0.26680  0.09066  0.77779  1.0000
  F   F343      1.0  0.26832  0.58229  0.26505  1.0000
  F   F344      1.0  0.26959  0.58892  0.76566  1.0000
  F   F345      1.0  0.51675  0.08849  0.27341  1.0000
  F   F346      1.0  0.51411  0.06300  0.77840  1.0000
  F   F347      1.0  0.51989  0.59052  0.26679  1.0000
  F   F348      1.0  0.51353  0.57862  0.79017  1.0000
  F   F349      1.0  0.75431  0.10587  0.26386  1.0000
  F   F350      1.0  0.77021  0.08042  0.78273  1.0000
  F   F351      1.0  0.76734  0.57713  0.26202  1.0000
  F   F352      1.0  0.76904  0.59526  0.77048  1.0000
  F   F353      1.0  0.09979  0.40551  0.45175  1.0000
  F   F354      1.0  0.10017  0.41287  0.94954  1.0000
  F   F355      1.0  0.09990  0.90809  0.45378  1.0000
  F   F356      1.0  0.10406  0.89257  0.96853  1.0000
  F   F357      1.0  0.35257  0.40826  0.45771  1.0000
  F   F358      1.0  0.35547  0.40197  0.97779  1.0000
  F   F359      1.0  0.35578  0.88780  0.47171  1.0000
  F   F360      1.0  0.35093  0.90458  0.97597  1.0000
  F   F361      1.0  0.60123  0.39781  0.45784  1.0000
  F   F362      1.0  0.59719  0.42378  0.96109  1.0000
  F   F363      1.0  0.60261  0.89911  0.46436  1.0000
  F   F364      1.0  0.60082  0.93245  0.94776  1.0000
  F   F365      1.0  0.84468  0.42747  0.46986  1.0000
  F   F366      1.0  0.85243  0.41141  0.95098  1.0000
  F   F367      1.0  0.85575  0.92248  0.46570  1.0000
  F   F368      1.0  0.85288  0.89911  0.96659  1.0000
  F   F369      1.0  0.04164  0.30869  0.27974  1.0000
  F   F370      1.0  0.04978  0.29847  0.77947  1.0000
  F   F371      1.0  0.04506  0.80195  0.29213  1.0000
  F   F372      1.0  0.04489  0.79725  0.78286  1.0000
  F   F373      1.0  0.29510  0.29430  0.28849  1.0000
  F   F374      1.0  0.29884  0.31146  0.78897  1.0000
  F   F375      1.0  0.29171  0.80342  0.29419  1.0000
  F   F376      1.0  0.29633  0.79341  0.80108  1.0000
  F   F377      1.0  0.53505  0.28783  0.28620  1.0000
  F   F378      1.0  0.55884  0.30252  0.77262  1.0000
  F   F379      1.0  0.54120  0.80032  0.29179  1.0000
  F   F380      1.0  0.55628  0.77829  0.78438  1.0000
  F   F381      1.0  0.80170  0.29647  0.29302  1.0000
  F   F382      1.0  0.78985  0.29660  0.80154  1.0000
  F   F383      1.0  0.79625  0.79770  0.29541  1.0000
  F   F384      1.0  0.78640  0.80996  0.78712  1.0000
