data_image0
_chemical_formula_structural       Hf96F384
_chemical_formula_sum              "Hf96 F384"
_cell_length_a       31.034
_cell_length_b       15.5207
_cell_length_c       15.5091
_cell_angle_alpha    63.342
_cell_angle_beta     63.342
_cell_angle_gamma    80.1625

_space_group_name_H-M_alt    "P 1"
_space_group_IT_number       1

loop_
  _space_group_symop_operation_xyz
  'x, y, z'

loop_
  _atom_site_type_symbol
  _atom_site_label
  _atom_site_symmetry_multiplicity
  _atom_site_fract_x
  _atom_site_fract_y
  _atom_site_fract_z
  _atom_site_occupancy
  Hf  Hf1       1.0  0.19557  0.11122  0.36732  1.0000
  Hf  Hf2       1.0  0.19678  0.09998  0.88082  1.0000
  Hf  Hf3       1.0  0.19436  0.60363  0.38239  1.0000
  Hf  Hf4       1.0  0.19421  0.60511  0.87585  1.0000
  Hf  Hf5       1.0  0.45118  0.11247  0.36942  1.0000
  Hf  Hf6       1.0  0.44125  0.10212  0.88502  1.0000
  Hf  Hf7       1.0  0.44714  0.60739  0.36851  1.0000
  Hf  Hf8       1.0  0.44467  0.60720  0.87779  1.0000
  Hf  Hf9       1.0  0.69860  0.11512  0.36117  1.0000
  Hf  Hf10      1.0  0.69325  0.11128  0.87853  1.0000
  Hf  Hf11      1.0  0.69391  0.61561  0.36769  1.0000
  Hf  Hf12      1.0  0.69578  0.61047  0.87948  1.0000
  Hf  Hf13      1.0  0.94649  0.10425  0.37536  1.0000
  Hf  Hf14      1.0  0.94338  0.09940  0.88259  1.0000
  Hf  Hf15      1.0  0.94211  0.59938  0.38846  1.0000
  Hf  Hf16      1.0  0.94599  0.60607  0.86717  1.0000
  Hf  Hf17      1.0  0.05150  0.39413  0.13196  1.0000
  Hf  Hf18      1.0  0.05181  0.39198  0.62862  1.0000
  Hf  Hf19      1.0  0.05338  0.88876  0.13475  1.0000
  Hf  Hf20      1.0  0.05501  0.88730  0.61985  1.0000
  Hf  Hf21      1.0  0.30181  0.39511  0.11648  1.0000
  Hf  Hf22      1.0  0.30433  0.39190  0.62586  1.0000
  Hf  Hf23      1.0  0.30277  0.90007  0.11353  1.0000
  Hf  Hf24      1.0  0.30139  0.89464  0.62472  1.0000
  Hf  Hf25      1.0  0.56009  0.40252  0.11974  1.0000
  Hf  Hf26      1.0  0.55352  0.38935  0.62240  1.0000
  Hf  Hf27      1.0  0.54598  0.88451  0.13688  1.0000
  Hf  Hf28      1.0  0.54681  0.88813  0.63659  1.0000
  Hf  Hf29      1.0  0.80488  0.40096  0.12036  1.0000
  Hf  Hf30      1.0  0.80728  0.39194  0.62264  1.0000
  Hf  Hf31      1.0  0.80878  0.89698  0.12123  1.0000
  Hf  Hf32      1.0  0.80356  0.89131  0.61708  1.0000
  Hf  Hf33      1.0  0.05204  0.17913  0.42535  1.0000
  Hf  Hf34      1.0  0.05795  0.18059  0.91435  1.0000
  Hf  Hf35      1.0  0.05441  0.68104  0.42540  1.0000
  Hf  Hf36      1.0  0.05625  0.68079  0.91722  1.0000
  Hf  Hf37      1.0  0.30921  0.18452  0.41122  1.0000
  Hf  Hf38      1.0  0.30551  0.18296  0.91763  1.0000
  Hf  Hf39      1.0  0.30750  0.68529  0.41308  1.0000
  Hf  Hf40      1.0  0.30483  0.68366  0.91388  1.0000
  Hf  Hf41      1.0  0.55472  0.17168  0.42689  1.0000
  Hf  Hf42      1.0  0.55904  0.18292  0.90414  1.0000
  Hf  Hf43      1.0  0.55483  0.68042  0.41937  1.0000
  Hf  Hf44      1.0  0.55402  0.68354  0.91530  1.0000
  Hf  Hf45      1.0  0.80653  0.18481  0.41540  1.0000
  Hf  Hf46      1.0  0.80560  0.18299  0.91323  1.0000
  Hf  Hf47      1.0  0.80521  0.68083  0.42186  1.0000
  Hf  Hf48      1.0  0.80807  0.68901  0.90860  1.0000
  Hf  Hf49      1.0  0.15624  0.38244  0.34749  1.0000
  Hf  Hf50      1.0  0.15830  0.38069  0.83953  1.0000
  Hf  Hf51      1.0  0.16042  0.88468  0.33278  1.0000
  Hf  Hf52      1.0  0.15135  0.88810  0.83995  1.0000
  Hf  Hf53      1.0  0.41471  0.38816  0.32840  1.0000
  Hf  Hf54      1.0  0.40971  0.39170  0.82785  1.0000
  Hf  Hf55      1.0  0.40425  0.88536  0.33988  1.0000
  Hf  Hf56      1.0  0.40350  0.89506  0.82993  1.0000
  Hf  Hf57      1.0  0.65590  0.38839  0.34065  1.0000
  Hf  Hf58      1.0  0.66285  0.38785  0.82520  1.0000
  Hf  Hf59      1.0  0.67013  0.89949  0.31644  1.0000
  Hf  Hf60      1.0  0.65702  0.88572  0.83629  1.0000
  Hf  Hf61      1.0  0.91157  0.39223  0.32639  1.0000
  Hf  Hf62      1.0  0.91004  0.38081  0.83469  1.0000
  Hf  Hf63      1.0  0.90823  0.88042  0.34074  1.0000
  Hf  Hf64      1.0  0.91029  0.88676  0.83020  1.0000
  Hf  Hf65      1.0  0.19253  0.31892  0.08366  1.0000
  Hf  Hf66      1.0  0.19617  0.31498  0.58966  1.0000
  Hf  Hf67      1.0  0.19265  0.80867  0.08907  1.0000
  Hf  Hf68      1.0  0.19578  0.81576  0.57971  1.0000
  Hf  Hf69      1.0  0.44918  0.31716  0.07881  1.0000
  Hf  Hf70      1.0  0.44840  0.31650  0.58342  1.0000
  Hf  Hf71      1.0  0.44203  0.81778  0.08004  1.0000
  Hf  Hf72      1.0  0.44230  0.81809  0.58536  1.0000
  Hf  Hf73      1.0  0.69759  0.31835  0.07775  1.0000
  Hf  Hf74      1.0  0.69691  0.32239  0.58198  1.0000
  Hf  Hf75      1.0  0.69291  0.82705  0.08111  1.0000
  Hf  Hf76      1.0  0.69296  0.82286  0.57973  1.0000
  Hf  Hf77      1.0  0.94603  0.32074  0.07620  1.0000
  Hf  Hf78      1.0  0.94484  0.31448  0.58482  1.0000
  Hf  Hf79      1.0  0.94687  0.81246  0.09335  1.0000
  Hf  Hf80      1.0  0.93842  0.81426  0.58746  1.0000
  Hf  Hf81      1.0  0.09047  0.10620  0.16717  1.0000
  Hf  Hf82      1.0  0.08703  0.10880  0.67241  1.0000
  Hf  Hf83      1.0  0.08964  0.60458  0.17487  1.0000
  Hf  Hf84      1.0  0.09139  0.60038  0.67374  1.0000
  Hf  Hf85      1.0  0.33750  0.10511  0.17640  1.0000
  Hf  Hf86      1.0  0.34149  0.12213  0.65980  1.0000
  Hf  Hf87      1.0  0.34183  0.61166  0.16669  1.0000
  Hf  Hf88      1.0  0.34148  0.61376  0.65900  1.0000
  Hf  Hf89      1.0  0.59751  0.11966  0.15746  1.0000
  Hf  Hf90      1.0  0.59462  0.10944  0.66491  1.0000
  Hf  Hf91      1.0  0.58572  0.61941  0.16379  1.0000
  Hf  Hf92      1.0  0.59040  0.61356  0.66122  1.0000
  Hf  Hf93      1.0  0.84316  0.11652  0.16532  1.0000
  Hf  Hf94      1.0  0.84184  0.11686  0.66485  1.0000
  Hf  Hf95      1.0  0.84333  0.62196  0.16471  1.0000
  Hf  Hf96      1.0  0.84084  0.60769  0.67273  1.0000
  F   F1        1.0  0.07907  0.12488  0.30776  1.0000
  F   F2        1.0  0.07435  0.12517  0.81076  1.0000
  F   F3        1.0  0.07563  0.61212  0.32169  1.0000
  F   F4        1.0  0.08773  0.63190  0.79089  1.0000
  F   F5        1.0  0.32696  0.12434  0.30366  1.0000
  F   F6        1.0  0.32819  0.12890  0.80460  1.0000
  F   F7        1.0  0.32969  0.64164  0.28923  1.0000
  F   F8        1.0  0.32680  0.62577  0.79893  1.0000
  F   F9        1.0  0.57951  0.11853  0.30976  1.0000
  F   F10       1.0  0.57991  0.11936  0.80328  1.0000
  F   F11       1.0  0.58048  0.63316  0.30242  1.0000
  F   F12       1.0  0.57570  0.63113  0.81014  1.0000
  F   F13       1.0  0.82871  0.12369  0.30340  1.0000
  F   F14       1.0  0.83176  0.13928  0.78815  1.0000
  F   F15       1.0  0.82347  0.61593  0.32017  1.0000
  F   F16       1.0  0.83685  0.64114  0.79093  1.0000
  F   F17       1.0  0.17725  0.32207  0.46544  1.0000
  F   F18       1.0  0.18717  0.34497  0.94946  1.0000
  F   F19       1.0  0.19996  0.84828  0.43314  1.0000
  F   F20       1.0  0.17950  0.83250  0.96149  1.0000
  F   F21       1.0  0.44154  0.34043  0.44399  1.0000
  F   F22       1.0  0.43550  0.33641  0.95100  1.0000
  F   F23       1.0  0.42927  0.84391  0.45359  1.0000
  F   F24       1.0  0.43232  0.84250  0.94363  1.0000
  F   F25       1.0  0.68002  0.34768  0.45620  1.0000
  F   F26       1.0  0.67295  0.33637  0.95353  1.0000
  F   F27       1.0  0.68843  0.83639  0.44366  1.0000
  F   F28       1.0  0.68818  0.85431  0.94184  1.0000
  F   F29       1.0  0.94215  0.33716  0.43978  1.0000
  F   F30       1.0  0.93185  0.33080  0.95104  1.0000
  F   F31       1.0  0.94098  0.83491  0.44116  1.0000
  F   F32       1.0  0.93460  0.83731  0.94816  1.0000
  F   F33       1.0  0.16736  0.36346  0.20121  1.0000
  F   F34       1.0  0.17894  0.37704  0.69237  1.0000
  F   F35       1.0  0.17245  0.86270  0.19841  1.0000
  F   F36       1.0  0.16547  0.87590  0.69600  1.0000
  F   F37       1.0  0.42252  0.37425  0.19104  1.0000
  F   F38       1.0  0.42647  0.38673  0.67411  1.0000
  F   F39       1.0  0.40904  0.85374  0.21397  1.0000
  F   F40       1.0  0.42662  0.86312  0.69845  1.0000
  F   F41       1.0  0.67478  0.38403  0.18593  1.0000
  F   F42       1.0  0.66735  0.38081  0.68723  1.0000
  F   F43       1.0  0.67857  0.86905  0.19263  1.0000
  F   F44       1.0  0.66341  0.88280  0.68561  1.0000
  F   F45       1.0  0.92116  0.36811  0.19730  1.0000
  F   F46       1.0  0.91955  0.37058  0.69718  1.0000
  F   F47       1.0  0.92554  0.86535  0.19408  1.0000
  F   F48       1.0  0.92331  0.87249  0.69336  1.0000
  F   F49       1.0  0.06778  0.15977  0.05171  1.0000
  F   F50       1.0  0.05600  0.14871  0.57122  1.0000
  F   F51       1.0  0.06296  0.66094  0.05766  1.0000
  F   F52       1.0  0.07824  0.67134  0.52991  1.0000
  F   F53       1.0  0.32373  0.16846  0.04420  1.0000
  F   F54       1.0  0.31720  0.16832  0.54743  1.0000
  F   F55       1.0  0.30995  0.65859  0.05921  1.0000
  F   F56       1.0  0.31006  0.64736  0.55684  1.0000
  F   F57       1.0  0.57326  0.15972  0.04518  1.0000
  F   F58       1.0  0.56759  0.12937  0.55220  1.0000
  F   F59       1.0  0.56786  0.66958  0.04244  1.0000
  F   F60       1.0  0.55714  0.65209  0.55540  1.0000
  F   F61       1.0  0.80954  0.15401  0.05552  1.0000
  F   F62       1.0  0.82498  0.17160  0.53440  1.0000
  F   F63       1.0  0.82098  0.66430  0.04358  1.0000
  F   F64       1.0  0.80716  0.64704  0.57038  1.0000
  F   F65       1.0  0.20522  0.20089  0.20607  1.0000
  F   F66       1.0  0.20962  0.20307  0.71603  1.0000
  F   F67       1.0  0.20633  0.68907  0.21854  1.0000
  F   F68       1.0  0.20717  0.71140  0.71009  1.0000
  F   F69       1.0  0.45941  0.20359  0.20458  1.0000
  F   F70       1.0  0.45024  0.20063  0.71770  1.0000
  F   F71       1.0  0.45764  0.69890  0.21617  1.0000
  F   F72       1.0  0.44927  0.69350  0.71327  1.0000
  F   F73       1.0  0.71509  0.21491  0.19874  1.0000
  F   F74       1.0  0.70744  0.20185  0.70952  1.0000
  F   F75       1.0  0.69511  0.69456  0.20740  1.0000
  F   F76       1.0  0.70405  0.72484  0.71339  1.0000
  F   F77       1.0  0.96150  0.19565  0.20169  1.0000
  F   F78       1.0  0.95324  0.20458  0.70819  1.0000
  F   F79       1.0  0.95876  0.70053  0.21511  1.0000
  F   F80       1.0  0.95065  0.69701  0.71824  1.0000
  F   F81       1.0  0.14628  0.08610  0.04364  1.0000
  F   F82       1.0  0.14822  0.11484  0.54570  1.0000
  F   F83       1.0  0.14604  0.58458  0.04334  1.0000
  F   F84       1.0  0.15080  0.58419  0.53639  1.0000
  F   F85       1.0  0.39618  0.07300  0.05721  1.0000
  F   F86       1.0  0.39719  0.09263  0.52638  1.0000
  F   F87       1.0  0.40310  0.60140  0.03483  1.0000
  F   F88       1.0  0.39675  0.59911  0.52902  1.0000
  F   F89       1.0  0.65539  0.10645  0.02675  1.0000
  F   F90       1.0  0.65335  0.09828  0.53566  1.0000
  F   F91       1.0  0.65160  0.58590  0.03566  1.0000
  F   F92       1.0  0.64883  0.60540  0.53476  1.0000
  F   F93       1.0  0.90224  0.10368  0.03414  1.0000
  F   F94       1.0  0.90413  0.09367  0.54252  1.0000
  F   F95       1.0  0.89692  0.59853  0.03427  1.0000
  F   F96       1.0  0.89463  0.58407  0.54031  1.0000
  F   F97       1.0  0.14775  0.20495  0.13398  1.0000
  F   F98       1.0  0.15059  0.19187  0.64810  1.0000
  F   F99       1.0  0.14968  0.68172  0.14779  1.0000
  F   F100      1.0  0.15320  0.69468  0.60745  1.0000
  F   F101      1.0  0.39475  0.19694  0.13970  1.0000
  F   F102      1.0  0.40248  0.19864  0.62174  1.0000
  F   F103      1.0  0.40623  0.69734  0.13362  1.0000
  F   F104      1.0  0.40269  0.69853  0.62429  1.0000
  F   F105      1.0  0.65674  0.19179  0.13363  1.0000
  F   F106      1.0  0.65018  0.19361  0.63936  1.0000
  F   F107      1.0  0.64735  0.70152  0.10716  1.0000
  F   F108      1.0  0.64927  0.70816  0.63598  1.0000
  F   F109      1.0  0.90387  0.20398  0.13304  1.0000
  F   F110      1.0  0.89838  0.20268  0.63404  1.0000
  F   F111      1.0  0.89944  0.69693  0.14266  1.0000
  F   F112      1.0  0.90072  0.70337  0.60565  1.0000
  F   F113      1.0  0.09616  0.30321  0.39648  1.0000
  F   F114      1.0  0.10252  0.29959  0.86348  1.0000
  F   F115      1.0  0.10241  0.81186  0.35678  1.0000
  F   F116      1.0  0.08716  0.80113  0.88825  1.0000
  F   F117      1.0  0.35890  0.31031  0.37109  1.0000
  F   F118      1.0  0.35134  0.31258  0.85414  1.0000
  F   F119      1.0  0.34518  0.80068  0.39088  1.0000
  F   F120      1.0  0.35067  0.79959  0.87391  1.0000
  F   F121      1.0  0.60208  0.29666  0.38318  1.0000
  F   F122      1.0  0.60290  0.31768  0.87348  1.0000
  F   F123      1.0  0.60148  0.78143  0.37057  1.0000
  F   F124      1.0  0.59752  0.79264  0.87755  1.0000
  F   F125      1.0  0.85103  0.30161  0.35709  1.0000
  F   F126      1.0  0.84625  0.31269  0.86375  1.0000
  F   F127      1.0  0.85029  0.80993  0.37133  1.0000
  F   F128      1.0  0.85007  0.80679  0.86333  1.0000
  F   F129      1.0  0.06542  0.24931  0.14979  1.0000
  F   F130      1.0  0.06670  0.25890  0.63609  1.0000
  F   F131      1.0  0.06579  0.74698  0.15010  1.0000
  F   F132      1.0  0.06232  0.74809  0.65128  1.0000
  F   F133      1.0  0.30739  0.25259  0.14643  1.0000
  F   F134      1.0  0.30812  0.25690  0.63799  1.0000
  F   F135      1.0  0.32263  0.76265  0.12650  1.0000
  F   F136      1.0  0.31820  0.75592  0.63890  1.0000
  F   F137      1.0  0.56882  0.25367  0.14915  1.0000
  F   F138      1.0  0.57402  0.24375  0.62003  1.0000
  F   F139      1.0  0.54959  0.74570  0.16060  1.0000
  F   F140      1.0  0.57189  0.75450  0.62369  1.0000
  F   F141      1.0  0.82071  0.25247  0.13457  1.0000
  F   F142      1.0  0.80967  0.25308  0.64519  1.0000
  F   F143      1.0  0.81430  0.75111  0.15275  1.0000
  F   F144      1.0  0.81039  0.74532  0.64321  1.0000
  F   F145      1.0  0.12034  0.38318  0.09321  1.0000
  F   F146      1.0  0.12433  0.37075  0.60893  1.0000
  F   F147      1.0  0.12056  0.85439  0.12870  1.0000
  F   F148      1.0  0.12551  0.85688  0.60989  1.0000
  F   F149      1.0  0.37418  0.39056  0.08905  1.0000
  F   F150      1.0  0.37502  0.35520  0.62247  1.0000
  F   F151      1.0  0.37796  0.89116  0.07543  1.0000
  F   F152      1.0  0.36785  0.86334  0.62447  1.0000
  F   F153      1.0  0.62306  0.35901  0.12316  1.0000
  F   F154      1.0  0.61901  0.38101  0.60310  1.0000
  F   F155      1.0  0.62179  0.86382  0.11137  1.0000
  F   F156      1.0  0.61801  0.88125  0.59088  1.0000
  F   F157      1.0  0.87787  0.39061  0.10145  1.0000
  F   F158      1.0  0.87674  0.37804  0.60409  1.0000
  F   F159      1.0  0.87895  0.88278  0.10290  1.0000
  F   F160      1.0  0.86759  0.85091  0.62929  1.0000
  F   F161      1.0  0.19072  0.24521  0.35514  1.0000
  F   F162      1.0  0.17657  0.24442  0.88273  1.0000
  F   F163      1.0  0.18304  0.74601  0.37319  1.0000
  F   F164      1.0  0.17359  0.75327  0.86843  1.0000
  F   F165      1.0  0.44961  0.25747  0.33922  1.0000
  F   F166      1.0  0.42648  0.24248  0.86517  1.0000
  F   F167      1.0  0.43841  0.74696  0.36809  1.0000
  F   F168      1.0  0.42993  0.74721  0.85672  1.0000
  F   F169      1.0  0.68621  0.25496  0.35104  1.0000
  F   F170      1.0  0.69239  0.25471  0.83820  1.0000
  F   F171      1.0  0.69755  0.75006  0.34124  1.0000
  F   F172      1.0  0.68647  0.75113  0.87139  1.0000
  F   F173      1.0  0.93802  0.24664  0.35393  1.0000
  F   F174      1.0  0.93896  0.24980  0.84720  1.0000
  F   F175      1.0  0.93208  0.74480  0.36314  1.0000
  F   F176      1.0  0.93532  0.74388  0.86211  1.0000
  F   F177      1.0  0.12582  0.13175  0.39113  1.0000
  F   F178      1.0  0.12821  0.11819  0.89719  1.0000
  F   F179      1.0  0.12483  0.61660  0.38784  1.0000
  F   F180      1.0  0.12777  0.62565  0.89611  1.0000
  F   F181      1.0  0.38084  0.15767  0.36734  1.0000
  F   F182      1.0  0.37209  0.12506  0.89762  1.0000
  F   F183      1.0  0.37685  0.64690  0.37240  1.0000
  F   F184      1.0  0.37113  0.61008  0.91386  1.0000
  F   F185      1.0  0.62787  0.12605  0.39157  1.0000
  F   F186      1.0  0.62765  0.14862  0.87437  1.0000
  F   F187      1.0  0.62149  0.60963  0.40519  1.0000
  F   F188      1.0  0.62869  0.63140  0.89042  1.0000
  F   F189      1.0  0.87889  0.13280  0.37957  1.0000
  F   F190      1.0  0.87209  0.12763  0.89498  1.0000
  F   F191      1.0  0.87612  0.62911  0.39151  1.0000
  F   F192      1.0  0.87794  0.63292  0.88128  1.0000
  F   F193      1.0  0.00650  0.36994  0.07778  1.0000
  F   F194      1.0  0.00724  0.35818  0.58464  1.0000
  F   F195      1.0  0.01387  0.84632  0.07553  1.0000
  F   F196      1.0  0.00624  0.85531  0.58143  1.0000
  F   F197      1.0  0.25660  0.35785  0.07088  1.0000
  F   F198      1.0  0.26016  0.37496  0.56359  1.0000
  F   F199      1.0  0.25337  0.85702  0.08354  1.0000
  F   F200      1.0  0.25723  0.88078  0.56502  1.0000
  F   F201      1.0  0.51036  0.36072  0.07487  1.0000
  F   F202      1.0  0.51488  0.34385  0.56700  1.0000
  F   F203      1.0  0.50226  0.86865  0.08305  1.0000
  F   F204      1.0  0.51431  0.85573  0.57272  1.0000
  F   F205      1.0  0.76312  0.36879  0.06706  1.0000
  F   F206      1.0  0.75743  0.36487  0.57275  1.0000
  F   F207      1.0  0.75866  0.85467  0.07740  1.0000
  F   F208      1.0  0.75576  0.88005  0.56658  1.0000
  F   F209      1.0  0.06324  0.48150  0.19262  1.0000
  F   F210      1.0  0.06902  0.48912  0.67322  1.0000
  F   F211      1.0  0.07073  0.97999  0.18443  1.0000
  F   F212      1.0  0.07529  0.97536  0.66317  1.0000
  F   F213      1.0  0.32022  0.49373  0.16759  1.0000
  F   F214      1.0  0.32118  0.48719  0.66898  1.0000
  F   F215      1.0  0.31790  0.98097  0.18118  1.0000
  F   F216      1.0  0.32305  0.99514  0.66164  1.0000
  F   F217      1.0  0.57692  0.49539  0.15578  1.0000
  F   F218      1.0  0.55936  0.48648  0.68071  1.0000
  F   F219      1.0  0.56291  0.96889  0.18157  1.0000
  F   F220      1.0  0.56527  0.98230  0.69689  1.0000
  F   F221      1.0  0.81679  0.49932  0.18224  1.0000
  F   F222      1.0  0.82060  0.48086  0.68192  1.0000
  F   F223      1.0  0.82141  0.99526  0.17186  1.0000
  F   F224      1.0  0.82232  0.98920  0.64897  1.0000
  F   F225      1.0  0.24308  0.12657  0.44516  1.0000
  F   F226      1.0  0.24284  0.12654  0.93149  1.0000
  F   F227      1.0  0.24379  0.64287  0.42705  1.0000
  F   F228      1.0  0.23672  0.64516  0.93323  1.0000
  F   F229      1.0  0.49199  0.12769  0.43913  1.0000
  F   F230      1.0  0.49290  0.15054  0.91968  1.0000
  F   F231      1.0  0.49571  0.62268  0.42157  1.0000
  F   F232      1.0  0.49291  0.65161  0.91385  1.0000
  F   F233      1.0  0.74532  0.15317  0.40260  1.0000
  F   F234      1.0  0.74689  0.13614  0.93007  1.0000
  F   F235      1.0  0.73952  0.63909  0.44519  1.0000
  F   F236      1.0  0.74487  0.63361  0.92744  1.0000
  F   F237      1.0  0.99323  0.13643  0.42438  1.0000
  F   F238      1.0  0.98861  0.14258  0.93551  1.0000
  F   F239      1.0  0.98463  0.62360  0.45604  1.0000
  F   F240      1.0  0.99515  0.62479  0.92275  1.0000
  F   F241      1.0  0.17839  0.00914  0.33896  1.0000
  F   F242      1.0  0.18172  0.01526  0.82275  1.0000
  F   F243      1.0  0.18340  0.50166  0.32994  1.0000
  F   F244      1.0  0.17976  0.51851  0.82239  1.0000
  F   F245      1.0  0.43032  0.01694  0.33542  1.0000
  F   F246      1.0  0.42969  0.02081  0.82463  1.0000
  F   F247      1.0  0.42739  0.52098  0.32671  1.0000
  F   F248      1.0  0.43781  0.50182  0.82921  1.0000
  F   F249      1.0  0.68777  0.02510  0.29222  1.0000
  F   F250      1.0  0.67537  0.01764  0.84755  1.0000
  F   F251      1.0  0.68323  0.51461  0.31127  1.0000
  F   F252      1.0  0.68565  0.52459  0.80730  1.0000
  F   F253      1.0  0.93099  0.00673  0.33084  1.0000
  F   F254      1.0  0.93060  0.00944  0.82352  1.0000
  F   F255      1.0  0.92962  0.51195  0.33308  1.0000
  F   F256      1.0  0.93143  0.50769  0.83243  1.0000
  F   F257      1.0  0.00349  0.27159  0.98556  1.0000
  F   F258      1.0  0.00144  0.25618  0.50418  1.0000
  F   F259      1.0  0.99602  0.74433  0.00652  1.0000
  F   F260      1.0  0.00095  0.74634  0.51422  1.0000
  F   F261      1.0  0.25037  0.23682  0.00807  1.0000
  F   F262      1.0  0.25479  0.26757  0.48126  1.0000
  F   F263      1.0  0.24989  0.75577  0.99410  1.0000
  F   F264      1.0  0.25203  0.74312  0.50856  1.0000
  F   F265      1.0  0.50827  0.24527  0.00454  1.0000
  F   F266      1.0  0.50004  0.23077  0.51270  1.0000
  F   F267      1.0  0.50066  0.75148  0.00021  1.0000
  F   F268      1.0  0.49438  0.75442  0.48923  1.0000
  F   F269      1.0  0.74589  0.26065  0.98811  1.0000
  F   F270      1.0  0.75498  0.27067  0.47648  1.0000
  F   F271      1.0  0.74782  0.75440  0.98790  1.0000
  F   F272      1.0  0.75749  0.75805  0.49804  1.0000
  F   F273      1.0  0.12979  0.00041  0.24174  1.0000
  F   F274      1.0  0.11726  0.00020  0.76829  1.0000
  F   F275      1.0  0.12169  0.49335  0.26291  1.0000
  F   F276      1.0  0.12679  0.49946  0.74992  1.0000
  F   F277      1.0  0.37716  0.00068  0.25396  1.0000
  F   F278      1.0  0.37828  0.99797  0.73436  1.0000
  F   F279      1.0  0.37798  0.50039  0.24946  1.0000
  F   F280      1.0  0.38116  0.51683  0.73623  1.0000
  F   F281      1.0  0.63406  0.00894  0.21785  1.0000
  F   F282      1.0  0.62994  0.00031  0.75599  1.0000
  F   F283      1.0  0.61260  0.50010  0.25298  1.0000
  F   F284      1.0  0.62155  0.51573  0.74208  1.0000
  F   F285      1.0  0.88317  0.99379  0.24497  1.0000
  F   F286      1.0  0.86507  0.99350  0.77394  1.0000
  F   F287      1.0  0.88227  0.50500  0.23383  1.0000
  F   F288      1.0  0.88157  0.50491  0.74383  1.0000
  F   F289      1.0  0.03708  0.03275  0.03658  1.0000
  F   F290      1.0  0.04336  0.03868  0.51236  1.0000
  F   F291      1.0  0.04906  0.52672  0.02568  1.0000
  F   F292      1.0  0.03781  0.54629  0.53865  1.0000
  F   F293      1.0  0.28675  0.04112  0.03803  1.0000
  F   F294      1.0  0.29855  0.04222  0.52137  1.0000
  F   F295      1.0  0.28443  0.53776  0.02711  1.0000
  F   F296      1.0  0.29459  0.53163  0.52056  1.0000
  F   F297      1.0  0.54866  0.02733  0.01913  1.0000
  F   F298      1.0  0.55212  0.01977  0.51401  1.0000
  F   F299      1.0  0.53306  0.52955  0.03947  1.0000
  F   F300      1.0  0.53600  0.51954  0.52957  1.0000
  F   F301      1.0  0.79693  0.02403  0.01199  1.0000
  F   F302      1.0  0.79107  0.04152  0.52034  1.0000
  F   F303      1.0  0.79764  0.53688  0.01572  1.0000
  F   F304      1.0  0.79643  0.52360  0.52245  1.0000
  F   F305      1.0  0.22987  0.40974  0.21685  1.0000
  F   F306      1.0  0.23525  0.39552  0.74007  1.0000
  F   F307      1.0  0.23831  0.91017  0.22321  1.0000
  F   F308      1.0  0.22953  0.91521  0.73111  1.0000
  F   F309      1.0  0.49138  0.42370  0.22810  1.0000
  F   F310      1.0  0.48391  0.39372  0.73452  1.0000
  F   F311      1.0  0.47556  0.91666  0.22950  1.0000
  F   F312      1.0  0.48071  0.93232  0.72833  1.0000
  F   F313      1.0  0.73776  0.41403  0.22581  1.0000
  F   F314      1.0  0.73495  0.41480  0.72574  1.0000
  F   F315      1.0  0.74646  0.92584  0.21884  1.0000
  F   F316      1.0  0.72980  0.92523  0.73097  1.0000
  F   F317      1.0  0.98194  0.42691  0.22290  1.0000
  F   F318      1.0  0.98475  0.40805  0.73402  1.0000
  F   F319      1.0  0.98365  0.91248  0.22999  1.0000
  F   F320      1.0  0.98688  0.91533  0.72712  1.0000
  F   F321      1.0  0.20275  0.46032  0.48360  1.0000
  F   F322      1.0  0.20792  0.46495  0.97654  1.0000
  F   F323      1.0  0.19742  0.97514  0.47647  1.0000
  F   F324      1.0  0.20529  0.95808  0.98904  1.0000
  F   F325      1.0  0.45660  0.46556  0.47846  1.0000
  F   F326      1.0  0.45912  0.47068  0.98425  1.0000
  F   F327      1.0  0.45598  0.96296  0.49010  1.0000
  F   F328      1.0  0.46387  0.96096  0.97129  1.0000
  F   F329      1.0  0.70520  0.47690  0.47098  1.0000
  F   F330      1.0  0.70703  0.46129  0.97193  1.0000
  F   F331      1.0  0.69977  0.97472  0.46855  1.0000
  F   F332      1.0  0.70273  0.97759  0.99008  1.0000
  F   F333      1.0  0.95741  0.46600  0.47670  1.0000
  F   F334      1.0  0.95921  0.46867  0.95884  1.0000
  F   F335      1.0  0.95248  0.95799  0.48975  1.0000
  F   F336      1.0  0.96508  0.97152  0.97484  1.0000
  F   F337      1.0  0.01253  0.06192  0.27910  1.0000
  F   F338      1.0  0.01393  0.08601  0.77878  1.0000
  F   F339      1.0  0.01507  0.58898  0.28106  1.0000
  F   F340      1.0  0.01392  0.59268  0.75864  1.0000
  F   F341      1.0  0.26482  0.09312  0.26648  1.0000
  F   F342      1.0  0.26854  0.07734  0.78439  1.0000
  F   F343      1.0  0.26775  0.59378  0.27826  1.0000
  F   F344      1.0  0.26374  0.58738  0.77566  1.0000
  F   F345      1.0  0.51562  0.08792  0.26603  1.0000
  F   F346      1.0  0.51071  0.09696  0.77549  1.0000
  F   F347      1.0  0.51751  0.56695  0.27463  1.0000
  F   F348      1.0  0.51586  0.59302  0.76575  1.0000
  F   F349      1.0  0.76486  0.07249  0.27486  1.0000
  F   F350      1.0  0.76543  0.08521  0.77920  1.0000
  F   F351      1.0  0.75885  0.59148  0.27275  1.0000
  F   F352      1.0  0.76457  0.59865  0.77392  1.0000
  F   F353      1.0  0.09216  0.42298  0.46152  1.0000
  F   F354      1.0  0.10021  0.39847  0.95467  1.0000
  F   F355      1.0  0.09630  0.88964  0.47138  1.0000
  F   F356      1.0  0.10237  0.90692  0.96848  1.0000
  F   F357      1.0  0.35348  0.39176  0.47473  1.0000
  F   F358      1.0  0.34746  0.42361  0.95466  1.0000
  F   F359      1.0  0.34981  0.92294  0.46293  1.0000
  F   F360      1.0  0.34234  0.93390  0.94671  1.0000
  F   F361      1.0  0.60082  0.41626  0.45767  1.0000
  F   F362      1.0  0.60365  0.43310  0.95789  1.0000
  F   F363      1.0  0.61311  0.90905  0.42562  1.0000
  F   F364      1.0  0.59971  0.88565  0.96751  1.0000
  F   F365      1.0  0.85682  0.39339  0.46404  1.0000
  F   F366      1.0  0.85390  0.39047  0.96957  1.0000
  F   F367      1.0  0.85262  0.91131  0.46246  1.0000
  F   F368      1.0  0.85018  0.88492  0.97262  1.0000
  F   F369      1.0  0.04491  0.29233  0.30262  1.0000
  F   F370      1.0  0.04549  0.28913  0.79260  1.0000
  F   F371      1.0  0.04140  0.80315  0.30088  1.0000
  F   F372      1.0  0.04382  0.78626  0.79183  1.0000
  F   F373      1.0  0.30391  0.29496  0.27953  1.0000
  F   F374      1.0  0.28994  0.28736  0.79859  1.0000
  F   F375      1.0  0.30359  0.80289  0.29114  1.0000
  F   F376      1.0  0.28920  0.80188  0.79416  1.0000
  F   F377      1.0  0.54743  0.29104  0.30869  1.0000
  F   F378      1.0  0.55443  0.29521  0.78477  1.0000
  F   F379      1.0  0.53432  0.79987  0.30283  1.0000
  F   F380      1.0  0.53597  0.80667  0.79157  1.0000
  F   F381      1.0  0.80076  0.30352  0.27566  1.0000
  F   F382      1.0  0.79817  0.31039  0.78432  1.0000
  F   F383      1.0  0.79659  0.79100  0.29265  1.0000
  F   F384      1.0  0.79014  0.79995  0.78549  1.0000
