data_image0
_chemical_formula_structural       Hf96F384
_chemical_formula_sum              "Hf96 F384"
_cell_length_a       31.0423
_cell_length_b       15.5231
_cell_length_c       15.5119
_cell_angle_alpha    63.342
_cell_angle_beta     63.342
_cell_angle_gamma    80.1625

_space_group_name_H-M_alt    "P 1"
_space_group_IT_number       1

loop_
  _space_group_symop_operation_xyz
  'x, y, z'

loop_
  _atom_site_type_symbol
  _atom_site_label
  _atom_site_symmetry_multiplicity
  _atom_site_fract_x
  _atom_site_fract_y
  _atom_site_fract_z
  _atom_site_occupancy
  Hf  Hf1       1.0  0.19459  0.10149  0.38263  1.0000
  Hf  Hf2       1.0  0.19791  0.09863  0.88285  1.0000
  Hf  Hf3       1.0  0.19372  0.60598  0.38520  1.0000
  Hf  Hf4       1.0  0.19411  0.60628  0.87337  1.0000
  Hf  Hf5       1.0  0.44980  0.10323  0.36856  1.0000
  Hf  Hf6       1.0  0.44384  0.09746  0.89382  1.0000
  Hf  Hf7       1.0  0.45290  0.60297  0.36559  1.0000
  Hf  Hf8       1.0  0.44496  0.60350  0.87825  1.0000
  Hf  Hf9       1.0  0.69627  0.11221  0.36790  1.0000
  Hf  Hf10      1.0  0.69986  0.11325  0.87432  1.0000
  Hf  Hf11      1.0  0.69450  0.60362  0.38496  1.0000
  Hf  Hf12      1.0  0.69722  0.60777  0.86588  1.0000
  Hf  Hf13      1.0  0.94820  0.10989  0.36182  1.0000
  Hf  Hf14      1.0  0.94602  0.11336  0.86691  1.0000
  Hf  Hf15      1.0  0.94660  0.61306  0.37068  1.0000
  Hf  Hf16      1.0  0.94360  0.60569  0.87406  1.0000
  Hf  Hf17      1.0  0.05332  0.39717  0.11406  1.0000
  Hf  Hf18      1.0  0.05713  0.38657  0.62604  1.0000
  Hf  Hf19      1.0  0.05369  0.88838  0.11931  1.0000
  Hf  Hf20      1.0  0.05527  0.89152  0.61641  1.0000
  Hf  Hf21      1.0  0.30306  0.39605  0.12665  1.0000
  Hf  Hf22      1.0  0.30191  0.39045  0.62855  1.0000
  Hf  Hf23      1.0  0.30476  0.89235  0.13098  1.0000
  Hf  Hf24      1.0  0.30239  0.89085  0.63087  1.0000
  Hf  Hf25      1.0  0.55913  0.39789  0.11655  1.0000
  Hf  Hf26      1.0  0.54958  0.39232  0.63455  1.0000
  Hf  Hf27      1.0  0.55363  0.89310  0.12353  1.0000
  Hf  Hf28      1.0  0.55405  0.89110  0.62439  1.0000
  Hf  Hf29      1.0  0.80183  0.39383  0.13324  1.0000
  Hf  Hf30      1.0  0.80552  0.39866  0.61410  1.0000
  Hf  Hf31      1.0  0.80400  0.89735  0.12880  1.0000
  Hf  Hf32      1.0  0.80336  0.89284  0.62768  1.0000
  Hf  Hf33      1.0  0.05280  0.18104  0.42082  1.0000
  Hf  Hf34      1.0  0.05696  0.18423  0.91291  1.0000
  Hf  Hf35      1.0  0.05885  0.67845  0.40874  1.0000
  Hf  Hf36      1.0  0.05275  0.68215  0.92574  1.0000
  Hf  Hf37      1.0  0.30631  0.17402  0.41513  1.0000
  Hf  Hf38      1.0  0.30106  0.17337  0.93131  1.0000
  Hf  Hf39      1.0  0.30574  0.66722  0.43166  1.0000
  Hf  Hf40      1.0  0.30331  0.68785  0.92154  1.0000
  Hf  Hf41      1.0  0.55605  0.18574  0.41796  1.0000
  Hf  Hf42      1.0  0.55341  0.18093  0.92379  1.0000
  Hf  Hf43      1.0  0.55725  0.69656  0.40930  1.0000
  Hf  Hf44      1.0  0.56226  0.68534  0.90582  1.0000
  Hf  Hf45      1.0  0.79990  0.17617  0.42937  1.0000
  Hf  Hf46      1.0  0.80343  0.18522  0.91510  1.0000
  Hf  Hf47      1.0  0.80705  0.68798  0.42084  1.0000
  Hf  Hf48      1.0  0.80246  0.68997  0.91152  1.0000
  Hf  Hf49      1.0  0.16180  0.39173  0.33200  1.0000
  Hf  Hf50      1.0  0.15949  0.38592  0.82990  1.0000
  Hf  Hf51      1.0  0.16118  0.88753  0.32284  1.0000
  Hf  Hf52      1.0  0.15620  0.88508  0.83903  1.0000
  Hf  Hf53      1.0  0.40926  0.38418  0.34162  1.0000
  Hf  Hf54      1.0  0.40451  0.37388  0.84592  1.0000
  Hf  Hf55      1.0  0.40694  0.87813  0.33773  1.0000
  Hf  Hf56      1.0  0.41128  0.88328  0.83681  1.0000
  Hf  Hf57      1.0  0.65343  0.39217  0.33940  1.0000
  Hf  Hf58      1.0  0.66104  0.39388  0.82028  1.0000
  Hf  Hf59      1.0  0.66166  0.89526  0.32706  1.0000
  Hf  Hf60      1.0  0.66148  0.89096  0.83114  1.0000
  Hf  Hf61      1.0  0.91154  0.38614  0.32944  1.0000
  Hf  Hf62      1.0  0.91207  0.38928  0.82967  1.0000
  Hf  Hf63      1.0  0.91013  0.89840  0.31992  1.0000
  Hf  Hf64      1.0  0.91027  0.88691  0.82752  1.0000
  Hf  Hf65      1.0  0.19295  0.32036  0.08053  1.0000
  Hf  Hf66      1.0  0.19416  0.31245  0.58579  1.0000
  Hf  Hf67      1.0  0.19236  0.81383  0.08576  1.0000
  Hf  Hf68      1.0  0.19334  0.82392  0.57796  1.0000
  Hf  Hf69      1.0  0.44260  0.31807  0.09356  1.0000
  Hf  Hf70      1.0  0.44511  0.30523  0.59235  1.0000
  Hf  Hf71      1.0  0.44356  0.81040  0.08821  1.0000
  Hf  Hf72      1.0  0.44004  0.81691  0.58671  1.0000
  Hf  Hf73      1.0  0.69426  0.32349  0.08309  1.0000
  Hf  Hf74      1.0  0.68957  0.30928  0.58973  1.0000
  Hf  Hf75      1.0  0.69491  0.82457  0.07613  1.0000
  Hf  Hf76      1.0  0.69415  0.82217  0.58047  1.0000
  Hf  Hf77      1.0  0.94304  0.32643  0.07694  1.0000
  Hf  Hf78      1.0  0.94554  0.32280  0.57521  1.0000
  Hf  Hf79      1.0  0.94508  0.82471  0.08000  1.0000
  Hf  Hf80      1.0  0.94473  0.82707  0.56816  1.0000
  Hf  Hf81      1.0  0.09157  0.10588  0.16438  1.0000
  Hf  Hf82      1.0  0.09151  0.10991  0.66954  1.0000
  Hf  Hf83      1.0  0.09136  0.60522  0.16648  1.0000
  Hf  Hf84      1.0  0.08875  0.61275  0.67445  1.0000
  Hf  Hf85      1.0  0.34100  0.11728  0.16711  1.0000
  Hf  Hf86      1.0  0.34374  0.10901  0.66245  1.0000
  Hf  Hf87      1.0  0.34152  0.60595  0.17486  1.0000
  Hf  Hf88      1.0  0.33799  0.61133  0.67468  1.0000
  Hf  Hf89      1.0  0.59265  0.10917  0.17230  1.0000
  Hf  Hf90      1.0  0.59012  0.11285  0.66854  1.0000
  Hf  Hf91      1.0  0.59624  0.62515  0.15516  1.0000
  Hf  Hf92      1.0  0.59355  0.61306  0.66299  1.0000
  Hf  Hf93      1.0  0.84194  0.11299  0.16228  1.0000
  Hf  Hf94      1.0  0.84392  0.11623  0.65808  1.0000
  Hf  Hf95      1.0  0.84097  0.61848  0.16551  1.0000
  Hf  Hf96      1.0  0.84374  0.60834  0.66841  1.0000
  F   F1        1.0  0.08252  0.14124  0.29388  1.0000
  F   F2        1.0  0.07191  0.12340  0.81278  1.0000
  F   F3        1.0  0.07981  0.62410  0.29802  1.0000
  F   F4        1.0  0.07882  0.61444  0.81088  1.0000
  F   F5        1.0  0.32554  0.11688  0.30781  1.0000
  F   F6        1.0  0.32836  0.12175  0.81536  1.0000
  F   F7        1.0  0.33404  0.60717  0.31555  1.0000
  F   F8        1.0  0.32607  0.62574  0.80520  1.0000
  F   F9        1.0  0.58225  0.13041  0.29990  1.0000
  F   F10       1.0  0.58129  0.13141  0.80619  1.0000
  F   F11       1.0  0.58191  0.63388  0.29973  1.0000
  F   F12       1.0  0.58781  0.63536  0.78584  1.0000
  F   F13       1.0  0.83077  0.14722  0.29717  1.0000
  F   F14       1.0  0.82825  0.13800  0.80302  1.0000
  F   F15       1.0  0.81973  0.63181  0.31056  1.0000
  F   F16       1.0  0.82875  0.62267  0.80582  1.0000
  F   F17       1.0  0.18456  0.33558  0.45425  1.0000
  F   F18       1.0  0.18531  0.34310  0.95147  1.0000
  F   F19       1.0  0.18792  0.84769  0.43021  1.0000
  F   F20       1.0  0.18402  0.84334  0.94715  1.0000
  F   F21       1.0  0.43718  0.34149  0.44280  1.0000
  F   F22       1.0  0.42612  0.33492  0.95944  1.0000
  F   F23       1.0  0.44071  0.84331  0.44238  1.0000
  F   F24       1.0  0.43921  0.85321  0.94016  1.0000
  F   F25       1.0  0.67377  0.33333  0.46439  1.0000
  F   F26       1.0  0.68294  0.35280  0.95211  1.0000
  F   F27       1.0  0.68860  0.84520  0.44407  1.0000
  F   F28       1.0  0.69221  0.85115  0.94110  1.0000
  F   F29       1.0  0.93356  0.34173  0.44227  1.0000
  F   F30       1.0  0.94681  0.36027  0.92299  1.0000
  F   F31       1.0  0.93789  0.85333  0.42860  1.0000
  F   F32       1.0  0.93607  0.83679  0.93825  1.0000
  F   F33       1.0  0.16985  0.37607  0.20055  1.0000
  F   F34       1.0  0.17784  0.36868  0.69652  1.0000
  F   F35       1.0  0.17374  0.88427  0.18531  1.0000
  F   F36       1.0  0.16198  0.86155  0.70060  1.0000
  F   F37       1.0  0.42211  0.36127  0.20518  1.0000
  F   F38       1.0  0.41736  0.35548  0.70609  1.0000
  F   F39       1.0  0.41968  0.86172  0.19833  1.0000
  F   F40       1.0  0.41395  0.85786  0.70939  1.0000
  F   F41       1.0  0.67524  0.37281  0.20636  1.0000
  F   F42       1.0  0.67166  0.36267  0.69677  1.0000
  F   F43       1.0  0.67270  0.89338  0.18734  1.0000
  F   F44       1.0  0.66811  0.86449  0.69874  1.0000
  F   F45       1.0  0.91745  0.37830  0.19401  1.0000
  F   F46       1.0  0.92359  0.35725  0.69896  1.0000
  F   F47       1.0  0.92136  0.88964  0.18822  1.0000
  F   F48       1.0  0.92317  0.87350  0.68971  1.0000
  F   F49       1.0  0.06793  0.16093  0.05105  1.0000
  F   F50       1.0  0.06196  0.15981  0.55532  1.0000
  F   F51       1.0  0.06468  0.64646  0.05730  1.0000
  F   F52       1.0  0.05764  0.65618  0.55333  1.0000
  F   F53       1.0  0.30583  0.16341  0.06001  1.0000
  F   F54       1.0  0.30983  0.15190  0.55892  1.0000
  F   F55       1.0  0.31994  0.65456  0.05283  1.0000
  F   F56       1.0  0.30804  0.64957  0.56538  1.0000
  F   F57       1.0  0.56083  0.16799  0.06034  1.0000
  F   F58       1.0  0.56468  0.16947  0.54974  1.0000
  F   F59       1.0  0.56933  0.66759  0.04818  1.0000
  F   F60       1.0  0.56889  0.66709  0.54542  1.0000
  F   F61       1.0  0.81260  0.15859  0.05310  1.0000
  F   F62       1.0  0.80888  0.16474  0.55735  1.0000
  F   F63       1.0  0.81160  0.66853  0.04596  1.0000
  F   F64       1.0  0.81221  0.66658  0.56079  1.0000
  F   F65       1.0  0.20083  0.20621  0.19517  1.0000
  F   F66       1.0  0.20578  0.20860  0.70715  1.0000
  F   F67       1.0  0.19953  0.68936  0.22646  1.0000
  F   F68       1.0  0.21366  0.70648  0.70145  1.0000
  F   F69       1.0  0.45705  0.19806  0.21376  1.0000
  F   F70       1.0  0.45555  0.19310  0.71860  1.0000
  F   F71       1.0  0.45312  0.68810  0.21390  1.0000
  F   F72       1.0  0.43896  0.69714  0.74042  1.0000
  F   F73       1.0  0.71004  0.20966  0.20277  1.0000
  F   F74       1.0  0.70547  0.20362  0.71189  1.0000
  F   F75       1.0  0.70033  0.71348  0.20844  1.0000
  F   F76       1.0  0.71333  0.70742  0.69230  1.0000
  F   F77       1.0  0.94785  0.19555  0.21243  1.0000
  F   F78       1.0  0.95744  0.19040  0.71754  1.0000
  F   F79       1.0  0.95763  0.69570  0.20266  1.0000
  F   F80       1.0  0.96232  0.70694  0.69151  1.0000
  F   F81       1.0  0.15153  0.07813  0.03532  1.0000
  F   F82       1.0  0.15121  0.11106  0.52031  1.0000
  F   F83       1.0  0.14786  0.59134  0.04168  1.0000
  F   F84       1.0  0.14955  0.59353  0.54827  1.0000
  F   F85       1.0  0.40542  0.09931  0.05372  1.0000
  F   F86       1.0  0.39671  0.08929  0.52788  1.0000
  F   F87       1.0  0.40549  0.58974  0.03356  1.0000
  F   F88       1.0  0.39776  0.60667  0.55371  1.0000
  F   F89       1.0  0.65273  0.10057  0.03257  1.0000
  F   F90       1.0  0.64415  0.10451  0.54020  1.0000
  F   F91       1.0  0.65306  0.58785  0.02175  1.0000
  F   F92       1.0  0.64842  0.58531  0.53881  1.0000
  F   F93       1.0  0.89998  0.08619  0.04393  1.0000
  F   F94       1.0  0.89924  0.12524  0.53125  1.0000
  F   F95       1.0  0.89963  0.60240  0.04298  1.0000
  F   F96       1.0  0.90277  0.60331  0.53264  1.0000
  F   F97       1.0  0.15052  0.19102  0.10527  1.0000
  F   F98       1.0  0.15206  0.18373  0.63063  1.0000
  F   F99       1.0  0.15662  0.68642  0.12587  1.0000
  F   F100      1.0  0.14415  0.71135  0.63697  1.0000
  F   F101      1.0  0.39681  0.20105  0.14238  1.0000
  F   F102      1.0  0.40204  0.18719  0.61688  1.0000
  F   F103      1.0  0.39686  0.69641  0.13907  1.0000
  F   F104      1.0  0.39921  0.70021  0.63620  1.0000
  F   F105      1.0  0.65465  0.19896  0.12457  1.0000
  F   F106      1.0  0.65471  0.18893  0.63192  1.0000
  F   F107      1.0  0.65583  0.70145  0.09568  1.0000
  F   F108      1.0  0.65074  0.70844  0.60452  1.0000
  F   F109      1.0  0.89487  0.21001  0.10590  1.0000
  F   F110      1.0  0.90244  0.20213  0.64698  1.0000
  F   F111      1.0  0.89399  0.70524  0.14010  1.0000
  F   F112      1.0  0.90526  0.71085  0.59920  1.0000
  F   F113      1.0  0.09656  0.30746  0.38422  1.0000
  F   F114      1.0  0.09877  0.32023  0.86427  1.0000
  F   F115      1.0  0.09677  0.80086  0.34874  1.0000
  F   F116      1.0  0.09755  0.80457  0.87639  1.0000
  F   F117      1.0  0.35080  0.30426  0.37745  1.0000
  F   F118      1.0  0.34284  0.29398  0.89638  1.0000
  F   F119      1.0  0.35140  0.79026  0.37647  1.0000
  F   F120      1.0  0.34753  0.79511  0.88765  1.0000
  F   F121      1.0  0.59937  0.30081  0.36617  1.0000
  F   F122      1.0  0.60124  0.31424  0.86410  1.0000
  F   F123      1.0  0.60006  0.81519  0.34929  1.0000
  F   F124      1.0  0.60201  0.80725  0.87564  1.0000
  F   F125      1.0  0.85402  0.28420  0.37057  1.0000
  F   F126      1.0  0.85057  0.31381  0.86237  1.0000
  F   F127      1.0  0.84734  0.80981  0.36623  1.0000
  F   F128      1.0  0.84265  0.81340  0.86175  1.0000
  F   F129      1.0  0.05932  0.25560  0.14712  1.0000
  F   F130      1.0  0.06530  0.24695  0.65788  1.0000
  F   F131      1.0  0.07241  0.75345  0.13134  1.0000
  F   F132      1.0  0.06232  0.75498  0.63038  1.0000
  F   F133      1.0  0.31512  0.25299  0.13652  1.0000
  F   F134      1.0  0.31737  0.23520  0.64438  1.0000
  F   F135      1.0  0.31057  0.75249  0.15648  1.0000
  F   F136      1.0  0.31209  0.74897  0.64118  1.0000
  F   F137      1.0  0.56722  0.25225  0.14930  1.0000
  F   F138      1.0  0.57224  0.24579  0.63917  1.0000
  F   F139      1.0  0.55436  0.75684  0.15096  1.0000
  F   F140      1.0  0.55577  0.75536  0.64371  1.0000
  F   F141      1.0  0.81438  0.26379  0.12355  1.0000
  F   F142      1.0  0.82014  0.26078  0.63783  1.0000
  F   F143      1.0  0.80782  0.74778  0.14675  1.0000
  F   F144      1.0  0.80778  0.75106  0.66228  1.0000
  F   F145      1.0  0.11746  0.34537  0.13062  1.0000
  F   F146      1.0  0.12083  0.34544  0.64604  1.0000
  F   F147      1.0  0.12498  0.86608  0.11673  1.0000
  F   F148      1.0  0.12463  0.88976  0.58628  1.0000
  F   F149      1.0  0.37436  0.38487  0.09962  1.0000
  F   F150      1.0  0.37600  0.35273  0.61353  1.0000
  F   F151      1.0  0.37566  0.86022  0.10857  1.0000
  F   F152      1.0  0.37596  0.88479  0.59185  1.0000
  F   F153      1.0  0.62680  0.37222  0.11863  1.0000
  F   F154      1.0  0.62282  0.36203  0.61290  1.0000
  F   F155      1.0  0.62062  0.86556  0.11907  1.0000
  F   F156      1.0  0.62427  0.88879  0.59118  1.0000
  F   F157      1.0  0.87580  0.37971  0.09467  1.0000
  F   F158      1.0  0.87536  0.37741  0.60080  1.0000
  F   F159      1.0  0.87439  0.88567  0.10209  1.0000
  F   F160      1.0  0.87369  0.85675  0.62595  1.0000
  F   F161      1.0  0.20071  0.24947  0.32811  1.0000
  F   F162      1.0  0.18263  0.24206  0.86716  1.0000
  F   F163      1.0  0.18006  0.74377  0.36034  1.0000
  F   F164      1.0  0.18440  0.74930  0.86141  1.0000
  F   F165      1.0  0.43551  0.24297  0.35160  1.0000
  F   F166      1.0  0.43560  0.23934  0.87141  1.0000
  F   F167      1.0  0.43697  0.74259  0.36325  1.0000
  F   F168      1.0  0.43620  0.75432  0.85807  1.0000
  F   F169      1.0  0.68748  0.24240  0.36158  1.0000
  F   F170      1.0  0.68971  0.25380  0.85064  1.0000
  F   F171      1.0  0.67779  0.75391  0.35986  1.0000
  F   F172      1.0  0.68500  0.74108  0.85573  1.0000
  F   F173      1.0  0.94117  0.25104  0.34594  1.0000
  F   F174      1.0  0.93044  0.24505  0.88202  1.0000
  F   F175      1.0  0.93075  0.74894  0.35271  1.0000
  F   F176      1.0  0.93158  0.74368  0.85924  1.0000
  F   F177      1.0  0.12543  0.14016  0.38587  1.0000
  F   F178      1.0  0.12394  0.14105  0.87523  1.0000
  F   F179      1.0  0.12461  0.61256  0.40985  1.0000
  F   F180      1.0  0.12626  0.64436  0.87735  1.0000
  F   F181      1.0  0.37460  0.13076  0.37762  1.0000
  F   F182      1.0  0.37356  0.12378  0.92201  1.0000
  F   F183      1.0  0.37887  0.62237  0.40381  1.0000
  F   F184      1.0  0.37053  0.61884  0.89815  1.0000
  F   F185      1.0  0.62213  0.12646  0.40290  1.0000
  F   F186      1.0  0.62770  0.13903  0.89013  1.0000
  F   F187      1.0  0.62422  0.62467  0.39952  1.0000
  F   F188      1.0  0.62470  0.61927  0.89306  1.0000
  F   F189      1.0  0.87476  0.10502  0.41178  1.0000
  F   F190      1.0  0.87317  0.11553  0.90397  1.0000
  F   F191      1.0  0.86974  0.62635  0.41137  1.0000
  F   F192      1.0  0.87755  0.63717  0.87788  1.0000
  F   F193      1.0  0.00671  0.36597  0.06219  1.0000
  F   F194      1.0  0.00907  0.34555  0.58425  1.0000
  F   F195      1.0  0.00817  0.86307  0.06839  1.0000
  F   F196      1.0  0.00979  0.86800  0.55385  1.0000
  F   F197      1.0  0.25708  0.37017  0.07420  1.0000
  F   F198      1.0  0.26108  0.36228  0.57517  1.0000
  F   F199      1.0  0.25500  0.86457  0.08415  1.0000
  F   F200      1.0  0.25806  0.85861  0.57357  1.0000
  F   F201      1.0  0.50919  0.37281  0.06769  1.0000
  F   F202      1.0  0.50721  0.34695  0.58526  1.0000
  F   F203      1.0  0.50899  0.85811  0.06532  1.0000
  F   F204      1.0  0.49661  0.84241  0.59424  1.0000
  F   F205      1.0  0.76052  0.37080  0.06553  1.0000
  F   F206      1.0  0.75695  0.36818  0.57006  1.0000
  F   F207      1.0  0.75515  0.86633  0.08230  1.0000
  F   F208      1.0  0.75804  0.87213  0.56511  1.0000
  F   F209      1.0  0.07750  0.47428  0.16806  1.0000
  F   F210      1.0  0.07377  0.48296  0.67122  1.0000
  F   F211      1.0  0.07211  0.97567  0.17399  1.0000
  F   F212      1.0  0.07178  0.99009  0.66850  1.0000
  F   F213      1.0  0.31942  0.48162  0.18269  1.0000
  F   F214      1.0  0.32274  0.48639  0.67148  1.0000
  F   F215      1.0  0.31936  0.99424  0.17356  1.0000
  F   F216      1.0  0.31444  0.98355  0.68531  1.0000
  F   F217      1.0  0.56889  0.48377  0.18917  1.0000
  F   F218      1.0  0.57061  0.48397  0.67302  1.0000
  F   F219      1.0  0.57211  0.98928  0.16338  1.0000
  F   F220      1.0  0.56455  0.98031  0.68648  1.0000
  F   F221      1.0  0.81702  0.49442  0.18385  1.0000
  F   F222      1.0  0.82026  0.48666  0.68204  1.0000
  F   F223      1.0  0.82498  0.98768  0.18044  1.0000
  F   F224      1.0  0.82656  0.99264  0.64846  1.0000
  F   F225      1.0  0.24425  0.13230  0.44063  1.0000
  F   F226      1.0  0.24320  0.12650  0.93715  1.0000
  F   F227      1.0  0.23988  0.64160  0.42847  1.0000
  F   F228      1.0  0.24034  0.64571  0.93197  1.0000
  F   F229      1.0  0.49468  0.12961  0.42550  1.0000
  F   F230      1.0  0.49319  0.11937  0.94746  1.0000
  F   F231      1.0  0.49873  0.63723  0.40420  1.0000
  F   F232      1.0  0.49833  0.64525  0.90543  1.0000
  F   F233      1.0  0.73890  0.12979  0.44103  1.0000
  F   F234      1.0  0.74795  0.14122  0.91805  1.0000
  F   F235      1.0  0.73801  0.64351  0.42740  1.0000
  F   F236      1.0  0.74336  0.63092  0.92972  1.0000
  F   F237      1.0  0.99316  0.14849  0.42074  1.0000
  F   F238      1.0  0.99525  0.13028  0.92040  1.0000
  F   F239      1.0  0.99459  0.63742  0.40601  1.0000
  F   F240      1.0  0.98900  0.64070  0.93350  1.0000
  F   F241      1.0  0.18192  0.02456  0.31040  1.0000
  F   F242      1.0  0.17598  0.02377  0.83223  1.0000
  F   F243      1.0  0.18338  0.51448  0.32715  1.0000
  F   F244      1.0  0.17201  0.51422  0.83819  1.0000
  F   F245      1.0  0.42612  0.01573  0.32727  1.0000
  F   F246      1.0  0.42857  0.02107  0.82980  1.0000
  F   F247      1.0  0.43411  0.51108  0.31574  1.0000
  F   F248      1.0  0.43162  0.51860  0.82436  1.0000
  F   F249      1.0  0.68176  0.02044  0.31727  1.0000
  F   F250      1.0  0.68408  0.01989  0.83116  1.0000
  F   F251      1.0  0.68433  0.51826  0.31823  1.0000
  F   F252      1.0  0.68137  0.52430  0.81588  1.0000
  F   F253      1.0  0.93656  0.02688  0.29371  1.0000
  F   F254      1.0  0.93242  0.00789  0.80818  1.0000
  F   F255      1.0  0.92939  0.50780  0.34141  1.0000
  F   F256      1.0  0.94420  0.52195  0.80458  1.0000
  F   F257      1.0  0.99470  0.23604  0.01177  1.0000
  F   F258      1.0  0.99501  0.23772  0.51213  1.0000
  F   F259      1.0  0.99964  0.75835  0.99962  1.0000
  F   F260      1.0  0.00146  0.74519  0.49172  1.0000
  F   F261      1.0  0.24923  0.25088  0.99500  1.0000
  F   F262      1.0  0.25345  0.26006  0.49685  1.0000
  F   F263      1.0  0.25239  0.75152  0.00567  1.0000
  F   F264      1.0  0.25009  0.75214  0.49964  1.0000
  F   F265      1.0  0.49677  0.25223  0.99460  1.0000
  F   F266      1.0  0.49635  0.24138  0.50345  1.0000
  F   F267      1.0  0.50724  0.75204  0.98708  1.0000
  F   F268      1.0  0.49206  0.72493  0.51732  1.0000
  F   F269      1.0  0.74472  0.24820  0.00340  1.0000
  F   F270      1.0  0.74512  0.25089  0.49378  1.0000
  F   F271      1.0  0.74997  0.75916  0.00121  1.0000
  F   F272      1.0  0.75040  0.75152  0.50117  1.0000
  F   F273      1.0  0.11994  0.99813  0.25576  1.0000
  F   F274      1.0  0.12306  0.00571  0.75918  1.0000
  F   F275      1.0  0.12850  0.49685  0.24946  1.0000
  F   F276      1.0  0.12377  0.49163  0.75260  1.0000
  F   F277      1.0  0.36824  0.99144  0.25799  1.0000
  F   F278      1.0  0.37734  0.99584  0.75139  1.0000
  F   F279      1.0  0.37882  0.49647  0.23913  1.0000
  F   F280      1.0  0.37703  0.48905  0.75233  1.0000
  F   F281      1.0  0.61681  0.99155  0.27071  1.0000
  F   F282      1.0  0.62890  0.00934  0.75045  1.0000
  F   F283      1.0  0.63129  0.50929  0.24519  1.0000
  F   F284      1.0  0.62671  0.49934  0.74183  1.0000
  F   F285      1.0  0.86914  0.00635  0.26342  1.0000
  F   F286      1.0  0.87394  0.00792  0.74339  1.0000
  F   F287      1.0  0.88020  0.51023  0.24566  1.0000
  F   F288      1.0  0.88621  0.50136  0.73201  1.0000
  F   F289      1.0  0.04376  0.03227  0.02993  1.0000
  F   F290      1.0  0.04456  0.02580  0.51574  1.0000
  F   F291      1.0  0.03838  0.52984  0.02663  1.0000
  F   F292      1.0  0.04672  0.51974  0.51024  1.0000
  F   F293      1.0  0.29193  0.02273  0.02783  1.0000
  F   F294      1.0  0.29897  0.02105  0.51614  1.0000
  F   F295      1.0  0.28617  0.53649  0.03451  1.0000
  F   F296      1.0  0.29138  0.52474  0.52619  1.0000
  F   F297      1.0  0.54149  0.02673  0.02928  1.0000
  F   F298      1.0  0.54555  0.03489  0.52984  1.0000
  F   F299      1.0  0.54543  0.54674  0.01863  1.0000
  F   F300      1.0  0.54371  0.52704  0.52660  1.0000
  F   F301      1.0  0.79062  0.03041  0.03472  1.0000
  F   F302      1.0  0.78557  0.02514  0.52739  1.0000
  F   F303      1.0  0.78899  0.53515  0.03557  1.0000
  F   F304      1.0  0.79899  0.53662  0.52099  1.0000
  F   F305      1.0  0.23282  0.42147  0.23651  1.0000
  F   F306      1.0  0.23602  0.40104  0.74129  1.0000
  F   F307      1.0  0.23705  0.90012  0.24770  1.0000
  F   F308      1.0  0.22694  0.91371  0.72243  1.0000
  F   F309      1.0  0.48998  0.41502  0.20599  1.0000
  F   F310      1.0  0.48288  0.42188  0.73128  1.0000
  F   F311      1.0  0.48293  0.90970  0.22829  1.0000
  F   F312      1.0  0.48187  0.91101  0.73043  1.0000
  F   F313      1.0  0.73744  0.41664  0.24119  1.0000
  F   F314      1.0  0.73267  0.42293  0.70874  1.0000
  F   F315      1.0  0.73512  0.92068  0.22874  1.0000
  F   F316      1.0  0.73228  0.91411  0.72708  1.0000
  F   F317      1.0  0.98548  0.40926  0.21946  1.0000
  F   F318      1.0  0.98663  0.41345  0.71434  1.0000
  F   F319      1.0  0.98323  0.91010  0.22124  1.0000
  F   F320      1.0  0.98943  0.90281  0.73249  1.0000
  F   F321      1.0  0.20929  0.46119  0.48869  1.0000
  F   F322      1.0  0.20064  0.47323  0.99199  1.0000
  F   F323      1.0  0.21172  0.96619  0.48032  1.0000
  F   F324      1.0  0.20873  0.96242  0.97527  1.0000
  F   F325      1.0  0.45212  0.47751  0.48354  1.0000
  F   F326      1.0  0.46395  0.45385  0.97259  1.0000
  F   F327      1.0  0.46374  0.96935  0.47076  1.0000
  F   F328      1.0  0.44450  0.96328  0.00017  1.0000
  F   F329      1.0  0.70298  0.46914  0.47639  1.0000
  F   F330      1.0  0.71304  0.46899  0.97434  1.0000
  F   F331      1.0  0.70567  0.97210  0.47719  1.0000
  F   F332      1.0  0.70823  0.97101  0.98085  1.0000
  F   F333      1.0  0.96137  0.47693  0.47290  1.0000
  F   F334      1.0  0.94940  0.47746  0.98173  1.0000
  F   F335      1.0  0.94716  0.97999  0.47506  1.0000
  F   F336      1.0  0.95586  0.96582  0.97319  1.0000
  F   F337      1.0  0.01545  0.07364  0.28135  1.0000
  F   F338      1.0  0.01188  0.06581  0.78531  1.0000
  F   F339      1.0  0.02012  0.57934  0.25757  1.0000
  F   F340      1.0  0.01562  0.59598  0.76899  1.0000
  F   F341      1.0  0.25963  0.09687  0.28450  1.0000
  F   F342      1.0  0.26424  0.09586  0.78047  1.0000
  F   F343      1.0  0.26480  0.58372  0.28182  1.0000
  F   F344      1.0  0.25993  0.57579  0.77344  1.0000
  F   F345      1.0  0.51781  0.08283  0.26020  1.0000
  F   F346      1.0  0.51767  0.07854  0.79584  1.0000
  F   F347      1.0  0.52299  0.58493  0.25962  1.0000
  F   F348      1.0  0.51999  0.59233  0.76037  1.0000
  F   F349      1.0  0.76099  0.09372  0.26495  1.0000
  F   F350      1.0  0.76599  0.08460  0.77792  1.0000
  F   F351      1.0  0.76395  0.59237  0.26828  1.0000
  F   F352      1.0  0.76164  0.58956  0.76931  1.0000
  F   F353      1.0  0.10686  0.39251  0.47458  1.0000
  F   F354      1.0  0.09850  0.41853  0.95765  1.0000
  F   F355      1.0  0.10109  0.90593  0.44433  1.0000
  F   F356      1.0  0.10277  0.91632  0.95247  1.0000
  F   F357      1.0  0.35286  0.40261  0.47611  1.0000
  F   F358      1.0  0.34836  0.40685  0.96979  1.0000
  F   F359      1.0  0.34966  0.88934  0.47160  1.0000
  F   F360      1.0  0.35132  0.89808  0.97516  1.0000
  F   F361      1.0  0.59276  0.40652  0.46079  1.0000
  F   F362      1.0  0.60104  0.40357  0.95920  1.0000
  F   F363      1.0  0.59657  0.89161  0.46925  1.0000
  F   F364      1.0  0.60134  0.91649  0.95433  1.0000
  F   F365      1.0  0.84994  0.40964  0.45326  1.0000
  F   F366      1.0  0.85531  0.40636  0.95061  1.0000
  F   F367      1.0  0.85028  0.90123  0.47139  1.0000
  F   F368      1.0  0.84822  0.90505  0.96109  1.0000
  F   F369      1.0  0.03972  0.30152  0.31099  1.0000
  F   F370      1.0  0.04033  0.30314  0.79516  1.0000
  F   F371      1.0  0.04078  0.78637  0.27836  1.0000
  F   F372      1.0  0.05401  0.79479  0.77877  1.0000
  F   F373      1.0  0.30632  0.28673  0.28692  1.0000
  F   F374      1.0  0.29439  0.28620  0.79024  1.0000
  F   F375      1.0  0.30177  0.79499  0.29334  1.0000
  F   F376      1.0  0.29707  0.79358  0.78371  1.0000
  F   F377      1.0  0.54389  0.29781  0.29978  1.0000
  F   F378      1.0  0.53939  0.29510  0.78855  1.0000
  F   F379      1.0  0.54315  0.80149  0.28870  1.0000
  F   F380      1.0  0.55195  0.80028  0.78084  1.0000
  F   F381      1.0  0.79350  0.30604  0.28863  1.0000
  F   F382      1.0  0.79639  0.29800  0.78258  1.0000
  F   F383      1.0  0.79178  0.78693  0.28674  1.0000
  F   F384      1.0  0.78684  0.80595  0.79682  1.0000
