data_image0
_chemical_formula_structural       Hf96F384
_chemical_formula_sum              "Hf96 F384"
_cell_length_a       31.0458
_cell_length_b       15.5233
_cell_length_c       15.5146
_cell_angle_alpha    63.342
_cell_angle_beta     63.342
_cell_angle_gamma    80.1625

_space_group_name_H-M_alt    "P 1"
_space_group_IT_number       1

loop_
  _space_group_symop_operation_xyz
  'x, y, z'

loop_
  _atom_site_type_symbol
  _atom_site_label
  _atom_site_symmetry_multiplicity
  _atom_site_fract_x
  _atom_site_fract_y
  _atom_site_fract_z
  _atom_site_occupancy
  Hf  Hf1       1.0  0.19765  0.10718  0.37918  1.0000
  Hf  Hf2       1.0  0.20266  0.10919  0.85912  1.0000
  Hf  Hf3       1.0  0.19584  0.61303  0.36937  1.0000
  Hf  Hf4       1.0  0.19931  0.61310  0.87142  1.0000
  Hf  Hf5       1.0  0.45100  0.11015  0.36878  1.0000
  Hf  Hf6       1.0  0.44656  0.11104  0.87786  1.0000
  Hf  Hf7       1.0  0.44424  0.60626  0.38183  1.0000
  Hf  Hf8       1.0  0.44567  0.60936  0.87836  1.0000
  Hf  Hf9       1.0  0.69590  0.10132  0.38405  1.0000
  Hf  Hf10      1.0  0.69827  0.10106  0.87505  1.0000
  Hf  Hf11      1.0  0.70034  0.61037  0.37385  1.0000
  Hf  Hf12      1.0  0.69716  0.60285  0.87210  1.0000
  Hf  Hf13      1.0  0.94309  0.10787  0.38257  1.0000
  Hf  Hf14      1.0  0.94685  0.10862  0.87839  1.0000
  Hf  Hf15      1.0  0.94282  0.60672  0.38057  1.0000
  Hf  Hf16      1.0  0.94848  0.61089  0.87384  1.0000
  Hf  Hf17      1.0  0.05150  0.38705  0.12474  1.0000
  Hf  Hf18      1.0  0.05288  0.39674  0.62300  1.0000
  Hf  Hf19      1.0  0.05231  0.89360  0.12615  1.0000
  Hf  Hf20      1.0  0.04859  0.88981  0.63868  1.0000
  Hf  Hf21      1.0  0.30467  0.39008  0.12871  1.0000
  Hf  Hf22      1.0  0.30244  0.39389  0.62105  1.0000
  Hf  Hf23      1.0  0.30345  0.89022  0.12524  1.0000
  Hf  Hf24      1.0  0.30108  0.90040  0.62068  1.0000
  Hf  Hf25      1.0  0.55216  0.38671  0.13432  1.0000
  Hf  Hf26      1.0  0.55553  0.38831  0.62098  1.0000
  Hf  Hf27      1.0  0.55729  0.89755  0.11611  1.0000
  Hf  Hf28      1.0  0.55216  0.88610  0.63184  1.0000
  Hf  Hf29      1.0  0.80231  0.39172  0.12476  1.0000
  Hf  Hf30      1.0  0.80275  0.38963  0.61669  1.0000
  Hf  Hf31      1.0  0.80429  0.89116  0.13231  1.0000
  Hf  Hf32      1.0  0.80415  0.90084  0.61641  1.0000
  Hf  Hf33      1.0  0.05437  0.18264  0.42173  1.0000
  Hf  Hf34      1.0  0.05740  0.18437  0.91913  1.0000
  Hf  Hf35      1.0  0.05823  0.69860  0.40713  1.0000
  Hf  Hf36      1.0  0.05808  0.67888  0.91692  1.0000
  Hf  Hf37      1.0  0.31118  0.19073  0.40359  1.0000
  Hf  Hf38      1.0  0.30416  0.18486  0.91696  1.0000
  Hf  Hf39      1.0  0.30300  0.68056  0.41294  1.0000
  Hf  Hf40      1.0  0.30661  0.68754  0.91386  1.0000
  Hf  Hf41      1.0  0.55712  0.16591  0.42819  1.0000
  Hf  Hf42      1.0  0.55779  0.17975  0.91783  1.0000
  Hf  Hf43      1.0  0.55569  0.67433  0.42125  1.0000
  Hf  Hf44      1.0  0.55675  0.68045  0.91866  1.0000
  Hf  Hf45      1.0  0.80320  0.18364  0.41868  1.0000
  Hf  Hf46      1.0  0.80704  0.18004  0.91550  1.0000
  Hf  Hf47      1.0  0.80501  0.68204  0.41553  1.0000
  Hf  Hf48      1.0  0.80705  0.68701  0.91216  1.0000
  Hf  Hf49      1.0  0.15957  0.39148  0.32595  1.0000
  Hf  Hf50      1.0  0.15817  0.38853  0.83342  1.0000
  Hf  Hf51      1.0  0.15553  0.90036  0.32830  1.0000
  Hf  Hf52      1.0  0.15631  0.88528  0.83535  1.0000
  Hf  Hf53      1.0  0.41126  0.38948  0.33238  1.0000
  Hf  Hf54      1.0  0.40671  0.39353  0.82728  1.0000
  Hf  Hf55      1.0  0.40773  0.89229  0.33454  1.0000
  Hf  Hf56      1.0  0.40761  0.89945  0.83123  1.0000
  Hf  Hf57      1.0  0.66163  0.39150  0.32862  1.0000
  Hf  Hf58      1.0  0.66107  0.38420  0.82986  1.0000
  Hf  Hf59      1.0  0.65756  0.88035  0.34033  1.0000
  Hf  Hf60      1.0  0.66261  0.88668  0.82768  1.0000
  Hf  Hf61      1.0  0.90931  0.39022  0.32851  1.0000
  Hf  Hf62      1.0  0.90871  0.39181  0.82697  1.0000
  Hf  Hf63      1.0  0.90545  0.89183  0.33378  1.0000
  Hf  Hf64      1.0  0.90675  0.88386  0.84526  1.0000
  Hf  Hf65      1.0  0.19406  0.31765  0.08765  1.0000
  Hf  Hf66      1.0  0.19453  0.31997  0.57304  1.0000
  Hf  Hf67      1.0  0.19428  0.82430  0.08268  1.0000
  Hf  Hf68      1.0  0.18959  0.82396  0.58659  1.0000
  Hf  Hf69      1.0  0.44743  0.31370  0.07866  1.0000
  Hf  Hf70      1.0  0.44677  0.31593  0.57885  1.0000
  Hf  Hf71      1.0  0.44448  0.81468  0.08614  1.0000
  Hf  Hf72      1.0  0.44224  0.82601  0.58479  1.0000
  Hf  Hf73      1.0  0.69857  0.31621  0.07896  1.0000
  Hf  Hf74      1.0  0.69151  0.30628  0.58862  1.0000
  Hf  Hf75      1.0  0.69432  0.80974  0.09153  1.0000
  Hf  Hf76      1.0  0.69625  0.81213  0.58408  1.0000
  Hf  Hf77      1.0  0.93934  0.31152  0.09198  1.0000
  Hf  Hf78      1.0  0.94549  0.31045  0.58683  1.0000
  Hf  Hf79      1.0  0.94560  0.81083  0.08184  1.0000
  Hf  Hf80      1.0  0.94249  0.82224  0.58297  1.0000
  Hf  Hf81      1.0  0.08563  0.12025  0.16488  1.0000
  Hf  Hf82      1.0  0.09240  0.11432  0.67189  1.0000
  Hf  Hf83      1.0  0.08719  0.61355  0.17136  1.0000
  Hf  Hf84      1.0  0.09470  0.61292  0.66063  1.0000
  Hf  Hf85      1.0  0.34215  0.11454  0.16349  1.0000
  Hf  Hf86      1.0  0.34122  0.12048  0.65533  1.0000
  Hf  Hf87      1.0  0.34169  0.60952  0.16621  1.0000
  Hf  Hf88      1.0  0.34072  0.62166  0.66256  1.0000
  Hf  Hf89      1.0  0.59631  0.11005  0.16131  1.0000
  Hf  Hf90      1.0  0.58952  0.10373  0.67460  1.0000
  Hf  Hf91      1.0  0.59288  0.61269  0.16289  1.0000
  Hf  Hf92      1.0  0.59244  0.60476  0.67395  1.0000
  Hf  Hf93      1.0  0.83743  0.10874  0.17271  1.0000
  Hf  Hf94      1.0  0.84364  0.11264  0.66658  1.0000
  Hf  Hf95      1.0  0.84439  0.61120  0.16360  1.0000
  Hf  Hf96      1.0  0.83889  0.60642  0.66872  1.0000
  F   F1        1.0  0.07534  0.16950  0.28461  1.0000
  F   F2        1.0  0.07483  0.11803  0.82081  1.0000
  F   F3        1.0  0.07937  0.62972  0.30797  1.0000
  F   F4        1.0  0.08160  0.63518  0.79946  1.0000
  F   F5        1.0  0.32881  0.12916  0.30726  1.0000
  F   F6        1.0  0.32436  0.13898  0.79049  1.0000
  F   F7        1.0  0.32762  0.63844  0.29368  1.0000
  F   F8        1.0  0.33028  0.63752  0.79786  1.0000
  F   F9        1.0  0.58385  0.12893  0.29820  1.0000
  F   F10       1.0  0.58059  0.13284  0.80205  1.0000
  F   F11       1.0  0.57827  0.61369  0.30826  1.0000
  F   F12       1.0  0.57680  0.61481  0.81109  1.0000
  F   F13       1.0  0.83146  0.13770  0.29710  1.0000
  F   F14       1.0  0.82980  0.12240  0.80596  1.0000
  F   F15       1.0  0.82872  0.62324  0.30824  1.0000
  F   F16       1.0  0.82889  0.60375  0.81150  1.0000
  F   F17       1.0  0.19388  0.34762  0.43087  1.0000
  F   F18       1.0  0.17880  0.33507  0.96113  1.0000
  F   F19       1.0  0.18652  0.84246  0.44418  1.0000
  F   F20       1.0  0.18345  0.84590  0.94554  1.0000
  F   F21       1.0  0.43753  0.34102  0.44448  1.0000
  F   F22       1.0  0.43289  0.35766  0.94465  1.0000
  F   F23       1.0  0.42942  0.84712  0.45187  1.0000
  F   F24       1.0  0.44098  0.83944  0.94142  1.0000
  F   F25       1.0  0.67790  0.33146  0.45462  1.0000
  F   F26       1.0  0.69434  0.33653  0.94033  1.0000
  F   F27       1.0  0.67906  0.82220  0.45932  1.0000
  F   F28       1.0  0.69161  0.84518  0.94001  1.0000
  F   F29       1.0  0.94245  0.34272  0.44345  1.0000
  F   F30       1.0  0.93127  0.34058  0.94943  1.0000
  F   F31       1.0  0.92799  0.84907  0.45204  1.0000
  F   F32       1.0  0.92826  0.82788  0.95989  1.0000
  F   F33       1.0  0.17316  0.37361  0.19943  1.0000
  F   F34       1.0  0.17060  0.36158  0.70061  1.0000
  F   F35       1.0  0.16570  0.88908  0.19748  1.0000
  F   F36       1.0  0.17059  0.87925  0.69478  1.0000
  F   F37       1.0  0.42554  0.38073  0.18640  1.0000
  F   F38       1.0  0.41966  0.37102  0.68851  1.0000
  F   F39       1.0  0.42012  0.86507  0.20922  1.0000
  F   F40       1.0  0.42123  0.87460  0.70022  1.0000
  F   F41       1.0  0.67393  0.36626  0.19456  1.0000
  F   F42       1.0  0.67168  0.36627  0.69888  1.0000
  F   F43       1.0  0.66968  0.86613  0.20142  1.0000
  F   F44       1.0  0.67117  0.87082  0.69170  1.0000
  F   F45       1.0  0.91741  0.37069  0.20043  1.0000
  F   F46       1.0  0.91286  0.35773  0.70485  1.0000
  F   F47       1.0  0.91753  0.85783  0.20083  1.0000
  F   F48       1.0  0.91660  0.85130  0.71406  1.0000
  F   F49       1.0  0.04866  0.16216  0.06613  1.0000
  F   F50       1.0  0.06974  0.15944  0.54765  1.0000
  F   F51       1.0  0.05960  0.65704  0.06123  1.0000
  F   F52       1.0  0.06431  0.65163  0.55098  1.0000
  F   F53       1.0  0.31556  0.17596  0.04143  1.0000
  F   F54       1.0  0.32178  0.17116  0.53570  1.0000
  F   F55       1.0  0.31660  0.66348  0.04208  1.0000
  F   F56       1.0  0.32206  0.65878  0.54517  1.0000
  F   F57       1.0  0.56868  0.16142  0.04681  1.0000
  F   F58       1.0  0.56261  0.13752  0.56563  1.0000
  F   F59       1.0  0.56717  0.66071  0.05020  1.0000
  F   F60       1.0  0.56327  0.64052  0.56386  1.0000
  F   F61       1.0  0.81067  0.14774  0.06313  1.0000
  F   F62       1.0  0.81448  0.16390  0.55440  1.0000
  F   F63       1.0  0.81588  0.66344  0.04602  1.0000
  F   F64       1.0  0.81965  0.66148  0.53878  1.0000
  F   F65       1.0  0.20997  0.20209  0.22044  1.0000
  F   F66       1.0  0.20538  0.20230  0.71108  1.0000
  F   F67       1.0  0.19893  0.71798  0.21710  1.0000
  F   F68       1.0  0.20645  0.69718  0.69732  1.0000
  F   F69       1.0  0.46316  0.20621  0.19813  1.0000
  F   F70       1.0  0.45786  0.19869  0.72156  1.0000
  F   F71       1.0  0.45699  0.71315  0.20294  1.0000
  F   F72       1.0  0.44488  0.70838  0.71726  1.0000
  F   F73       1.0  0.70216  0.18403  0.22376  1.0000
  F   F74       1.0  0.69472  0.19482  0.72627  1.0000
  F   F75       1.0  0.70757  0.69840  0.20464  1.0000
  F   F76       1.0  0.70828  0.69622  0.72040  1.0000
  F   F77       1.0  0.95283  0.19247  0.20836  1.0000
  F   F78       1.0  0.95017  0.19705  0.71930  1.0000
  F   F79       1.0  0.96303  0.70514  0.20947  1.0000
  F   F80       1.0  0.96067  0.69250  0.70148  1.0000
  F   F81       1.0  0.13874  0.10184  0.04853  1.0000
  F   F82       1.0  0.15482  0.08545  0.52842  1.0000
  F   F83       1.0  0.14626  0.62810  0.03774  1.0000
  F   F84       1.0  0.14977  0.59267  0.53674  1.0000
  F   F85       1.0  0.39479  0.10071  0.02687  1.0000
  F   F86       1.0  0.40077  0.10208  0.52752  1.0000
  F   F87       1.0  0.39489  0.57407  0.05255  1.0000
  F   F88       1.0  0.40138  0.59118  0.54018  1.0000
  F   F89       1.0  0.65105  0.08054  0.04072  1.0000
  F   F90       1.0  0.64891  0.07421  0.54499  1.0000
  F   F91       1.0  0.64794  0.59079  0.04432  1.0000
  F   F92       1.0  0.64973  0.59860  0.54329  1.0000
  F   F93       1.0  0.89455  0.08162  0.04556  1.0000
  F   F94       1.0  0.89270  0.07631  0.54905  1.0000
  F   F95       1.0  0.90114  0.61948  0.02248  1.0000
  F   F96       1.0  0.90234  0.59104  0.53179  1.0000
  F   F97       1.0  0.15902  0.19879  0.13920  1.0000
  F   F98       1.0  0.15232  0.18696  0.62948  1.0000
  F   F99       1.0  0.14852  0.70750  0.13865  1.0000
  F   F100      1.0  0.15273  0.71055  0.61345  1.0000
  F   F101      1.0  0.40390  0.19904  0.12016  1.0000
  F   F102      1.0  0.40417  0.20791  0.62143  1.0000
  F   F103      1.0  0.40242  0.69021  0.12340  1.0000
  F   F104      1.0  0.39915  0.70520  0.62089  1.0000
  F   F105      1.0  0.65724  0.19423  0.11586  1.0000
  F   F106      1.0  0.64970  0.18627  0.61792  1.0000
  F   F107      1.0  0.65062  0.69735  0.12544  1.0000
  F   F108      1.0  0.64811  0.68522  0.65130  1.0000
  F   F109      1.0  0.89122  0.20515  0.11895  1.0000
  F   F110      1.0  0.90451  0.18951  0.61294  1.0000
  F   F111      1.0  0.90595  0.69005  0.13851  1.0000
  F   F112      1.0  0.90164  0.69977  0.62292  1.0000
  F   F113      1.0  0.08951  0.30899  0.36443  1.0000
  F   F114      1.0  0.09484  0.30490  0.86831  1.0000
  F   F115      1.0  0.09288  0.81474  0.37093  1.0000
  F   F116      1.0  0.09536  0.80694  0.87977  1.0000
  F   F117      1.0  0.35531  0.30174  0.36828  1.0000
  F   F118      1.0  0.34283  0.32040  0.86592  1.0000
  F   F119      1.0  0.34681  0.82031  0.37131  1.0000
  F   F120      1.0  0.34939  0.80698  0.87050  1.0000
  F   F121      1.0  0.60216  0.28220  0.40103  1.0000
  F   F122      1.0  0.60378  0.28686  0.86293  1.0000
  F   F123      1.0  0.60451  0.78905  0.38555  1.0000
  F   F124      1.0  0.60110  0.80321  0.85926  1.0000
  F   F125      1.0  0.84708  0.29933  0.37701  1.0000
  F   F126      1.0  0.84558  0.30311  0.88402  1.0000
  F   F127      1.0  0.83835  0.80622  0.37638  1.0000
  F   F128      1.0  0.84998  0.80881  0.87264  1.0000
  F   F129      1.0  0.07735  0.26046  0.11404  1.0000
  F   F130      1.0  0.06883  0.24502  0.65355  1.0000
  F   F131      1.0  0.06635  0.74837  0.14143  1.0000
  F   F132      1.0  0.07146  0.75625  0.64712  1.0000
  F   F133      1.0  0.31745  0.25255  0.13927  1.0000
  F   F134      1.0  0.30650  0.25091  0.64569  1.0000
  F   F135      1.0  0.30421  0.74667  0.14710  1.0000
  F   F136      1.0  0.30669  0.75291  0.65842  1.0000
  F   F137      1.0  0.56544  0.24317  0.15602  1.0000
  F   F138      1.0  0.56449  0.24948  0.62846  1.0000
  F   F139      1.0  0.56426  0.75197  0.15193  1.0000
  F   F140      1.0  0.56629  0.74551  0.64628  1.0000
  F   F141      1.0  0.80705  0.25301  0.14143  1.0000
  F   F142      1.0  0.80688  0.24443  0.65937  1.0000
  F   F143      1.0  0.81562  0.74145  0.14972  1.0000
  F   F144      1.0  0.81560  0.74641  0.63820  1.0000
  F   F145      1.0  0.11850  0.36439  0.13522  1.0000
  F   F146      1.0  0.12623  0.36260  0.60676  1.0000
  F   F147      1.0  0.12636  0.88175  0.10519  1.0000
  F   F148      1.0  0.11973  0.87512  0.62268  1.0000
  F   F149      1.0  0.37817  0.37264  0.10556  1.0000
  F   F150      1.0  0.37297  0.37130  0.60046  1.0000
  F   F151      1.0  0.37154  0.84829  0.12771  1.0000
  F   F152      1.0  0.37202  0.87305  0.61345  1.0000
  F   F153      1.0  0.62636  0.36988  0.10791  1.0000
  F   F154      1.0  0.62599  0.36350  0.61458  1.0000
  F   F155      1.0  0.62841  0.88578  0.10227  1.0000
  F   F156      1.0  0.62419  0.84990  0.61239  1.0000
  F   F157      1.0  0.87180  0.36260  0.12006  1.0000
  F   F158      1.0  0.87794  0.37326  0.59348  1.0000
  F   F159      1.0  0.87541  0.85841  0.11990  1.0000
  F   F160      1.0  0.87285  0.87799  0.60524  1.0000
  F   F161      1.0  0.18011  0.25637  0.36025  1.0000
  F   F162      1.0  0.18499  0.25243  0.86486  1.0000
  F   F163      1.0  0.17965  0.75556  0.36074  1.0000
  F   F164      1.0  0.18738  0.75489  0.84128  1.0000
  F   F165      1.0  0.44467  0.25883  0.33663  1.0000
  F   F166      1.0  0.43689  0.26057  0.86448  1.0000
  F   F167      1.0  0.44187  0.74564  0.36506  1.0000
  F   F168      1.0  0.42914  0.74691  0.86783  1.0000
  F   F169      1.0  0.69779  0.25102  0.34674  1.0000
  F   F170      1.0  0.68114  0.24053  0.87262  1.0000
  F   F171      1.0  0.69373  0.74816  0.34497  1.0000
  F   F172      1.0  0.68255  0.74262  0.86653  1.0000
  F   F173      1.0  0.93592  0.25024  0.35740  1.0000
  F   F174      1.0  0.93766  0.26161  0.85001  1.0000
  F   F175      1.0  0.92571  0.74817  0.37646  1.0000
  F   F176      1.0  0.94939  0.75121  0.84241  1.0000
  F   F177      1.0  0.12889  0.14625  0.37328  1.0000
  F   F178      1.0  0.13362  0.13766  0.87909  1.0000
  F   F179      1.0  0.12646  0.62653  0.39034  1.0000
  F   F180      1.0  0.12836  0.63367  0.89274  1.0000
  F   F181      1.0  0.38480  0.13736  0.37707  1.0000
  F   F182      1.0  0.37401  0.15859  0.87711  1.0000
  F   F183      1.0  0.37776  0.63470  0.37933  1.0000
  F   F184      1.0  0.37074  0.62268  0.89908  1.0000
  F   F185      1.0  0.62571  0.12296  0.39375  1.0000
  F   F186      1.0  0.62701  0.11309  0.89397  1.0000
  F   F187      1.0  0.62532  0.62413  0.39270  1.0000
  F   F188      1.0  0.62793  0.63098  0.88865  1.0000
  F   F189      1.0  0.87402  0.12209  0.39965  1.0000
  F   F190      1.0  0.87645  0.14023  0.89639  1.0000
  F   F191      1.0  0.87444  0.62603  0.38551  1.0000
  F   F192      1.0  0.87616  0.63221  0.88568  1.0000
  F   F193      1.0  0.00152  0.35074  0.07994  1.0000
  F   F194      1.0  0.00710  0.34558  0.58304  1.0000
  F   F195      1.0  0.01018  0.85959  0.08255  1.0000
  F   F196      1.0  0.00582  0.86097  0.58091  1.0000
  F   F197      1.0  0.25675  0.36342  0.07372  1.0000
  F   F198      1.0  0.25212  0.37309  0.56494  1.0000
  F   F199      1.0  0.25571  0.87129  0.07022  1.0000
  F   F200      1.0  0.25498  0.86144  0.58371  1.0000
  F   F201      1.0  0.51044  0.35053  0.07781  1.0000
  F   F202      1.0  0.50862  0.34946  0.57116  1.0000
  F   F203      1.0  0.50733  0.87148  0.06003  1.0000
  F   F204      1.0  0.50757  0.85617  0.58317  1.0000
  F   F205      1.0  0.75677  0.36878  0.07816  1.0000
  F   F206      1.0  0.75347  0.35274  0.58260  1.0000
  F   F207      1.0  0.75947  0.84852  0.08763  1.0000
  F   F208      1.0  0.75751  0.86691  0.57270  1.0000
  F   F209      1.0  0.06511  0.49156  0.16825  1.0000
  F   F210      1.0  0.07784  0.48052  0.66995  1.0000
  F   F211      1.0  0.06744  0.99717  0.17094  1.0000
  F   F212      1.0  0.06707  0.99561  0.67605  1.0000
  F   F213      1.0  0.31524  0.48494  0.18684  1.0000
  F   F214      1.0  0.31374  0.48657  0.68509  1.0000
  F   F215      1.0  0.31899  0.98982  0.16717  1.0000
  F   F216      1.0  0.32139  0.00287  0.65230  1.0000
  F   F217      1.0  0.57230  0.48482  0.16997  1.0000
  F   F218      1.0  0.56885  0.47110  0.69114  1.0000
  F   F219      1.0  0.56862  0.99620  0.16117  1.0000
  F   F220      1.0  0.57129  0.96607  0.67986  1.0000
  F   F221      1.0  0.82863  0.48975  0.16186  1.0000
  F   F222      1.0  0.81460  0.48502  0.67116  1.0000
  F   F223      1.0  0.81914  0.98228  0.17880  1.0000
  F   F224      1.0  0.80911  0.99786  0.67523  1.0000
  F   F225      1.0  0.24649  0.15696  0.39580  1.0000
  F   F226      1.0  0.24525  0.13385  0.91430  1.0000
  F   F227      1.0  0.23905  0.63503  0.43051  1.0000
  F   F228      1.0  0.23950  0.64697  0.93181  1.0000
  F   F229      1.0  0.49571  0.12731  0.42004  1.0000
  F   F230      1.0  0.49401  0.13339  0.91822  1.0000
  F   F231      1.0  0.49118  0.62760  0.44476  1.0000
  F   F232      1.0  0.48878  0.63621  0.93352  1.0000
  F   F233      1.0  0.73910  0.12835  0.44409  1.0000
  F   F234      1.0  0.73981  0.13355  0.93824  1.0000
  F   F235      1.0  0.74043  0.63415  0.43374  1.0000
  F   F236      1.0  0.74201  0.63336  0.92578  1.0000
  F   F237      1.0  0.98813  0.12834  0.44151  1.0000
  F   F238      1.0  0.99397  0.14323  0.91539  1.0000
  F   F239      1.0  0.99215  0.65542  0.42529  1.0000
  F   F240      1.0  0.99554  0.62164  0.94339  1.0000
  F   F241      1.0  0.17974  0.01679  0.33305  1.0000
  F   F242      1.0  0.18035  0.01967  0.81112  1.0000
  F   F243      1.0  0.17971  0.52205  0.30125  1.0000
  F   F244      1.0  0.17848  0.51335  0.83795  1.0000
  F   F245      1.0  0.43016  0.02319  0.32273  1.0000
  F   F246      1.0  0.42568  0.01076  0.84228  1.0000
  F   F247      1.0  0.43327  0.51598  0.32278  1.0000
  F   F248      1.0  0.43680  0.50774  0.81475  1.0000
  F   F249      1.0  0.67955  0.00377  0.33310  1.0000
  F   F250      1.0  0.68573  0.01004  0.82127  1.0000
  F   F251      1.0  0.68827  0.51731  0.30780  1.0000
  F   F252      1.0  0.68371  0.51254  0.81504  1.0000
  F   F253      1.0  0.92467  0.02321  0.32944  1.0000
  F   F254      1.0  0.92733  0.00224  0.84965  1.0000
  F   F255      1.0  0.93236  0.51190  0.32568  1.0000
  F   F256      1.0  0.93274  0.51336  0.82664  1.0000
  F   F257      1.0  0.99379  0.24894  0.99821  1.0000
  F   F258      1.0  0.99761  0.24371  0.51097  1.0000
  F   F259      1.0  0.00130  0.76191  0.98772  1.0000
  F   F260      1.0  0.00163  0.77197  0.48202  1.0000
  F   F261      1.0  0.24229  0.23722  0.00951  1.0000
  F   F262      1.0  0.25509  0.24803  0.49128  1.0000
  F   F263      1.0  0.25167  0.76374  0.99201  1.0000
  F   F264      1.0  0.25548  0.75172  0.49478  1.0000
  F   F265      1.0  0.49933  0.25942  0.98711  1.0000
  F   F266      1.0  0.50011  0.22678  0.51797  1.0000
  F   F267      1.0  0.49989  0.73473  0.02025  1.0000
  F   F268      1.0  0.50264  0.75822  0.48771  1.0000
  F   F269      1.0  0.75196  0.23702  0.01522  1.0000
  F   F270      1.0  0.74977  0.24594  0.50089  1.0000
  F   F271      1.0  0.75589  0.76012  0.98513  1.0000
  F   F272      1.0  0.74400  0.73044  0.51212  1.0000
  F   F273      1.0  0.10886  0.00350  0.27487  1.0000
  F   F274      1.0  0.12850  0.00457  0.74516  1.0000
  F   F275      1.0  0.11915  0.49788  0.24682  1.0000
  F   F276      1.0  0.12557  0.50401  0.74832  1.0000
  F   F277      1.0  0.37638  0.00076  0.25044  1.0000
  F   F278      1.0  0.38449  0.01600  0.72792  1.0000
  F   F279      1.0  0.36778  0.49366  0.26335  1.0000
  F   F280      1.0  0.37164  0.50791  0.74669  1.0000
  F   F281      1.0  0.61949  0.98212  0.26365  1.0000
  F   F282      1.0  0.62308  0.98803  0.76437  1.0000
  F   F283      1.0  0.62612  0.49417  0.23946  1.0000
  F   F284      1.0  0.62667  0.50211  0.74518  1.0000
  F   F285      1.0  0.87911  0.01097  0.24178  1.0000
  F   F286      1.0  0.87763  0.99899  0.75181  1.0000
  F   F287      1.0  0.87425  0.49592  0.24942  1.0000
  F   F288      1.0  0.87536  0.48969  0.74080  1.0000
  F   F289      1.0  0.03686  0.03249  0.03219  1.0000
  F   F290      1.0  0.04491  0.02669  0.53466  1.0000
  F   F291      1.0  0.04712  0.52310  0.01114  1.0000
  F   F292      1.0  0.04048  0.52240  0.52061  1.0000
  F   F293      1.0  0.29310  0.03916  0.02122  1.0000
  F   F294      1.0  0.28854  0.04768  0.51561  1.0000
  F   F295      1.0  0.29343  0.52926  0.02931  1.0000
  F   F296      1.0  0.29610  0.52761  0.52008  1.0000
  F   F297      1.0  0.54296  0.02982  0.01814  1.0000
  F   F298      1.0  0.53732  0.02919  0.52326  1.0000
  F   F299      1.0  0.55457  0.52301  0.01582  1.0000
  F   F300      1.0  0.54327  0.51382  0.52422  1.0000
  F   F301      1.0  0.79581  0.02425  0.02336  1.0000
  F   F302      1.0  0.79057  0.03516  0.52420  1.0000
  F   F303      1.0  0.80167  0.52986  0.01275  1.0000
  F   F304      1.0  0.78592  0.52086  0.52405  1.0000
  F   F305      1.0  0.23815  0.40617  0.23024  1.0000
  F   F306      1.0  0.22874  0.42531  0.71798  1.0000
  F   F307      1.0  0.23775  0.90758  0.23305  1.0000
  F   F308      1.0  0.23223  0.90892  0.73264  1.0000
  F   F309      1.0  0.48703  0.41709  0.22752  1.0000
  F   F310      1.0  0.48691  0.40644  0.71469  1.0000
  F   F311      1.0  0.48619  0.90207  0.22977  1.0000
  F   F312      1.0  0.48410  0.92192  0.72838  1.0000
  F   F313      1.0  0.73714  0.42653  0.21906  1.0000
  F   F314      1.0  0.73261  0.39123  0.73622  1.0000
  F   F315      1.0  0.73525  0.92815  0.21702  1.0000
  F   F316      1.0  0.73125  0.91953  0.70813  1.0000
  F   F317      1.0  0.97902  0.42651  0.20474  1.0000
  F   F318      1.0  0.98730  0.41858  0.72245  1.0000
  F   F319      1.0  0.97910  0.90119  0.23867  1.0000
  F   F320      1.0  0.97781  0.92193  0.73779  1.0000
  F   F321      1.0  0.19983  0.47313  0.47836  1.0000
  F   F322      1.0  0.20284  0.47724  0.97858  1.0000
  F   F323      1.0  0.21871  0.96940  0.46994  1.0000
  F   F324      1.0  0.20507  0.98066  0.97420  1.0000
  F   F325      1.0  0.46265  0.47599  0.47205  1.0000
  F   F326      1.0  0.46099  0.47308  0.96330  1.0000
  F   F327      1.0  0.45842  0.96130  0.47961  1.0000
  F   F328      1.0  0.45026  0.97303  0.98563  1.0000
  F   F329      1.0  0.70092  0.46613  0.48769  1.0000
  F   F330      1.0  0.70345  0.45898  0.98169  1.0000
  F   F331      1.0  0.69991  0.95846  0.48191  1.0000
  F   F332      1.0  0.71115  0.96845  0.98009  1.0000
  F   F333      1.0  0.96441  0.47554  0.47020  1.0000
  F   F334      1.0  0.94654  0.47408  0.99498  1.0000
  F   F335      1.0  0.95768  0.96575  0.48143  1.0000
  F   F336      1.0  0.95938  0.96913  0.97683  1.0000
  F   F337      1.0  0.00778  0.08724  0.27774  1.0000
  F   F338      1.0  0.01345  0.10287  0.76797  1.0000
  F   F339      1.0  0.01322  0.58864  0.27905  1.0000
  F   F340      1.0  0.01929  0.57367  0.79130  1.0000
  F   F341      1.0  0.27273  0.07246  0.27218  1.0000
  F   F342      1.0  0.27021  0.07442  0.75394  1.0000
  F   F343      1.0  0.25959  0.59302  0.26786  1.0000
  F   F344      1.0  0.26873  0.58711  0.78141  1.0000
  F   F345      1.0  0.51647  0.08212  0.26569  1.0000
  F   F346      1.0  0.51939  0.07537  0.77130  1.0000
  F   F347      1.0  0.51590  0.59240  0.26233  1.0000
  F   F348      1.0  0.51492  0.60821  0.76044  1.0000
  F   F349      1.0  0.76977  0.06302  0.29174  1.0000
  F   F350      1.0  0.76506  0.08318  0.77733  1.0000
  F   F351      1.0  0.76657  0.57821  0.28118  1.0000
  F   F352      1.0  0.76768  0.58482  0.76903  1.0000
  F   F353      1.0  0.10304  0.40693  0.45348  1.0000
  F   F354      1.0  0.09811  0.39662  0.96098  1.0000
  F   F355      1.0  0.10330  0.90396  0.47362  1.0000
  F   F356      1.0  0.09746  0.90795  0.96204  1.0000
  F   F357      1.0  0.35291  0.39581  0.46566  1.0000
  F   F358      1.0  0.34890  0.40981  0.95708  1.0000
  F   F359      1.0  0.34854  0.91769  0.46278  1.0000
  F   F360      1.0  0.35022  0.91662  0.96315  1.0000
  F   F361      1.0  0.60329  0.41380  0.46062  1.0000
  F   F362      1.0  0.60469  0.39085  0.95872  1.0000
  F   F363      1.0  0.59685  0.91030  0.46776  1.0000
  F   F364      1.0  0.60614  0.89966  0.96041  1.0000
  F   F365      1.0  0.84638  0.40682  0.46592  1.0000
  F   F366      1.0  0.85214  0.40531  0.96090  1.0000
  F   F367      1.0  0.84576  0.92045  0.45346  1.0000
  F   F368      1.0  0.84605  0.89519  0.98261  1.0000
  F   F369      1.0  0.03069  0.31315  0.28230  1.0000
  F   F370      1.0  0.04192  0.29215  0.79619  1.0000
  F   F371      1.0  0.04686  0.80649  0.27931  1.0000
  F   F372      1.0  0.04459  0.80504  0.79311  1.0000
  F   F373      1.0  0.30700  0.30765  0.27492  1.0000
  F   F374      1.0  0.28901  0.30476  0.78983  1.0000
  F   F375      1.0  0.29580  0.80177  0.29502  1.0000
  F   F376      1.0  0.29413  0.79610  0.79817  1.0000
  F   F377      1.0  0.54613  0.29167  0.29998  1.0000
  F   F378      1.0  0.54196  0.28250  0.79019  1.0000
  F   F379      1.0  0.54939  0.79091  0.28508  1.0000
  F   F380      1.0  0.53439  0.79239  0.81923  1.0000
  F   F381      1.0  0.78492  0.30035  0.30426  1.0000
  F   F382      1.0  0.79750  0.30129  0.79452  1.0000
  F   F383      1.0  0.78875  0.78483  0.28974  1.0000
  F   F384      1.0  0.79776  0.79884  0.78404  1.0000
