data_image0
_chemical_formula_structural       Hf96F384
_chemical_formula_sum              "Hf96 F384"
_cell_length_a       31.0336
_cell_length_b       15.5194
_cell_length_c       15.5078
_cell_angle_alpha    63.342
_cell_angle_beta     63.342
_cell_angle_gamma    80.1625

_space_group_name_H-M_alt    "P 1"
_space_group_IT_number       1

loop_
  _space_group_symop_operation_xyz
  'x, y, z'

loop_
  _atom_site_type_symbol
  _atom_site_label
  _atom_site_symmetry_multiplicity
  _atom_site_fract_x
  _atom_site_fract_y
  _atom_site_fract_z
  _atom_site_occupancy
  Hf  Hf1       1.0  0.19587  0.10211  0.38135  1.0000
  Hf  Hf2       1.0  0.19944  0.10477  0.86915  1.0000
  Hf  Hf3       1.0  0.19417  0.60735  0.37392  1.0000
  Hf  Hf4       1.0  0.19442  0.59645  0.88664  1.0000
  Hf  Hf5       1.0  0.44972  0.10323  0.36878  1.0000
  Hf  Hf6       1.0  0.44427  0.10064  0.87238  1.0000
  Hf  Hf7       1.0  0.44528  0.61801  0.37150  1.0000
  Hf  Hf8       1.0  0.44644  0.60938  0.86462  1.0000
  Hf  Hf9       1.0  0.70032  0.11683  0.36145  1.0000
  Hf  Hf10      1.0  0.69970  0.10223  0.87281  1.0000
  Hf  Hf11      1.0  0.69910  0.61475  0.36706  1.0000
  Hf  Hf12      1.0  0.69746  0.61277  0.86258  1.0000
  Hf  Hf13      1.0  0.94629  0.11860  0.37413  1.0000
  Hf  Hf14      1.0  0.94672  0.11190  0.86923  1.0000
  Hf  Hf15      1.0  0.94357  0.61147  0.37422  1.0000
  Hf  Hf16      1.0  0.94677  0.61048  0.87298  1.0000
  Hf  Hf17      1.0  0.05397  0.39210  0.12676  1.0000
  Hf  Hf18      1.0  0.05284  0.38763  0.63223  1.0000
  Hf  Hf19      1.0  0.05411  0.89332  0.12623  1.0000
  Hf  Hf20      1.0  0.05312  0.89310  0.62795  1.0000
  Hf  Hf21      1.0  0.30796  0.39272  0.12020  1.0000
  Hf  Hf22      1.0  0.30581  0.38449  0.63188  1.0000
  Hf  Hf23      1.0  0.30107  0.88693  0.13386  1.0000
  Hf  Hf24      1.0  0.30437  0.88857  0.62396  1.0000
  Hf  Hf25      1.0  0.54910  0.38662  0.13626  1.0000
  Hf  Hf26      1.0  0.55283  0.40213  0.61893  1.0000
  Hf  Hf27      1.0  0.55050  0.89926  0.12523  1.0000
  Hf  Hf28      1.0  0.55550  0.89964  0.62478  1.0000
  Hf  Hf29      1.0  0.80247  0.39919  0.12444  1.0000
  Hf  Hf30      1.0  0.80190  0.39250  0.62275  1.0000
  Hf  Hf31      1.0  0.80226  0.89107  0.12649  1.0000
  Hf  Hf32      1.0  0.80266  0.90056  0.61912  1.0000
  Hf  Hf33      1.0  0.05590  0.18443  0.42168  1.0000
  Hf  Hf34      1.0  0.05801  0.17581  0.91610  1.0000
  Hf  Hf35      1.0  0.05227  0.67787  0.41975  1.0000
  Hf  Hf36      1.0  0.05401  0.68255  0.91597  1.0000
  Hf  Hf37      1.0  0.30860  0.17206  0.41723  1.0000
  Hf  Hf38      1.0  0.30644  0.17979  0.92117  1.0000
  Hf  Hf39      1.0  0.30164  0.67748  0.42779  1.0000
  Hf  Hf40      1.0  0.30673  0.67314  0.92081  1.0000
  Hf  Hf41      1.0  0.55606  0.18561  0.41321  1.0000
  Hf  Hf42      1.0  0.55966  0.18484  0.90798  1.0000
  Hf  Hf43      1.0  0.56129  0.69318  0.40482  1.0000
  Hf  Hf44      1.0  0.55443  0.68052  0.91117  1.0000
  Hf  Hf45      1.0  0.80648  0.18646  0.41130  1.0000
  Hf  Hf46      1.0  0.80638  0.17966  0.91778  1.0000
  Hf  Hf47      1.0  0.80772  0.69351  0.41593  1.0000
  Hf  Hf48      1.0  0.80640  0.67868  0.92356  1.0000
  Hf  Hf49      1.0  0.15972  0.38660  0.33702  1.0000
  Hf  Hf50      1.0  0.15757  0.37811  0.83981  1.0000
  Hf  Hf51      1.0  0.15619  0.88156  0.34299  1.0000
  Hf  Hf52      1.0  0.16108  0.87803  0.83769  1.0000
  Hf  Hf53      1.0  0.40832  0.38563  0.33712  1.0000
  Hf  Hf54      1.0  0.40971  0.38158  0.83343  1.0000
  Hf  Hf55      1.0  0.40674  0.88715  0.33014  1.0000
  Hf  Hf56      1.0  0.40746  0.88320  0.83538  1.0000
  Hf  Hf57      1.0  0.65607  0.39789  0.32767  1.0000
  Hf  Hf58      1.0  0.65908  0.39433  0.82691  1.0000
  Hf  Hf59      1.0  0.65653  0.89615  0.33946  1.0000
  Hf  Hf60      1.0  0.65663  0.88490  0.84109  1.0000
  Hf  Hf61      1.0  0.90892  0.39010  0.33148  1.0000
  Hf  Hf62      1.0  0.90764  0.38730  0.83394  1.0000
  Hf  Hf63      1.0  0.91075  0.89381  0.33043  1.0000
  Hf  Hf64      1.0  0.90928  0.88485  0.83557  1.0000
  Hf  Hf65      1.0  0.19538  0.31574  0.08577  1.0000
  Hf  Hf66      1.0  0.19652  0.30981  0.58260  1.0000
  Hf  Hf67      1.0  0.19071  0.81739  0.09121  1.0000
  Hf  Hf68      1.0  0.19094  0.81309  0.59400  1.0000
  Hf  Hf69      1.0  0.44371  0.31890  0.08435  1.0000
  Hf  Hf70      1.0  0.44927  0.31789  0.57765  1.0000
  Hf  Hf71      1.0  0.44410  0.81712  0.08140  1.0000
  Hf  Hf72      1.0  0.44433  0.82041  0.58137  1.0000
  Hf  Hf73      1.0  0.69427  0.32237  0.08141  1.0000
  Hf  Hf74      1.0  0.69136  0.32242  0.57832  1.0000
  Hf  Hf75      1.0  0.69114  0.82235  0.08887  1.0000
  Hf  Hf76      1.0  0.69400  0.81986  0.58063  1.0000
  Hf  Hf77      1.0  0.94617  0.31485  0.07629  1.0000
  Hf  Hf78      1.0  0.94468  0.32133  0.57966  1.0000
  Hf  Hf79      1.0  0.94619  0.81972  0.07745  1.0000
  Hf  Hf80      1.0  0.93945  0.82254  0.58349  1.0000
  Hf  Hf81      1.0  0.09075  0.10682  0.16998  1.0000
  Hf  Hf82      1.0  0.09079  0.10282  0.67233  1.0000
  Hf  Hf83      1.0  0.08729  0.61232  0.17487  1.0000
  Hf  Hf84      1.0  0.09291  0.61188  0.66223  1.0000
  Hf  Hf85      1.0  0.34005  0.11102  0.16529  1.0000
  Hf  Hf86      1.0  0.34392  0.11002  0.66423  1.0000
  Hf  Hf87      1.0  0.34116  0.61091  0.16798  1.0000
  Hf  Hf88      1.0  0.33997  0.61010  0.67583  1.0000
  Hf  Hf89      1.0  0.59507  0.11233  0.15642  1.0000
  Hf  Hf90      1.0  0.59377  0.11259  0.66607  1.0000
  Hf  Hf91      1.0  0.58703  0.61350  0.16770  1.0000
  Hf  Hf92      1.0  0.59161  0.62222  0.65905  1.0000
  Hf  Hf93      1.0  0.84328  0.11588  0.16542  1.0000
  Hf  Hf94      1.0  0.84197  0.10947  0.66665  1.0000
  Hf  Hf95      1.0  0.84392  0.61363  0.16866  1.0000
  Hf  Hf96      1.0  0.84245  0.61164  0.66720  1.0000
  F   F1        1.0  0.07534  0.11592  0.31858  1.0000
  F   F2        1.0  0.07961  0.12316  0.80048  1.0000
  F   F3        1.0  0.06835  0.60832  0.32425  1.0000
  F   F4        1.0  0.07513  0.62120  0.80169  1.0000
  F   F5        1.0  0.33052  0.11235  0.31221  1.0000
  F   F6        1.0  0.32979  0.12881  0.80752  1.0000
  F   F7        1.0  0.32484  0.60770  0.32368  1.0000
  F   F8        1.0  0.33050  0.61012  0.81138  1.0000
  F   F9        1.0  0.57959  0.13400  0.29837  1.0000
  F   F10       1.0  0.57380  0.11764  0.80706  1.0000
  F   F11       1.0  0.57325  0.62534  0.31205  1.0000
  F   F12       1.0  0.57796  0.64383  0.79081  1.0000
  F   F13       1.0  0.83327  0.12432  0.31209  1.0000
  F   F14       1.0  0.82500  0.12273  0.80986  1.0000
  F   F15       1.0  0.83747  0.63693  0.29160  1.0000
  F   F16       1.0  0.83495  0.63211  0.79845  1.0000
  F   F17       1.0  0.19061  0.34183  0.44031  1.0000
  F   F18       1.0  0.18258  0.31991  0.96285  1.0000
  F   F19       1.0  0.17727  0.82594  0.46945  1.0000
  F   F20       1.0  0.17444  0.81512  0.97073  1.0000
  F   F21       1.0  0.44132  0.34276  0.44137  1.0000
  F   F22       1.0  0.43732  0.34444  0.94802  1.0000
  F   F23       1.0  0.43780  0.84444  0.44007  1.0000
  F   F24       1.0  0.43200  0.83635  0.94801  1.0000
  F   F25       1.0  0.68131  0.34707  0.44377  1.0000
  F   F26       1.0  0.69203  0.35233  0.93144  1.0000
  F   F27       1.0  0.67997  0.84430  0.45672  1.0000
  F   F28       1.0  0.69014  0.84497  0.93718  1.0000
  F   F29       1.0  0.92556  0.32496  0.45282  1.0000
  F   F30       1.0  0.92949  0.32974  0.95582  1.0000
  F   F31       1.0  0.94252  0.86062  0.43405  1.0000
  F   F32       1.0  0.94436  0.86024  0.92468  1.0000
  F   F33       1.0  0.17987  0.38165  0.18732  1.0000
  F   F34       1.0  0.16685  0.35215  0.70673  1.0000
  F   F35       1.0  0.16551  0.85486  0.21433  1.0000
  F   F36       1.0  0.17723  0.87745  0.68963  1.0000
  F   F37       1.0  0.41641  0.37686  0.19913  1.0000
  F   F38       1.0  0.42703  0.37099  0.69189  1.0000
  F   F39       1.0  0.42157  0.85607  0.19863  1.0000
  F   F40       1.0  0.41527  0.87037  0.70279  1.0000
  F   F41       1.0  0.67072  0.38459  0.18270  1.0000
  F   F42       1.0  0.67676  0.39567  0.67975  1.0000
  F   F43       1.0  0.66922  0.87315  0.20185  1.0000
  F   F44       1.0  0.67195  0.86576  0.69010  1.0000
  F   F45       1.0  0.91920  0.37004  0.19879  1.0000
  F   F46       1.0  0.92387  0.38016  0.68775  1.0000
  F   F47       1.0  0.92743  0.87010  0.19276  1.0000
  F   F48       1.0  0.91065  0.85677  0.70848  1.0000
  F   F49       1.0  0.05761  0.13264  0.07867  1.0000
  F   F50       1.0  0.07197  0.16986  0.54591  1.0000
  F   F51       1.0  0.06064  0.65191  0.05797  1.0000
  F   F52       1.0  0.06213  0.65915  0.55208  1.0000
  F   F53       1.0  0.31595  0.15713  0.05084  1.0000
  F   F54       1.0  0.31649  0.14411  0.55810  1.0000
  F   F55       1.0  0.31242  0.65783  0.05566  1.0000
  F   F56       1.0  0.31159  0.65204  0.55844  1.0000
  F   F57       1.0  0.57099  0.15817  0.04231  1.0000
  F   F58       1.0  0.57125  0.16005  0.54613  1.0000
  F   F59       1.0  0.55577  0.65552  0.06836  1.0000
  F   F60       1.0  0.56539  0.66570  0.54803  1.0000
  F   F61       1.0  0.81967  0.16624  0.04271  1.0000
  F   F62       1.0  0.81092  0.16369  0.55230  1.0000
  F   F63       1.0  0.81541  0.65556  0.05403  1.0000
  F   F64       1.0  0.82129  0.67122  0.54525  1.0000
  F   F65       1.0  0.20470  0.19750  0.21972  1.0000
  F   F66       1.0  0.20609  0.19787  0.71586  1.0000
  F   F67       1.0  0.20300  0.70265  0.21998  1.0000
  F   F68       1.0  0.19782  0.70027  0.71823  1.0000
  F   F69       1.0  0.45815  0.20153  0.22028  1.0000
  F   F70       1.0  0.45324  0.19070  0.70896  1.0000
  F   F71       1.0  0.45665  0.70426  0.21324  1.0000
  F   F72       1.0  0.45387  0.70251  0.70647  1.0000
  F   F73       1.0  0.70694  0.19418  0.21418  1.0000
  F   F74       1.0  0.70683  0.21021  0.69949  1.0000
  F   F75       1.0  0.71390  0.69819  0.21134  1.0000
  F   F76       1.0  0.70741  0.71125  0.70578  1.0000
  F   F77       1.0  0.95298  0.20437  0.20561  1.0000
  F   F78       1.0  0.96411  0.21418  0.69713  1.0000
  F   F79       1.0  0.95221  0.69927  0.21576  1.0000
  F   F80       1.0  0.94271  0.70559  0.72339  1.0000
  F   F81       1.0  0.14917  0.09763  0.04046  1.0000
  F   F82       1.0  0.15230  0.07809  0.54258  1.0000
  F   F83       1.0  0.15043  0.59580  0.03824  1.0000
  F   F84       1.0  0.14018  0.58174  0.52867  1.0000
  F   F85       1.0  0.39960  0.09340  0.04708  1.0000
  F   F86       1.0  0.40538  0.07564  0.53516  1.0000
  F   F87       1.0  0.39276  0.60207  0.04315  1.0000
  F   F88       1.0  0.39463  0.59923  0.53688  1.0000
  F   F89       1.0  0.64997  0.08352  0.03932  1.0000
  F   F90       1.0  0.65404  0.11687  0.52987  1.0000
  F   F91       1.0  0.64772  0.59658  0.04919  1.0000
  F   F92       1.0  0.65305  0.59665  0.52176  1.0000
  F   F93       1.0  0.89993  0.09263  0.03289  1.0000
  F   F94       1.0  0.90158  0.10522  0.54621  1.0000
  F   F95       1.0  0.90207  0.59415  0.04117  1.0000
  F   F96       1.0  0.90151  0.56869  0.55497  1.0000
  F   F97       1.0  0.15097  0.19081  0.14109  1.0000
  F   F98       1.0  0.14987  0.19225  0.63132  1.0000
  F   F99       1.0  0.14567  0.69716  0.15267  1.0000
  F   F100      1.0  0.15015  0.68285  0.62489  1.0000
  F   F101      1.0  0.41040  0.20687  0.11685  1.0000
  F   F102      1.0  0.40158  0.19215  0.61480  1.0000
  F   F103      1.0  0.40165  0.69656  0.13436  1.0000
  F   F104      1.0  0.40511  0.70820  0.61561  1.0000
  F   F105      1.0  0.66049  0.19704  0.10843  1.0000
  F   F106      1.0  0.64203  0.19674  0.64736  1.0000
  F   F107      1.0  0.64826  0.70549  0.14568  1.0000
  F   F108      1.0  0.65513  0.69513  0.61889  1.0000
  F   F109      1.0  0.90245  0.19096  0.12738  1.0000
  F   F110      1.0  0.90115  0.20430  0.64764  1.0000
  F   F111      1.0  0.90609  0.70399  0.10658  1.0000
  F   F112      1.0  0.90249  0.70412  0.60983  1.0000
  F   F113      1.0  0.09776  0.30747  0.35732  1.0000
  F   F114      1.0  0.09863  0.29880  0.90256  1.0000
  F   F115      1.0  0.09372  0.81449  0.40013  1.0000
  F   F116      1.0  0.10512  0.79964  0.86901  1.0000
  F   F117      1.0  0.34498  0.31087  0.38344  1.0000
  F   F118      1.0  0.34793  0.29522  0.88331  1.0000
  F   F119      1.0  0.34766  0.80025  0.36181  1.0000
  F   F120      1.0  0.34256  0.79871  0.88422  1.0000
  F   F121      1.0  0.59530  0.31056  0.35736  1.0000
  F   F122      1.0  0.60024  0.29915  0.86297  1.0000
  F   F123      1.0  0.59588  0.81398  0.36879  1.0000
  F   F124      1.0  0.59101  0.80166  0.87874  1.0000
  F   F125      1.0  0.85193  0.31257  0.38309  1.0000
  F   F126      1.0  0.85317  0.31031  0.86893  1.0000
  F   F127      1.0  0.85074  0.80978  0.36020  1.0000
  F   F128      1.0  0.85648  0.78702  0.89294  1.0000
  F   F129      1.0  0.06698  0.24154  0.13603  1.0000
  F   F130      1.0  0.05299  0.24753  0.66453  1.0000
  F   F131      1.0  0.05597  0.74864  0.15230  1.0000
  F   F132      1.0  0.06642  0.74673  0.63851  1.0000
  F   F133      1.0  0.32439  0.25202  0.13567  1.0000
  F   F134      1.0  0.31483  0.24580  0.64895  1.0000
  F   F135      1.0  0.31170  0.74166  0.15983  1.0000
  F   F136      1.0  0.31169  0.73818  0.65336  1.0000
  F   F137      1.0  0.56074  0.24824  0.14414  1.0000
  F   F138      1.0  0.56735  0.26055  0.62889  1.0000
  F   F139      1.0  0.56545  0.75477  0.13910  1.0000
  F   F140      1.0  0.57015  0.75773  0.63006  1.0000
  F   F141      1.0  0.81469  0.24728  0.15646  1.0000
  F   F142      1.0  0.81412  0.25413  0.64812  1.0000
  F   F143      1.0  0.81040  0.76137  0.13485  1.0000
  F   F144      1.0  0.80507  0.75236  0.66909  1.0000
  F   F145      1.0  0.12378  0.35761  0.11605  1.0000
  F   F146      1.0  0.12454  0.36046  0.61267  1.0000
  F   F147      1.0  0.12139  0.87798  0.11672  1.0000
  F   F148      1.0  0.11925  0.84981  0.64309  1.0000
  F   F149      1.0  0.37557  0.38287  0.10022  1.0000
  F   F150      1.0  0.37763  0.35278  0.62247  1.0000
  F   F151      1.0  0.36773  0.86999  0.11898  1.0000
  F   F152      1.0  0.37308  0.88250  0.60626  1.0000
  F   F153      1.0  0.62047  0.35348  0.11977  1.0000
  F   F154      1.0  0.62505  0.38591  0.59825  1.0000
  F   F155      1.0  0.62537  0.88011  0.10002  1.0000
  F   F156      1.0  0.62599  0.87370  0.60306  1.0000
  F   F157      1.0  0.86988  0.35809  0.11518  1.0000
  F   F158      1.0  0.87238  0.37758  0.60029  1.0000
  F   F159      1.0  0.87262  0.86410  0.10895  1.0000
  F   F160      1.0  0.87285  0.89252  0.59334  1.0000
  F   F161      1.0  0.18599  0.25082  0.36300  1.0000
  F   F162      1.0  0.18484  0.23737  0.86042  1.0000
  F   F163      1.0  0.18796  0.73832  0.36818  1.0000
  F   F164      1.0  0.19730  0.74375  0.84308  1.0000
  F   F165      1.0  0.42985  0.23363  0.37907  1.0000
  F   F166      1.0  0.44551  0.25414  0.84643  1.0000
  F   F167      1.0  0.43086  0.75440  0.36635  1.0000
  F   F168      1.0  0.42602  0.74181  0.86378  1.0000
  F   F169      1.0  0.68267  0.26383  0.34193  1.0000
  F   F170      1.0  0.67659  0.25072  0.86478  1.0000
  F   F171      1.0  0.68327  0.74997  0.36685  1.0000
  F   F172      1.0  0.67684  0.75172  0.86383  1.0000
  F   F173      1.0  0.94445  0.26243  0.33244  1.0000
  F   F174      1.0  0.93321  0.24625  0.86100  1.0000
  F   F175      1.0  0.92421  0.75136  0.37883  1.0000
  F   F176      1.0  0.93700  0.74665  0.86417  1.0000
  F   F177      1.0  0.12866  0.14317  0.39577  1.0000
  F   F178      1.0  0.12595  0.12092  0.89024  1.0000
  F   F179      1.0  0.12241  0.66807  0.36288  1.0000
  F   F180      1.0  0.12560  0.62454  0.89822  1.0000
  F   F181      1.0  0.38054  0.13886  0.37632  1.0000
  F   F182      1.0  0.37522  0.12887  0.89956  1.0000
  F   F183      1.0  0.37709  0.64108  0.37632  1.0000
  F   F184      1.0  0.37512  0.62264  0.89666  1.0000
  F   F185      1.0  0.62758  0.11580  0.39786  1.0000
  F   F186      1.0  0.62830  0.13423  0.88195  1.0000
  F   F187      1.0  0.62639  0.64203  0.38770  1.0000
  F   F188      1.0  0.62833  0.62880  0.88982  1.0000
  F   F189      1.0  0.87597  0.13645  0.40923  1.0000
  F   F190      1.0  0.87722  0.14049  0.87843  1.0000
  F   F191      1.0  0.87254  0.62280  0.41364  1.0000
  F   F192      1.0  0.87404  0.61379  0.90763  1.0000
  F   F193      1.0  0.00752  0.36406  0.07241  1.0000
  F   F194      1.0  0.00944  0.37093  0.57035  1.0000
  F   F195      1.0  0.00832  0.86189  0.06199  1.0000
  F   F196      1.0  0.00458  0.85785  0.57556  1.0000
  F   F197      1.0  0.26031  0.35084  0.07675  1.0000
  F   F198      1.0  0.25908  0.35684  0.57170  1.0000
  F   F199      1.0  0.25756  0.86257  0.06986  1.0000
  F   F200      1.0  0.25732  0.86442  0.58003  1.0000
  F   F201      1.0  0.50273  0.36891  0.08028  1.0000
  F   F202      1.0  0.50812  0.36527  0.57090  1.0000
  F   F203      1.0  0.50783  0.86793  0.06809  1.0000
  F   F204      1.0  0.50651  0.86319  0.58981  1.0000
  F   F205      1.0  0.75509  0.36281  0.07922  1.0000
  F   F206      1.0  0.76029  0.37253  0.56056  1.0000
  F   F207      1.0  0.76004  0.86761  0.06488  1.0000
  F   F208      1.0  0.76295  0.87143  0.55604  1.0000
  F   F209      1.0  0.07523  0.48205  0.17650  1.0000
  F   F210      1.0  0.06580  0.47695  0.68938  1.0000
  F   F211      1.0  0.06329  0.97515  0.20314  1.0000
  F   F212      1.0  0.06197  0.97204  0.69390  1.0000
  F   F213      1.0  0.31719  0.48623  0.18135  1.0000
  F   F214      1.0  0.32325  0.48002  0.67306  1.0000
  F   F215      1.0  0.31351  0.98316  0.18063  1.0000
  F   F216      1.0  0.31225  0.96562  0.69221  1.0000
  F   F217      1.0  0.57089  0.48350  0.17636  1.0000
  F   F218      1.0  0.57241  0.49223  0.66311  1.0000
  F   F219      1.0  0.56427  0.99567  0.17180  1.0000
  F   F220      1.0  0.57047  0.97745  0.68300  1.0000
  F   F221      1.0  0.82691  0.49468  0.15699  1.0000
  F   F222      1.0  0.81681  0.48252  0.66881  1.0000
  F   F223      1.0  0.82354  0.97825  0.17263  1.0000
  F   F224      1.0  0.81358  0.99495  0.67285  1.0000
  F   F225      1.0  0.24458  0.13301  0.42863  1.0000
  F   F226      1.0  0.23825  0.13280  0.93434  1.0000
  F   F227      1.0  0.23734  0.62561  0.45083  1.0000
  F   F228      1.0  0.24464  0.62445  0.92524  1.0000
  F   F229      1.0  0.49515  0.13995  0.41414  1.0000
  F   F230      1.0  0.48875  0.12436  0.92623  1.0000
  F   F231      1.0  0.49169  0.64816  0.42642  1.0000
  F   F232      1.0  0.48847  0.64522  0.92633  1.0000
  F   F233      1.0  0.74444  0.15983  0.40246  1.0000
  F   F234      1.0  0.73883  0.14495  0.93057  1.0000
  F   F235      1.0  0.74644  0.64020  0.41329  1.0000
  F   F236      1.0  0.74386  0.65260  0.90500  1.0000
  F   F237      1.0  0.98970  0.13969  0.42218  1.0000
  F   F238      1.0  0.99500  0.14122  0.92035  1.0000
  F   F239      1.0  0.98795  0.64213  0.42001  1.0000
  F   F240      1.0  0.99587  0.64801  0.91045  1.0000
  F   F241      1.0  0.17522  0.00103  0.35155  1.0000
  F   F242      1.0  0.18336  0.01598  0.81724  1.0000
  F   F243      1.0  0.16913  0.50955  0.35260  1.0000
  F   F244      1.0  0.18421  0.49909  0.82905  1.0000
  F   F245      1.0  0.42959  0.01540  0.32169  1.0000
  F   F246      1.0  0.42831  0.01389  0.82361  1.0000
  F   F247      1.0  0.43005  0.50968  0.33765  1.0000
  F   F248      1.0  0.43799  0.51689  0.81557  1.0000
  F   F249      1.0  0.68830  0.01855  0.30526  1.0000
  F   F250      1.0  0.68798  0.01334  0.81619  1.0000
  F   F251      1.0  0.68105  0.52600  0.31526  1.0000
  F   F252      1.0  0.67445  0.52950  0.81346  1.0000
  F   F253      1.0  0.92621  0.02393  0.32417  1.0000
  F   F254      1.0  0.92759  0.03629  0.80433  1.0000
  F   F255      1.0  0.93198  0.51339  0.32886  1.0000
  F   F256      1.0  0.93370  0.50797  0.81900  1.0000
  F   F257      1.0  0.00070  0.26190  0.99560  1.0000
  F   F258      1.0  0.00078  0.26271  0.47973  1.0000
  F   F259      1.0  0.99585  0.73614  0.00569  1.0000
  F   F260      1.0  0.99622  0.73318  0.50616  1.0000
  F   F261      1.0  0.24850  0.25229  0.99915  1.0000
  F   F262      1.0  0.25106  0.22999  0.51685  1.0000
  F   F263      1.0  0.24053  0.73444  0.00815  1.0000
  F   F264      1.0  0.25241  0.76414  0.50267  1.0000
  F   F265      1.0  0.50630  0.25596  0.99530  1.0000
  F   F266      1.0  0.50161  0.24024  0.50260  1.0000
  F   F267      1.0  0.50196  0.74872  0.99806  1.0000
  F   F268      1.0  0.50271  0.76958  0.48897  1.0000
  F   F269      1.0  0.75699  0.27101  0.98435  1.0000
  F   F270      1.0  0.74707  0.25357  0.49903  1.0000
  F   F271      1.0  0.74741  0.75646  0.00527  1.0000
  F   F272      1.0  0.75262  0.75868  0.49911  1.0000
  F   F273      1.0  0.13046  0.99925  0.25130  1.0000
  F   F274      1.0  0.11781  0.98731  0.76407  1.0000
  F   F275      1.0  0.12579  0.50027  0.25485  1.0000
  F   F276      1.0  0.13080  0.49927  0.73338  1.0000
  F   F277      1.0  0.37787  0.00426  0.23177  1.0000
  F   F278      1.0  0.37043  0.99879  0.75752  1.0000
  F   F279      1.0  0.38643  0.49946  0.24684  1.0000
  F   F280      1.0  0.38231  0.49377  0.74536  1.0000
  F   F281      1.0  0.62430  0.00327  0.24606  1.0000
  F   F282      1.0  0.62843  0.00497  0.73948  1.0000
  F   F283      1.0  0.62193  0.50186  0.24476  1.0000
  F   F284      1.0  0.62095  0.49986  0.74373  1.0000
  F   F285      1.0  0.88136  0.00336  0.23616  1.0000
  F   F286      1.0  0.87162  0.99949  0.75035  1.0000
  F   F287      1.0  0.88172  0.50685  0.23855  1.0000
  F   F288      1.0  0.86602  0.49521  0.76103  1.0000
  F   F289      1.0  0.04675  0.02422  0.02343  1.0000
  F   F290      1.0  0.03643  0.04050  0.53612  1.0000
  F   F291      1.0  0.04816  0.52488  0.01226  1.0000
  F   F292      1.0  0.05047  0.52086  0.52154  1.0000
  F   F293      1.0  0.28718  0.03735  0.01972  1.0000
  F   F294      1.0  0.29638  0.02464  0.51534  1.0000
  F   F295      1.0  0.29952  0.52433  0.01774  1.0000
  F   F296      1.0  0.29284  0.52198  0.52436  1.0000
  F   F297      1.0  0.54341  0.03474  0.02017  1.0000
  F   F298      1.0  0.53366  0.03563  0.54213  1.0000
  F   F299      1.0  0.54725  0.53430  0.01401  1.0000
  F   F300      1.0  0.54522  0.52989  0.51287  1.0000
  F   F301      1.0  0.79318  0.03501  0.02749  1.0000
  F   F302      1.0  0.79026  0.03136  0.50550  1.0000
  F   F303      1.0  0.78579  0.53317  0.02734  1.0000
  F   F304      1.0  0.79403  0.54902  0.52085  1.0000
  F   F305      1.0  0.24307  0.40544  0.23142  1.0000
  F   F306      1.0  0.23178  0.40608  0.73023  1.0000
  F   F307      1.0  0.22749  0.90947  0.22251  1.0000
  F   F308      1.0  0.23439  0.91462  0.73867  1.0000
  F   F309      1.0  0.48538  0.41795  0.22929  1.0000
  F   F310      1.0  0.48786  0.41092  0.73081  1.0000
  F   F311      1.0  0.48629  0.91851  0.22158  1.0000
  F   F312      1.0  0.47849  0.91614  0.73263  1.0000
  F   F313      1.0  0.73391  0.42785  0.23123  1.0000
  F   F314      1.0  0.73391  0.42168  0.72223  1.0000
  F   F315      1.0  0.73290  0.89688  0.24011  1.0000
  F   F316      1.0  0.73642  0.90435  0.72539  1.0000
  F   F317      1.0  0.98455  0.43047  0.21895  1.0000
  F   F318      1.0  0.98450  0.39883  0.74052  1.0000
  F   F319      1.0  0.98458  0.91430  0.22885  1.0000
  F   F320      1.0  0.98031  0.91340  0.72276  1.0000
  F   F321      1.0  0.20495  0.46993  0.48463  1.0000
  F   F322      1.0  0.21261  0.45483  0.97779  1.0000
  F   F323      1.0  0.20706  0.96259  0.48033  1.0000
  F   F324      1.0  0.19972  0.95262  0.97681  1.0000
  F   F325      1.0  0.45629  0.46863  0.49477  1.0000
  F   F326      1.0  0.45834  0.47732  0.96689  1.0000
  F   F327      1.0  0.46065  0.96779  0.46373  1.0000
  F   F328      1.0  0.45264  0.96240  0.97850  1.0000
  F   F329      1.0  0.71404  0.46766  0.45326  1.0000
  F   F330      1.0  0.70609  0.47200  0.97858  1.0000
  F   F331      1.0  0.70195  0.97744  0.47130  1.0000
  F   F332      1.0  0.70770  0.96202  0.97466  1.0000
  F   F333      1.0  0.95547  0.46587  0.47288  1.0000
  F   F334      1.0  0.96339  0.46314  0.96281  1.0000
  F   F335      1.0  0.95147  0.97671  0.49108  1.0000
  F   F336      1.0  0.95570  0.97922  0.98303  1.0000
  F   F337      1.0  0.01363  0.09282  0.27597  1.0000
  F   F338      1.0  0.01318  0.08177  0.76354  1.0000
  F   F339      1.0  0.01536  0.57562  0.27403  1.0000
  F   F340      1.0  0.01140  0.59664  0.76438  1.0000
  F   F341      1.0  0.26422  0.08270  0.27175  1.0000
  F   F342      1.0  0.26885  0.07586  0.76947  1.0000
  F   F343      1.0  0.25944  0.58772  0.27313  1.0000
  F   F344      1.0  0.26438  0.58002  0.77940  1.0000
  F   F345      1.0  0.51786  0.07960  0.27292  1.0000
  F   F346      1.0  0.51380  0.09452  0.76027  1.0000
  F   F347      1.0  0.51412  0.57223  0.28459  1.0000
  F   F348      1.0  0.51337  0.59599  0.76141  1.0000
  F   F349      1.0  0.76853  0.08005  0.27927  1.0000
  F   F350      1.0  0.76396  0.08673  0.77347  1.0000
  F   F351      1.0  0.77331  0.58459  0.26935  1.0000
  F   F352      1.0  0.76705  0.58343  0.76098  1.0000
  F   F353      1.0  0.10556  0.38512  0.46903  1.0000
  F   F354      1.0  0.10154  0.40503  0.96075  1.0000
  F   F355      1.0  0.09953  0.92242  0.47623  1.0000
  F   F356      1.0  0.09913  0.90930  0.96705  1.0000
  F   F357      1.0  0.35425  0.41674  0.46824  1.0000
  F   F358      1.0  0.35357  0.41326  0.94987  1.0000
  F   F359      1.0  0.35071  0.89649  0.45550  1.0000
  F   F360      1.0  0.34673  0.89461  0.97363  1.0000
  F   F361      1.0  0.59938  0.40271  0.45335  1.0000
  F   F362      1.0  0.60029  0.41027  0.94747  1.0000
  F   F363      1.0  0.59524  0.91549  0.45620  1.0000
  F   F364      1.0  0.60270  0.90355  0.95967  1.0000
  F   F365      1.0  0.85252  0.42735  0.45516  1.0000
  F   F366      1.0  0.85216  0.41928  0.96254  1.0000
  F   F367      1.0  0.85518  0.89324  0.46559  1.0000
  F   F368      1.0  0.85635  0.91207  0.96109  1.0000
  F   F369      1.0  0.04104  0.29079  0.28553  1.0000
  F   F370      1.0  0.05000  0.28729  0.80193  1.0000
  F   F371      1.0  0.04925  0.79499  0.29351  1.0000
  F   F372      1.0  0.04209  0.79579  0.79458  1.0000
  F   F373      1.0  0.31031  0.29125  0.28008  1.0000
  F   F374      1.0  0.29884  0.30017  0.78968  1.0000
  F   F375      1.0  0.29090  0.79760  0.29897  1.0000
  F   F376      1.0  0.30019  0.78289  0.78788  1.0000
  F   F377      1.0  0.53841  0.29659  0.28939  1.0000
  F   F378      1.0  0.54598  0.29749  0.78474  1.0000
  F   F379      1.0  0.55355  0.80372  0.26801  1.0000
  F   F380      1.0  0.53991  0.80048  0.78786  1.0000
  F   F381      1.0  0.79742  0.30842  0.29370  1.0000
  F   F382      1.0  0.80333  0.30008  0.79085  1.0000
  F   F383      1.0  0.79387  0.79550  0.29189  1.0000
  F   F384      1.0  0.79856  0.80137  0.81434  1.0000
