data_image0
_chemical_formula_structural       Hf96F384
_chemical_formula_sum              "Hf96 F384"
_cell_length_a       31.044
_cell_length_b       15.5158
_cell_length_c       15.5087
_cell_angle_alpha    63.342
_cell_angle_beta     63.342
_cell_angle_gamma    80.1625

_space_group_name_H-M_alt    "P 1"
_space_group_IT_number       1

loop_
  _space_group_symop_operation_xyz
  'x, y, z'

loop_
  _atom_site_type_symbol
  _atom_site_label
  _atom_site_symmetry_multiplicity
  _atom_site_fract_x
  _atom_site_fract_y
  _atom_site_fract_z
  _atom_site_occupancy
  Hf  Hf1       1.0  0.19539  0.10922  0.37641  1.0000
  Hf  Hf2       1.0  0.19369  0.11371  0.87661  1.0000
  Hf  Hf3       1.0  0.19704  0.61405  0.37075  1.0000
  Hf  Hf4       1.0  0.20029  0.61351  0.86796  1.0000
  Hf  Hf5       1.0  0.44272  0.09505  0.38841  1.0000
  Hf  Hf6       1.0  0.44609  0.11078  0.88756  1.0000
  Hf  Hf7       1.0  0.44766  0.61454  0.37022  1.0000
  Hf  Hf8       1.0  0.44545  0.60448  0.87641  1.0000
  Hf  Hf9       1.0  0.69801  0.10670  0.37846  1.0000
  Hf  Hf10      1.0  0.70021  0.10524  0.87064  1.0000
  Hf  Hf11      1.0  0.69740  0.60573  0.36860  1.0000
  Hf  Hf12      1.0  0.69529  0.60594  0.87414  1.0000
  Hf  Hf13      1.0  0.94468  0.10275  0.37899  1.0000
  Hf  Hf14      1.0  0.94837  0.10945  0.87699  1.0000
  Hf  Hf15      1.0  0.94688  0.60632  0.37070  1.0000
  Hf  Hf16      1.0  0.94327  0.61607  0.87500  1.0000
  Hf  Hf17      1.0  0.05317  0.40211  0.10691  1.0000
  Hf  Hf18      1.0  0.05486  0.39997  0.60761  1.0000
  Hf  Hf19      1.0  0.05812  0.89952  0.12182  1.0000
  Hf  Hf20      1.0  0.05735  0.89527  0.62205  1.0000
  Hf  Hf21      1.0  0.30295  0.38477  0.13011  1.0000
  Hf  Hf22      1.0  0.30359  0.38923  0.62986  1.0000
  Hf  Hf23      1.0  0.30656  0.89325  0.12202  1.0000
  Hf  Hf24      1.0  0.30423  0.89118  0.62594  1.0000
  Hf  Hf25      1.0  0.55273  0.39184  0.12870  1.0000
  Hf  Hf26      1.0  0.55347  0.39412  0.63190  1.0000
  Hf  Hf27      1.0  0.55537  0.89739  0.12440  1.0000
  Hf  Hf28      1.0  0.55526  0.89188  0.62768  1.0000
  Hf  Hf29      1.0  0.80111  0.39436  0.12874  1.0000
  Hf  Hf30      1.0  0.80127  0.39170  0.62319  1.0000
  Hf  Hf31      1.0  0.80452  0.89131  0.12013  1.0000
  Hf  Hf32      1.0  0.80652  0.88179  0.62241  1.0000
  Hf  Hf33      1.0  0.05463  0.19226  0.41980  1.0000
  Hf  Hf34      1.0  0.05344  0.19268  0.91988  1.0000
  Hf  Hf35      1.0  0.05340  0.68961  0.40971  1.0000
  Hf  Hf36      1.0  0.06311  0.68888  0.89987  1.0000
  Hf  Hf37      1.0  0.30404  0.18509  0.42179  1.0000
  Hf  Hf38      1.0  0.30302  0.17531  0.92588  1.0000
  Hf  Hf39      1.0  0.30568  0.67933  0.41494  1.0000
  Hf  Hf40      1.0  0.30527  0.68608  0.91562  1.0000
  Hf  Hf41      1.0  0.55512  0.17994  0.42027  1.0000
  Hf  Hf42      1.0  0.55727  0.18322  0.92232  1.0000
  Hf  Hf43      1.0  0.56045  0.69032  0.41399  1.0000
  Hf  Hf44      1.0  0.55394  0.67318  0.91913  1.0000
  Hf  Hf45      1.0  0.80497  0.18553  0.42150  1.0000
  Hf  Hf46      1.0  0.80565  0.18046  0.91577  1.0000
  Hf  Hf47      1.0  0.80398  0.68454  0.41296  1.0000
  Hf  Hf48      1.0  0.80828  0.67689  0.91390  1.0000
  Hf  Hf49      1.0  0.15682  0.38897  0.33176  1.0000
  Hf  Hf50      1.0  0.16032  0.38871  0.83081  1.0000
  Hf  Hf51      1.0  0.15836  0.88797  0.34088  1.0000
  Hf  Hf52      1.0  0.16046  0.89643  0.82938  1.0000
  Hf  Hf53      1.0  0.40767  0.38338  0.34280  1.0000
  Hf  Hf54      1.0  0.40470  0.38873  0.83517  1.0000
  Hf  Hf55      1.0  0.40550  0.88499  0.33618  1.0000
  Hf  Hf56      1.0  0.41023  0.88941  0.83801  1.0000
  Hf  Hf57      1.0  0.65375  0.37868  0.34580  1.0000
  Hf  Hf58      1.0  0.65897  0.38759  0.82871  1.0000
  Hf  Hf59      1.0  0.66092  0.89564  0.32681  1.0000
  Hf  Hf60      1.0  0.65598  0.88680  0.83517  1.0000
  Hf  Hf61      1.0  0.90916  0.37566  0.33962  1.0000
  Hf  Hf62      1.0  0.90626  0.38539  0.83709  1.0000
  Hf  Hf63      1.0  0.91158  0.89012  0.32446  1.0000
  Hf  Hf64      1.0  0.91437  0.89380  0.82108  1.0000
  Hf  Hf65      1.0  0.19598  0.32528  0.07653  1.0000
  Hf  Hf66      1.0  0.19351  0.31660  0.58219  1.0000
  Hf  Hf67      1.0  0.19143  0.81158  0.09445  1.0000
  Hf  Hf68      1.0  0.19568  0.81466  0.58332  1.0000
  Hf  Hf69      1.0  0.44449  0.31737  0.08239  1.0000
  Hf  Hf70      1.0  0.44121  0.31887  0.59193  1.0000
  Hf  Hf71      1.0  0.44616  0.81735  0.08119  1.0000
  Hf  Hf72      1.0  0.44195  0.80662  0.59607  1.0000
  Hf  Hf73      1.0  0.69273  0.31479  0.08481  1.0000
  Hf  Hf74      1.0  0.69457  0.32273  0.58063  1.0000
  Hf  Hf75      1.0  0.69481  0.81816  0.08167  1.0000
  Hf  Hf76      1.0  0.69516  0.81842  0.57955  1.0000
  Hf  Hf77      1.0  0.94085  0.32296  0.07596  1.0000
  Hf  Hf78      1.0  0.93988  0.31328  0.59043  1.0000
  Hf  Hf79      1.0  0.94720  0.81409  0.08156  1.0000
  Hf  Hf80      1.0  0.94568  0.80943  0.57549  1.0000
  Hf  Hf81      1.0  0.09122  0.11380  0.16951  1.0000
  Hf  Hf82      1.0  0.08961  0.11040  0.67278  1.0000
  Hf  Hf83      1.0  0.08756  0.61235  0.16546  1.0000
  Hf  Hf84      1.0  0.09446  0.61797  0.65310  1.0000
  Hf  Hf85      1.0  0.33918  0.10949  0.17191  1.0000
  Hf  Hf86      1.0  0.33952  0.10313  0.67373  1.0000
  Hf  Hf87      1.0  0.34075  0.60588  0.16959  1.0000
  Hf  Hf88      1.0  0.34158  0.61283  0.66805  1.0000
  Hf  Hf89      1.0  0.59053  0.10972  0.17204  1.0000
  Hf  Hf90      1.0  0.58812  0.11849  0.67486  1.0000
  Hf  Hf91      1.0  0.59166  0.61074  0.16678  1.0000
  Hf  Hf92      1.0  0.59170  0.61557  0.66721  1.0000
  Hf  Hf93      1.0  0.83964  0.11388  0.16205  1.0000
  Hf  Hf94      1.0  0.84177  0.10832  0.66217  1.0000
  Hf  Hf95      1.0  0.84359  0.61150  0.16633  1.0000
  Hf  Hf96      1.0  0.84101  0.59830  0.67147  1.0000
  F   F1        1.0  0.07668  0.13648  0.29521  1.0000
  F   F2        1.0  0.07247  0.12113  0.81788  1.0000
  F   F3        1.0  0.07943  0.63612  0.29576  1.0000
  F   F4        1.0  0.09293  0.64249  0.77585  1.0000
  F   F5        1.0  0.33017  0.14179  0.29963  1.0000
  F   F6        1.0  0.32863  0.13043  0.79743  1.0000
  F   F7        1.0  0.32896  0.62156  0.31308  1.0000
  F   F8        1.0  0.31717  0.61710  0.81639  1.0000
  F   F9        1.0  0.57608  0.12983  0.31066  1.0000
  F   F10       1.0  0.58273  0.14133  0.79338  1.0000
  F   F11       1.0  0.57624  0.62604  0.31173  1.0000
  F   F12       1.0  0.58119  0.62498  0.80749  1.0000
  F   F13       1.0  0.82349  0.13457  0.30490  1.0000
  F   F14       1.0  0.82788  0.13806  0.79053  1.0000
  F   F15       1.0  0.83338  0.63914  0.29164  1.0000
  F   F16       1.0  0.82413  0.60470  0.81966  1.0000
  F   F17       1.0  0.17557  0.33837  0.45695  1.0000
  F   F18       1.0  0.18224  0.33806  0.95023  1.0000
  F   F19       1.0  0.18551  0.85888  0.44349  1.0000
  F   F20       1.0  0.18607  0.84879  0.95526  1.0000
  F   F21       1.0  0.44054  0.33675  0.44927  1.0000
  F   F22       1.0  0.44042  0.34415  0.94395  1.0000
  F   F23       1.0  0.42738  0.83268  0.45272  1.0000
  F   F24       1.0  0.43168  0.83602  0.95255  1.0000
  F   F25       1.0  0.68737  0.35060  0.44039  1.0000
  F   F26       1.0  0.68167  0.33738  0.94678  1.0000
  F   F27       1.0  0.68364  0.83875  0.44265  1.0000
  F   F28       1.0  0.68734  0.83116  0.94952  1.0000
  F   F29       1.0  0.93828  0.34128  0.44734  1.0000
  F   F30       1.0  0.92699  0.32801  0.95786  1.0000
  F   F31       1.0  0.94379  0.84158  0.43412  1.0000
  F   F32       1.0  0.93794  0.84449  0.94461  1.0000
  F   F33       1.0  0.16840  0.36282  0.20386  1.0000
  F   F34       1.0  0.17247  0.36428  0.69466  1.0000
  F   F35       1.0  0.16816  0.85846  0.21182  1.0000
  F   F36       1.0  0.17501  0.88395  0.68679  1.0000
  F   F37       1.0  0.41911  0.37886  0.19467  1.0000
  F   F38       1.0  0.42038  0.37717  0.70216  1.0000
  F   F39       1.0  0.42466  0.87760  0.19184  1.0000
  F   F40       1.0  0.41999  0.86161  0.70785  1.0000
  F   F41       1.0  0.66158  0.34990  0.21013  1.0000
  F   F42       1.0  0.68117  0.39310  0.67416  1.0000
  F   F43       1.0  0.67064  0.87132  0.19600  1.0000
  F   F44       1.0  0.67204  0.87092  0.69695  1.0000
  F   F45       1.0  0.91760  0.36213  0.19819  1.0000
  F   F46       1.0  0.91818  0.36864  0.70114  1.0000
  F   F47       1.0  0.92625  0.85679  0.20062  1.0000
  F   F48       1.0  0.91807  0.87133  0.68576  1.0000
  F   F49       1.0  0.05650  0.15749  0.06560  1.0000
  F   F50       1.0  0.06441  0.16201  0.55792  1.0000
  F   F51       1.0  0.07011  0.66647  0.03584  1.0000
  F   F52       1.0  0.06334  0.65975  0.54225  1.0000
  F   F53       1.0  0.32579  0.16028  0.03772  1.0000
  F   F54       1.0  0.31359  0.14775  0.55740  1.0000
  F   F55       1.0  0.30891  0.64369  0.05789  1.0000
  F   F56       1.0  0.31542  0.65799  0.55406  1.0000
  F   F57       1.0  0.56765  0.16939  0.04372  1.0000
  F   F58       1.0  0.57442  0.17606  0.55194  1.0000
  F   F59       1.0  0.56438  0.66810  0.04798  1.0000
  F   F60       1.0  0.56381  0.65868  0.55833  1.0000
  F   F61       1.0  0.81524  0.16025  0.04794  1.0000
  F   F62       1.0  0.80237  0.13484  0.57038  1.0000
  F   F63       1.0  0.81231  0.65153  0.05768  1.0000
  F   F64       1.0  0.81334  0.65384  0.54371  1.0000
  F   F65       1.0  0.20284  0.19600  0.22170  1.0000
  F   F66       1.0  0.19918  0.19636  0.71262  1.0000
  F   F67       1.0  0.20298  0.69005  0.21863  1.0000
  F   F68       1.0  0.21020  0.70818  0.71638  1.0000
  F   F69       1.0  0.44329  0.20260  0.21712  1.0000
  F   F70       1.0  0.45422  0.20230  0.71169  1.0000
  F   F71       1.0  0.44981  0.70130  0.20714  1.0000
  F   F72       1.0  0.45693  0.68813  0.70459  1.0000
  F   F73       1.0  0.71296  0.20311  0.22351  1.0000
  F   F74       1.0  0.70084  0.20358  0.71663  1.0000
  F   F75       1.0  0.70900  0.71250  0.21282  1.0000
  F   F76       1.0  0.70200  0.69869  0.71686  1.0000
  F   F77       1.0  0.96318  0.19965  0.20132  1.0000
  F   F78       1.0  0.95710  0.20687  0.71291  1.0000
  F   F79       1.0  0.95808  0.70212  0.20688  1.0000
  F   F80       1.0  0.95476  0.70494  0.71696  1.0000
  F   F81       1.0  0.14622  0.11821  0.03641  1.0000
  F   F82       1.0  0.14912  0.08580  0.53697  1.0000
  F   F83       1.0  0.15006  0.59820  0.03813  1.0000
  F   F84       1.0  0.15564  0.60860  0.53372  1.0000
  F   F85       1.0  0.40343  0.07120  0.04494  1.0000
  F   F86       1.0  0.39897  0.08736  0.54970  1.0000
  F   F87       1.0  0.39941  0.58420  0.03410  1.0000
  F   F88       1.0  0.39886  0.59935  0.55106  1.0000
  F   F89       1.0  0.64608  0.10102  0.04885  1.0000
  F   F90       1.0  0.65783  0.06594  0.53014  1.0000
  F   F91       1.0  0.65634  0.59231  0.04576  1.0000
  F   F92       1.0  0.64691  0.58945  0.54361  1.0000
  F   F93       1.0  0.89915  0.09941  0.04358  1.0000
  F   F94       1.0  0.89839  0.10649  0.52153  1.0000
  F   F95       1.0  0.89894  0.60057  0.02971  1.0000
  F   F96       1.0  0.89947  0.61588  0.54399  1.0000
  F   F97       1.0  0.14847  0.21245  0.13282  1.0000
  F   F98       1.0  0.14452  0.18747  0.63483  1.0000
  F   F99       1.0  0.15588  0.69585  0.12456  1.0000
  F   F100      1.0  0.16403  0.70097  0.61297  1.0000
  F   F101      1.0  0.39354  0.19890  0.11289  1.0000
  F   F102      1.0  0.39764  0.20325  0.62588  1.0000
  F   F103      1.0  0.39947  0.69175  0.12211  1.0000
  F   F104      1.0  0.39973  0.69397  0.64171  1.0000
  F   F105      1.0  0.64789  0.19632  0.13661  1.0000
  F   F106      1.0  0.65511  0.18728  0.60211  1.0000
  F   F107      1.0  0.65185  0.70246  0.14312  1.0000
  F   F108      1.0  0.65325  0.68987  0.63624  1.0000
  F   F109      1.0  0.89889  0.19585  0.13505  1.0000
  F   F110      1.0  0.90247  0.19484  0.62189  1.0000
  F   F111      1.0  0.90768  0.69675  0.11626  1.0000
  F   F112      1.0  0.90065  0.69491  0.64341  1.0000
  F   F113      1.0  0.09264  0.31647  0.38926  1.0000
  F   F114      1.0  0.09985  0.30908  0.86630  1.0000
  F   F115      1.0  0.10277  0.80378  0.38043  1.0000
  F   F116      1.0  0.10146  0.81290  0.86117  1.0000
  F   F117      1.0  0.34741  0.29009  0.38789  1.0000
  F   F118      1.0  0.34652  0.30719  0.86586  1.0000
  F   F119      1.0  0.35037  0.80543  0.35900  1.0000
  F   F120      1.0  0.34641  0.80535  0.88376  1.0000
  F   F121      1.0  0.59311  0.30029  0.38863  1.0000
  F   F122      1.0  0.61064  0.29529  0.83457  1.0000
  F   F123      1.0  0.59820  0.80205  0.38904  1.0000
  F   F124      1.0  0.59933  0.79714  0.86118  1.0000
  F   F125      1.0  0.84530  0.30145  0.39689  1.0000
  F   F126      1.0  0.84540  0.29380  0.87471  1.0000
  F   F127      1.0  0.84651  0.79038  0.35820  1.0000
  F   F128      1.0  0.85497  0.79041  0.86570  1.0000
  F   F129      1.0  0.06988  0.26214  0.12902  1.0000
  F   F130      1.0  0.05925  0.25405  0.65074  1.0000
  F   F131      1.0  0.06753  0.74968  0.14243  1.0000
  F   F132      1.0  0.07785  0.75486  0.62244  1.0000
  F   F133      1.0  0.31092  0.24551  0.14286  1.0000
  F   F134      1.0  0.31545  0.25210  0.64097  1.0000
  F   F135      1.0  0.31283  0.74039  0.14045  1.0000
  F   F136      1.0  0.32044  0.75010  0.63398  1.0000
  F   F137      1.0  0.56217  0.24068  0.15641  1.0000
  F   F138      1.0  0.55813  0.25634  0.65973  1.0000
  F   F139      1.0  0.56266  0.75212  0.14100  1.0000
  F   F140      1.0  0.57243  0.75524  0.62823  1.0000
  F   F141      1.0  0.81320  0.25267  0.14329  1.0000
  F   F142      1.0  0.80834  0.24522  0.64283  1.0000
  F   F143      1.0  0.82392  0.75411  0.12842  1.0000
  F   F144      1.0  0.82636  0.73741  0.64139  1.0000
  F   F145      1.0  0.12344  0.40590  0.09537  1.0000
  F   F146      1.0  0.12535  0.35864  0.61762  1.0000
  F   F147      1.0  0.12227  0.85779  0.12895  1.0000
  F   F148      1.0  0.12887  0.86606  0.60285  1.0000
  F   F149      1.0  0.37159  0.35913  0.11947  1.0000
  F   F150      1.0  0.37269  0.36314  0.61927  1.0000
  F   F151      1.0  0.37246  0.84819  0.12750  1.0000
  F   F152      1.0  0.37455  0.86309  0.61545  1.0000
  F   F153      1.0  0.62806  0.38419  0.08559  1.0000
  F   F154      1.0  0.62420  0.34310  0.62820  1.0000
  F   F155      1.0  0.62369  0.86246  0.11291  1.0000
  F   F156      1.0  0.62374  0.86480  0.62556  1.0000
  F   F157      1.0  0.87201  0.36970  0.09327  1.0000
  F   F158      1.0  0.87366  0.35369  0.61823  1.0000
  F   F159      1.0  0.87257  0.85642  0.13007  1.0000
  F   F160      1.0  0.87830  0.88327  0.58608  1.0000
  F   F161      1.0  0.18390  0.24917  0.36474  1.0000
  F   F162      1.0  0.19045  0.25859  0.83781  1.0000
  F   F163      1.0  0.19090  0.75633  0.35365  1.0000
  F   F164      1.0  0.18533  0.75990  0.86000  1.0000
  F   F165      1.0  0.43314  0.24313  0.36202  1.0000
  F   F166      1.0  0.43546  0.25474  0.85948  1.0000
  F   F167      1.0  0.44177  0.74672  0.34395  1.0000
  F   F168      1.0  0.43841  0.73808  0.86234  1.0000
  F   F169      1.0  0.67913  0.25545  0.37290  1.0000
  F   F170      1.0  0.68652  0.25008  0.85427  1.0000
  F   F171      1.0  0.67676  0.74685  0.37132  1.0000
  F   F172      1.0  0.68315  0.74914  0.85543  1.0000
  F   F173      1.0  0.93935  0.25470  0.34574  1.0000
  F   F174      1.0  0.92735  0.24490  0.85965  1.0000
  F   F175      1.0  0.93152  0.74583  0.35825  1.0000
  F   F176      1.0  0.94271  0.76175  0.83997  1.0000
  F   F177      1.0  0.12258  0.15357  0.37755  1.0000
  F   F178      1.0  0.12633  0.14524  0.88249  1.0000
  F   F179      1.0  0.12393  0.62784  0.39132  1.0000
  F   F180      1.0  0.12893  0.63041  0.88900  1.0000
  F   F181      1.0  0.37512  0.11817  0.39804  1.0000
  F   F182      1.0  0.37454  0.13666  0.88442  1.0000
  F   F183      1.0  0.37783  0.62384  0.39892  1.0000
  F   F184      1.0  0.37796  0.66069  0.85834  1.0000
  F   F185      1.0  0.62196  0.12929  0.40377  1.0000
  F   F186      1.0  0.62799  0.10595  0.90603  1.0000
  F   F187      1.0  0.62493  0.63452  0.39121  1.0000
  F   F188      1.0  0.62584  0.61673  0.91168  1.0000
  F   F189      1.0  0.87601  0.15296  0.37185  1.0000
  F   F190      1.0  0.87610  0.12335  0.88220  1.0000
  F   F191      1.0  0.87875  0.62931  0.38875  1.0000
  F   F192      1.0  0.87463  0.61639  0.89364  1.0000
  F   F193      1.0  0.01290  0.37262  0.03916  1.0000
  F   F194      1.0  0.00414  0.36815  0.55565  1.0000
  F   F195      1.0  0.00992  0.85079  0.07628  1.0000
  F   F196      1.0  0.00555  0.85091  0.60003  1.0000
  F   F197      1.0  0.25489  0.36402  0.08318  1.0000
  F   F198      1.0  0.25888  0.37605  0.55715  1.0000
  F   F199      1.0  0.25836  0.85363  0.08706  1.0000
  F   F200      1.0  0.25976  0.86729  0.57127  1.0000
  F   F201      1.0  0.50265  0.35370  0.08541  1.0000
  F   F202      1.0  0.50729  0.36454  0.56671  1.0000
  F   F203      1.0  0.50940  0.86563  0.07003  1.0000
  F   F204      1.0  0.50536  0.85657  0.60156  1.0000
  F   F205      1.0  0.75370  0.35816  0.08362  1.0000
  F   F206      1.0  0.76276  0.36800  0.55823  1.0000
  F   F207      1.0  0.75973  0.86143  0.07448  1.0000
  F   F208      1.0  0.76082  0.84305  0.57775  1.0000
  F   F209      1.0  0.06032  0.49692  0.16526  1.0000
  F   F210      1.0  0.08071  0.50288  0.63363  1.0000
  F   F211      1.0  0.07442  0.98998  0.16547  1.0000
  F   F212      1.0  0.07605  0.98824  0.66636  1.0000
  F   F213      1.0  0.32500  0.48280  0.17623  1.0000
  F   F214      1.0  0.31790  0.48355  0.67285  1.0000
  F   F215      1.0  0.32610  0.98825  0.15118  1.0000
  F   F216      1.0  0.31148  0.97823  0.68180  1.0000
  F   F217      1.0  0.57462  0.49440  0.15952  1.0000
  F   F218      1.0  0.57346  0.48448  0.67279  1.0000
  F   F219      1.0  0.57517  0.99596  0.15594  1.0000
  F   F220      1.0  0.56693  0.99771  0.67730  1.0000
  F   F221      1.0  0.82060  0.47592  0.18225  1.0000
  F   F222      1.0  0.82738  0.48310  0.65541  1.0000
  F   F223      1.0  0.82033  0.98824  0.15826  1.0000
  F   F224      1.0  0.82227  0.97408  0.68052  1.0000
  F   F225      1.0  0.24811  0.14601  0.39782  1.0000
  F   F226      1.0  0.24165  0.13761  0.92703  1.0000
  F   F227      1.0  0.24505  0.63880  0.42161  1.0000
  F   F228      1.0  0.23599  0.63549  0.94095  1.0000
  F   F229      1.0  0.49120  0.15124  0.41597  1.0000
  F   F230      1.0  0.49248  0.14821  0.92514  1.0000
  F   F231      1.0  0.49024  0.63427  0.43150  1.0000
  F   F232      1.0  0.49331  0.63438  0.93798  1.0000
  F   F233      1.0  0.74911  0.13993  0.41220  1.0000
  F   F234      1.0  0.74249  0.14768  0.91289  1.0000
  F   F235      1.0  0.73398  0.64423  0.42611  1.0000
  F   F236      1.0  0.74296  0.63266  0.91769  1.0000
  F   F237      1.0  0.98936  0.12996  0.43190  1.0000
  F   F238      1.0  0.98819  0.14043  0.92922  1.0000
  F   F239      1.0  0.99003  0.65105  0.41696  1.0000
  F   F240      1.0  0.99731  0.64730  0.90227  1.0000
  F   F241      1.0  0.17948  0.02736  0.32409  1.0000
  F   F242      1.0  0.17748  0.02870  0.82289  1.0000
  F   F243      1.0  0.18057  0.51717  0.31534  1.0000
  F   F244      1.0  0.18488  0.51311  0.81866  1.0000
  F   F245      1.0  0.42887  0.00469  0.32682  1.0000
  F   F246      1.0  0.43460  0.00932  0.82944  1.0000
  F   F247      1.0  0.42836  0.51985  0.32965  1.0000
  F   F248      1.0  0.42331  0.50987  0.84411  1.0000
  F   F249      1.0  0.68259  0.01788  0.32695  1.0000
  F   F250      1.0  0.68160  0.00195  0.83380  1.0000
  F   F251      1.0  0.67703  0.52201  0.32933  1.0000
  F   F252      1.0  0.68418  0.51289  0.81498  1.0000
  F   F253      1.0  0.92379  0.01462  0.33007  1.0000
  F   F254      1.0  0.93069  0.01427  0.81951  1.0000
  F   F255      1.0  0.93670  0.50066  0.31551  1.0000
  F   F256      1.0  0.93792  0.51262  0.82380  1.0000
  F   F257      1.0  0.99384  0.26138  0.99128  1.0000
  F   F258      1.0  0.99674  0.23485  0.52236  1.0000
  F   F259      1.0  0.00563  0.75247  0.98168  1.0000
  F   F260      1.0  0.00853  0.77371  0.47556  1.0000
  F   F261      1.0  0.25139  0.25104  0.01348  1.0000
  F   F262      1.0  0.24779  0.24452  0.50269  1.0000
  F   F263      1.0  0.24958  0.75211  0.00028  1.0000
  F   F264      1.0  0.25436  0.76106  0.47849  1.0000
  F   F265      1.0  0.49603  0.23296  0.02689  1.0000
  F   F266      1.0  0.49828  0.23915  0.50770  1.0000
  F   F267      1.0  0.50073  0.76132  0.98938  1.0000
  F   F268      1.0  0.50310  0.76976  0.49449  1.0000
  F   F269      1.0  0.74597  0.22745  0.01841  1.0000
  F   F270      1.0  0.74305  0.23808  0.49991  1.0000
  F   F271      1.0  0.75158  0.74702  0.00626  1.0000
  F   F272      1.0  0.75293  0.76340  0.48236  1.0000
  F   F273      1.0  0.13163  0.00638  0.24536  1.0000
  F   F274      1.0  0.12596  0.00003  0.74740  1.0000
  F   F275      1.0  0.11106  0.48965  0.26607  1.0000
  F   F276      1.0  0.13159  0.50550  0.73512  1.0000
  F   F277      1.0  0.36822  0.99651  0.26260  1.0000
  F   F278      1.0  0.36443  0.98315  0.77398  1.0000
  F   F279      1.0  0.37118  0.49256  0.26347  1.0000
  F   F280      1.0  0.36833  0.49469  0.76355  1.0000
  F   F281      1.0  0.60867  0.98529  0.27546  1.0000
  F   F282      1.0  0.62741  0.00486  0.75141  1.0000
  F   F283      1.0  0.61791  0.48598  0.26630  1.0000
  F   F284      1.0  0.62494  0.50508  0.75154  1.0000
  F   F285      1.0  0.87601  0.99756  0.24414  1.0000
  F   F286      1.0  0.88021  0.00242  0.73754  1.0000
  F   F287      1.0  0.88048  0.50143  0.23539  1.0000
  F   F288      1.0  0.87735  0.49433  0.75299  1.0000
  F   F289      1.0  0.05012  0.03309  0.02225  1.0000
  F   F290      1.0  0.04607  0.03516  0.51978  1.0000
  F   F291      1.0  0.04629  0.54010  0.00561  1.0000
  F   F292      1.0  0.03416  0.53812  0.51555  1.0000
  F   F293      1.0  0.28727  0.03575  0.02988  1.0000
  F   F294      1.0  0.29165  0.02926  0.52443  1.0000
  F   F295      1.0  0.29430  0.51662  0.02263  1.0000
  F   F296      1.0  0.29579  0.52872  0.52498  1.0000
  F   F297      1.0  0.54379  0.03641  0.01776  1.0000
  F   F298      1.0  0.53581  0.04145  0.52926  1.0000
  F   F299      1.0  0.54025  0.52612  0.02481  1.0000
  F   F300      1.0  0.55120  0.52744  0.51442  1.0000
  F   F301      1.0  0.79334  0.02722  0.00796  1.0000
  F   F302      1.0  0.79851  0.01470  0.51614  1.0000
  F   F303      1.0  0.79256  0.52831  0.01963  1.0000
  F   F304      1.0  0.78858  0.53115  0.51867  1.0000
  F   F305      1.0  0.23302  0.39171  0.24579  1.0000
  F   F306      1.0  0.24081  0.40663  0.72740  1.0000
  F   F307      1.0  0.22889  0.92132  0.23180  1.0000
  F   F308      1.0  0.23366  0.91581  0.73811  1.0000
  F   F309      1.0  0.48520  0.40655  0.23867  1.0000
  F   F310      1.0  0.48690  0.42890  0.72424  1.0000
  F   F311      1.0  0.48557  0.91033  0.23408  1.0000
  F   F312      1.0  0.47705  0.91897  0.73220  1.0000
  F   F313      1.0  0.73302  0.41546  0.22305  1.0000
  F   F314      1.0  0.73864  0.42452  0.72462  1.0000
  F   F315      1.0  0.73394  0.93754  0.20598  1.0000
  F   F316      1.0  0.73508  0.90904  0.72539  1.0000
  F   F317      1.0  0.98256  0.41422  0.20468  1.0000
  F   F318      1.0  0.98853  0.40967  0.72178  1.0000
  F   F319      1.0  0.98523  0.93529  0.22493  1.0000
  F   F320      1.0  0.98975  0.92541  0.71971  1.0000
  F   F321      1.0  0.19988  0.48256  0.47437  1.0000
  F   F322      1.0  0.20915  0.47201  0.96926  1.0000
  F   F323      1.0  0.20953  0.97768  0.47886  1.0000
  F   F324      1.0  0.19163  0.97978  0.99853  1.0000
  F   F325      1.0  0.45574  0.47639  0.47898  1.0000
  F   F326      1.0  0.45878  0.46379  0.97746  1.0000
  F   F327      1.0  0.45364  0.96459  0.48314  1.0000
  F   F328      1.0  0.46626  0.96941  0.96655  1.0000
  F   F329      1.0  0.70684  0.46455  0.47630  1.0000
  F   F330      1.0  0.70579  0.47280  0.97948  1.0000
  F   F331      1.0  0.71790  0.96414  0.46720  1.0000
  F   F332      1.0  0.71033  0.96681  0.97922  1.0000
  F   F333      1.0  0.94118  0.47586  0.49658  1.0000
  F   F334      1.0  0.95823  0.46988  0.97093  1.0000
  F   F335      1.0  0.96652  0.96906  0.46758  1.0000
  F   F336      1.0  0.95138  0.97189  0.98145  1.0000
  F   F337      1.0  0.01833  0.07726  0.27259  1.0000
  F   F338      1.0  0.01620  0.07281  0.78479  1.0000
  F   F339      1.0  0.01130  0.58600  0.27278  1.0000
  F   F340      1.0  0.02258  0.58208  0.76200  1.0000
  F   F341      1.0  0.26523  0.08284  0.26103  1.0000
  F   F342      1.0  0.26127  0.08258  0.77291  1.0000
  F   F343      1.0  0.26565  0.57713  0.28721  1.0000
  F   F344      1.0  0.26164  0.58628  0.77253  1.0000
  F   F345      1.0  0.50850  0.08792  0.26746  1.0000
  F   F346      1.0  0.51469  0.09610  0.77922  1.0000
  F   F347      1.0  0.51597  0.58169  0.25944  1.0000
  F   F348      1.0  0.51598  0.58613  0.78018  1.0000
  F   F349      1.0  0.76851  0.07767  0.26440  1.0000
  F   F350      1.0  0.76681  0.08760  0.76576  1.0000
  F   F351      1.0  0.76830  0.57783  0.28070  1.0000
  F   F352      1.0  0.76723  0.58345  0.76140  1.0000
  F   F353      1.0  0.10017  0.41729  0.45886  1.0000
  F   F354      1.0  0.09976  0.40486  0.94930  1.0000
  F   F355      1.0  0.09334  0.91118  0.46640  1.0000
  F   F356      1.0  0.10492  0.91740  0.96493  1.0000
  F   F357      1.0  0.35478  0.40845  0.46162  1.0000
  F   F358      1.0  0.35245  0.38369  0.97902  1.0000
  F   F359      1.0  0.35209  0.90358  0.46514  1.0000
  F   F360      1.0  0.35331  0.91828  0.96541  1.0000
  F   F361      1.0  0.60235  0.39625  0.47533  1.0000
  F   F362      1.0  0.59393  0.40587  0.95543  1.0000
  F   F363      1.0  0.60135  0.92718  0.47569  1.0000
  F   F364      1.0  0.60162  0.90897  0.96292  1.0000
  F   F365      1.0  0.85674  0.41920  0.45648  1.0000
  F   F366      1.0  0.84669  0.39240  0.95817  1.0000
  F   F367      1.0  0.85405  0.87849  0.45929  1.0000
  F   F368      1.0  0.85468  0.90450  0.95931  1.0000
  F   F369      1.0  0.04084  0.29682  0.30043  1.0000
  F   F370      1.0  0.04566  0.29464  0.79806  1.0000
  F   F371      1.0  0.04361  0.80381  0.28735  1.0000
  F   F372      1.0  0.05055  0.79585  0.77506  1.0000
  F   F373      1.0  0.29586  0.30560  0.29552  1.0000
  F   F374      1.0  0.29782  0.28843  0.79871  1.0000
  F   F375      1.0  0.29725  0.80262  0.28585  1.0000
  F   F376      1.0  0.29834  0.79097  0.78181  1.0000
  F   F377      1.0  0.55370  0.30458  0.28297  1.0000
  F   F378      1.0  0.54211  0.30348  0.80267  1.0000
  F   F379      1.0  0.55298  0.80574  0.28558  1.0000
  F   F380      1.0  0.54395  0.78551  0.78263  1.0000
  F   F381      1.0  0.80020  0.30339  0.28761  1.0000
  F   F382      1.0  0.79217  0.31030  0.78022  1.0000
  F   F383      1.0  0.78878  0.80315  0.27763  1.0000
  F   F384      1.0  0.79914  0.79039  0.78260  1.0000
