data_image0
_chemical_formula_structural       Hf96F384
_chemical_formula_sum              "Hf96 F384"
_cell_length_a       31.0484
_cell_length_b       15.5257
_cell_length_c       15.5191
_cell_angle_alpha    63.342
_cell_angle_beta     63.342
_cell_angle_gamma    80.1625

_space_group_name_H-M_alt    "P 1"
_space_group_IT_number       1

loop_
  _space_group_symop_operation_xyz
  'x, y, z'

loop_
  _atom_site_type_symbol
  _atom_site_label
  _atom_site_symmetry_multiplicity
  _atom_site_fract_x
  _atom_site_fract_y
  _atom_site_fract_z
  _atom_site_occupancy
  Hf  Hf1       1.0  0.19588  0.10781  0.37803  1.0000
  Hf  Hf2       1.0  0.19484  0.10908  0.88138  1.0000
  Hf  Hf3       1.0  0.19948  0.60740  0.35968  1.0000
  Hf  Hf4       1.0  0.19971  0.61023  0.87003  1.0000
  Hf  Hf5       1.0  0.44827  0.10683  0.37184  1.0000
  Hf  Hf6       1.0  0.44390  0.10377  0.87221  1.0000
  Hf  Hf7       1.0  0.44773  0.60377  0.37388  1.0000
  Hf  Hf8       1.0  0.44519  0.60003  0.88867  1.0000
  Hf  Hf9       1.0  0.69276  0.10274  0.39100  1.0000
  Hf  Hf10      1.0  0.69953  0.10132  0.86428  1.0000
  Hf  Hf11      1.0  0.69550  0.60623  0.38717  1.0000
  Hf  Hf12      1.0  0.69710  0.60479  0.87021  1.0000
  Hf  Hf13      1.0  0.94714  0.11296  0.37041  1.0000
  Hf  Hf14      1.0  0.94509  0.10629  0.88891  1.0000
  Hf  Hf15      1.0  0.94381  0.61050  0.38013  1.0000
  Hf  Hf16      1.0  0.94436  0.61624  0.87217  1.0000
  Hf  Hf17      1.0  0.05273  0.39338  0.12312  1.0000
  Hf  Hf18      1.0  0.05147  0.39051  0.63201  1.0000
  Hf  Hf19      1.0  0.05316  0.88975  0.13173  1.0000
  Hf  Hf20      1.0  0.05380  0.89722  0.62314  1.0000
  Hf  Hf21      1.0  0.30808  0.38911  0.11965  1.0000
  Hf  Hf22      1.0  0.30677  0.40128  0.61166  1.0000
  Hf  Hf23      1.0  0.30552  0.88514  0.12519  1.0000
  Hf  Hf24      1.0  0.30671  0.89284  0.62683  1.0000
  Hf  Hf25      1.0  0.55595  0.39308  0.12009  1.0000
  Hf  Hf26      1.0  0.55080  0.38563  0.63029  1.0000
  Hf  Hf27      1.0  0.55254  0.89016  0.11829  1.0000
  Hf  Hf28      1.0  0.55767  0.88276  0.62774  1.0000
  Hf  Hf29      1.0  0.79899  0.39385  0.13315  1.0000
  Hf  Hf30      1.0  0.80180  0.38993  0.62518  1.0000
  Hf  Hf31      1.0  0.80465  0.89400  0.13274  1.0000
  Hf  Hf32      1.0  0.80874  0.89674  0.61356  1.0000
  Hf  Hf33      1.0  0.05500  0.17986  0.42050  1.0000
  Hf  Hf34      1.0  0.05627  0.18532  0.91657  1.0000
  Hf  Hf35      1.0  0.05665  0.67498  0.41950  1.0000
  Hf  Hf36      1.0  0.06098  0.68504  0.91269  1.0000
  Hf  Hf37      1.0  0.30517  0.17730  0.42352  1.0000
  Hf  Hf38      1.0  0.30354  0.18764  0.91323  1.0000
  Hf  Hf39      1.0  0.30641  0.68581  0.41582  1.0000
  Hf  Hf40      1.0  0.30588  0.68275  0.91687  1.0000
  Hf  Hf41      1.0  0.55513  0.18478  0.41934  1.0000
  Hf  Hf42      1.0  0.55410  0.17661  0.91620  1.0000
  Hf  Hf43      1.0  0.55564  0.68201  0.41603  1.0000
  Hf  Hf44      1.0  0.55584  0.67929  0.92174  1.0000
  Hf  Hf45      1.0  0.80397  0.18653  0.41853  1.0000
  Hf  Hf46      1.0  0.80399  0.17746  0.91908  1.0000
  Hf  Hf47      1.0  0.80833  0.68354  0.41800  1.0000
  Hf  Hf48      1.0  0.80581  0.69291  0.91149  1.0000
  Hf  Hf49      1.0  0.16531  0.38745  0.33370  1.0000
  Hf  Hf50      1.0  0.16025  0.39134  0.82511  1.0000
  Hf  Hf51      1.0  0.15798  0.88456  0.33434  1.0000
  Hf  Hf52      1.0  0.16182  0.90216  0.82289  1.0000
  Hf  Hf53      1.0  0.40523  0.39032  0.33583  1.0000
  Hf  Hf54      1.0  0.41074  0.38837  0.83018  1.0000
  Hf  Hf55      1.0  0.41046  0.88001  0.33648  1.0000
  Hf  Hf56      1.0  0.41168  0.88649  0.82662  1.0000
  Hf  Hf57      1.0  0.65637  0.39288  0.33396  1.0000
  Hf  Hf58      1.0  0.65893  0.38070  0.82978  1.0000
  Hf  Hf59      1.0  0.65682  0.88985  0.33272  1.0000
  Hf  Hf60      1.0  0.65699  0.88643  0.83242  1.0000
  Hf  Hf61      1.0  0.90843  0.38739  0.33862  1.0000
  Hf  Hf62      1.0  0.90557  0.38517  0.84363  1.0000
  Hf  Hf63      1.0  0.90830  0.88919  0.33540  1.0000
  Hf  Hf64      1.0  0.91080  0.89056  0.82599  1.0000
  Hf  Hf65      1.0  0.19385  0.33083  0.07617  1.0000
  Hf  Hf66      1.0  0.19329  0.32237  0.58057  1.0000
  Hf  Hf67      1.0  0.19308  0.82305  0.08129  1.0000
  Hf  Hf68      1.0  0.19583  0.82147  0.57931  1.0000
  Hf  Hf69      1.0  0.44369  0.31419  0.08536  1.0000
  Hf  Hf70      1.0  0.44615  0.31474  0.58452  1.0000
  Hf  Hf71      1.0  0.44340  0.81502  0.08386  1.0000
  Hf  Hf72      1.0  0.44420  0.81918  0.57763  1.0000
  Hf  Hf73      1.0  0.69502  0.31934  0.07334  1.0000
  Hf  Hf74      1.0  0.69274  0.32247  0.57803  1.0000
  Hf  Hf75      1.0  0.69174  0.81649  0.08830  1.0000
  Hf  Hf76      1.0  0.69797  0.81296  0.58440  1.0000
  Hf  Hf77      1.0  0.94127  0.32191  0.08071  1.0000
  Hf  Hf78      1.0  0.93753  0.30664  0.59778  1.0000
  Hf  Hf79      1.0  0.94357  0.81241  0.09341  1.0000
  Hf  Hf80      1.0  0.95010  0.81972  0.57623  1.0000
  Hf  Hf81      1.0  0.08794  0.11246  0.17537  1.0000
  Hf  Hf82      1.0  0.09441  0.12031  0.66335  1.0000
  Hf  Hf83      1.0  0.09150  0.61088  0.16935  1.0000
  Hf  Hf84      1.0  0.08655  0.61505  0.67338  1.0000
  Hf  Hf85      1.0  0.34044  0.10546  0.17307  1.0000
  Hf  Hf86      1.0  0.34372  0.11468  0.65744  1.0000
  Hf  Hf87      1.0  0.33967  0.61795  0.16276  1.0000
  Hf  Hf88      1.0  0.33824  0.61234  0.66860  1.0000
  Hf  Hf89      1.0  0.59145  0.10389  0.16322  1.0000
  Hf  Hf90      1.0  0.58940  0.10356  0.66986  1.0000
  Hf  Hf91      1.0  0.59233  0.61664  0.16137  1.0000
  Hf  Hf92      1.0  0.59349  0.60553  0.67027  1.0000
  Hf  Hf93      1.0  0.83548  0.11910  0.17135  1.0000
  Hf  Hf94      1.0  0.84071  0.11313  0.66164  1.0000
  Hf  Hf95      1.0  0.84099  0.61031  0.16324  1.0000
  Hf  Hf96      1.0  0.84018  0.61255  0.67036  1.0000
  F   F1        1.0  0.07579  0.11397  0.31511  1.0000
  F   F2        1.0  0.07947  0.13192  0.80340  1.0000
  F   F3        1.0  0.08335  0.61514  0.31011  1.0000
  F   F4        1.0  0.07958  0.62737  0.81102  1.0000
  F   F5        1.0  0.33624  0.12392  0.30766  1.0000
  F   F6        1.0  0.32874  0.12984  0.79719  1.0000
  F   F7        1.0  0.32034  0.61736  0.30619  1.0000
  F   F8        1.0  0.33057  0.63274  0.80504  1.0000
  F   F9        1.0  0.57136  0.12892  0.31754  1.0000
  F   F10       1.0  0.57291  0.12639  0.79979  1.0000
  F   F11       1.0  0.58438  0.63536  0.28826  1.0000
  F   F12       1.0  0.58465  0.61576  0.80184  1.0000
  F   F13       1.0  0.82491  0.15013  0.29576  1.0000
  F   F14       1.0  0.82991  0.13117  0.79628  1.0000
  F   F15       1.0  0.82601  0.62213  0.31020  1.0000
  F   F16       1.0  0.83230  0.63838  0.79664  1.0000
  F   F17       1.0  0.18742  0.34852  0.44320  1.0000
  F   F18       1.0  0.18715  0.35564  0.93350  1.0000
  F   F19       1.0  0.19129  0.84833  0.44197  1.0000
  F   F20       1.0  0.18579  0.84061  0.94006  1.0000
  F   F21       1.0  0.43096  0.34578  0.44803  1.0000
  F   F22       1.0  0.43455  0.33171  0.94294  1.0000
  F   F23       1.0  0.43681  0.83723  0.44635  1.0000
  F   F24       1.0  0.43553  0.83444  0.94498  1.0000
  F   F25       1.0  0.67800  0.33149  0.45156  1.0000
  F   F26       1.0  0.68735  0.35481  0.93863  1.0000
  F   F27       1.0  0.69040  0.84808  0.43485  1.0000
  F   F28       1.0  0.68012  0.82601  0.95481  1.0000
  F   F29       1.0  0.93111  0.34653  0.45763  1.0000
  F   F30       1.0  0.93395  0.34274  0.94760  1.0000
  F   F31       1.0  0.93553  0.84166  0.45021  1.0000
  F   F32       1.0  0.93483  0.82689  0.95584  1.0000
  F   F33       1.0  0.17832  0.37232  0.19492  1.0000
  F   F34       1.0  0.17782  0.38177  0.68515  1.0000
  F   F35       1.0  0.16887  0.86219  0.19714  1.0000
  F   F36       1.0  0.17750  0.88312  0.68952  1.0000
  F   F37       1.0  0.41521  0.36095  0.20158  1.0000
  F   F38       1.0  0.41713  0.36593  0.69775  1.0000
  F   F39       1.0  0.41960  0.87813  0.19267  1.0000
  F   F40       1.0  0.43257  0.87709  0.68294  1.0000
  F   F41       1.0  0.67402  0.37050  0.19855  1.0000
  F   F42       1.0  0.66297  0.34936  0.70560  1.0000
  F   F43       1.0  0.67146  0.88052  0.18991  1.0000
  F   F44       1.0  0.67150  0.86997  0.69524  1.0000
  F   F45       1.0  0.90919  0.36967  0.20376  1.0000
  F   F46       1.0  0.92072  0.37230  0.69484  1.0000
  F   F47       1.0  0.92073  0.87851  0.20248  1.0000
  F   F48       1.0  0.92364  0.87361  0.69863  1.0000
  F   F49       1.0  0.06396  0.17156  0.05464  1.0000
  F   F50       1.0  0.06909  0.17250  0.54378  1.0000
  F   F51       1.0  0.06911  0.64866  0.05027  1.0000
  F   F52       1.0  0.05801  0.66574  0.55783  1.0000
  F   F53       1.0  0.30997  0.13807  0.05102  1.0000
  F   F54       1.0  0.31091  0.14861  0.56292  1.0000
  F   F55       1.0  0.31902  0.67651  0.04782  1.0000
  F   F56       1.0  0.31588  0.66100  0.55280  1.0000
  F   F57       1.0  0.57111  0.16434  0.03816  1.0000
  F   F58       1.0  0.56075  0.15318  0.55509  1.0000
  F   F59       1.0  0.56153  0.65572  0.05519  1.0000
  F   F60       1.0  0.56732  0.66590  0.54824  1.0000
  F   F61       1.0  0.81409  0.16697  0.05072  1.0000
  F   F62       1.0  0.81220  0.14201  0.55383  1.0000
  F   F63       1.0  0.81795  0.66640  0.04202  1.0000
  F   F64       1.0  0.81417  0.66005  0.54776  1.0000
  F   F65       1.0  0.19592  0.20929  0.21946  1.0000
  F   F66       1.0  0.20276  0.21999  0.71703  1.0000
  F   F67       1.0  0.20121  0.69545  0.21719  1.0000
  F   F68       1.0  0.20760  0.70142  0.71158  1.0000
  F   F69       1.0  0.46203  0.20363  0.20303  1.0000
  F   F70       1.0  0.45223  0.19360  0.70934  1.0000
  F   F71       1.0  0.44995  0.70458  0.21479  1.0000
  F   F72       1.0  0.45265  0.71139  0.69542  1.0000
  F   F73       1.0  0.70232  0.21190  0.18666  1.0000
  F   F74       1.0  0.71435  0.19465  0.70373  1.0000
  F   F75       1.0  0.70945  0.71679  0.21827  1.0000
  F   F76       1.0  0.71003  0.69835  0.70894  1.0000
  F   F77       1.0  0.94961  0.21331  0.21569  1.0000
  F   F78       1.0  0.94912  0.19757  0.72833  1.0000
  F   F79       1.0  0.94788  0.69847  0.22705  1.0000
  F   F80       1.0  0.95733  0.69804  0.70151  1.0000
  F   F81       1.0  0.14750  0.09898  0.04121  1.0000
  F   F82       1.0  0.14414  0.08755  0.54342  1.0000
  F   F83       1.0  0.15576  0.59693  0.03331  1.0000
  F   F84       1.0  0.14294  0.60509  0.54459  1.0000
  F   F85       1.0  0.39301  0.11347  0.03361  1.0000
  F   F86       1.0  0.40123  0.10541  0.53804  1.0000
  F   F87       1.0  0.40293  0.60433  0.03290  1.0000
  F   F88       1.0  0.39248  0.58143  0.54538  1.0000
  F   F89       1.0  0.65318  0.07538  0.03558  1.0000
  F   F90       1.0  0.64398  0.08581  0.54455  1.0000
  F   F91       1.0  0.65065  0.60608  0.03567  1.0000
  F   F92       1.0  0.65078  0.57619  0.55283  1.0000
  F   F93       1.0  0.89929  0.06769  0.06280  1.0000
  F   F94       1.0  0.89715  0.09194  0.53468  1.0000
  F   F95       1.0  0.90331  0.59293  0.03911  1.0000
  F   F96       1.0  0.89691  0.58617  0.54321  1.0000
  F   F97       1.0  0.14889  0.19542  0.12715  1.0000
  F   F98       1.0  0.15474  0.20224  0.62202  1.0000
  F   F99       1.0  0.14953  0.71108  0.11220  1.0000
  F   F100      1.0  0.15406  0.70463  0.62726  1.0000
  F   F101      1.0  0.40018  0.19695  0.14219  1.0000
  F   F102      1.0  0.39242  0.21398  0.63144  1.0000
  F   F103      1.0  0.39762  0.70049  0.13304  1.0000
  F   F104      1.0  0.40247  0.70762  0.60639  1.0000
  F   F105      1.0  0.65063  0.18740  0.11185  1.0000
  F   F106      1.0  0.65506  0.19485  0.62760  1.0000
  F   F107      1.0  0.65602  0.69226  0.13479  1.0000
  F   F108      1.0  0.66052  0.70094  0.60973  1.0000
  F   F109      1.0  0.89879  0.19372  0.13670  1.0000
  F   F110      1.0  0.90053  0.19008  0.62594  1.0000
  F   F111      1.0  0.90280  0.69063  0.14401  1.0000
  F   F112      1.0  0.90146  0.69184  0.62403  1.0000
  F   F113      1.0  0.11419  0.28817  0.37427  1.0000
  F   F114      1.0  0.10041  0.29536  0.85577  1.0000
  F   F115      1.0  0.09903  0.79498  0.36878  1.0000
  F   F116      1.0  0.09899  0.81345  0.87993  1.0000
  F   F117      1.0  0.34897  0.30046  0.38773  1.0000
  F   F118      1.0  0.34956  0.29669  0.88293  1.0000
  F   F119      1.0  0.34789  0.81039  0.38183  1.0000
  F   F120      1.0  0.36068  0.79060  0.84819  1.0000
  F   F121      1.0  0.59423  0.31590  0.38038  1.0000
  F   F122      1.0  0.59514  0.30973  0.86184  1.0000
  F   F123      1.0  0.59961  0.80388  0.35246  1.0000
  F   F124      1.0  0.59614  0.80148  0.89403  1.0000
  F   F125      1.0  0.84793  0.31888  0.38422  1.0000
  F   F126      1.0  0.84566  0.30897  0.85487  1.0000
  F   F127      1.0  0.84986  0.80362  0.37476  1.0000
  F   F128      1.0  0.84809  0.81677  0.86302  1.0000
  F   F129      1.0  0.05670  0.24562  0.17550  1.0000
  F   F130      1.0  0.06346  0.25293  0.64862  1.0000
  F   F131      1.0  0.06430  0.74732  0.13687  1.0000
  F   F132      1.0  0.07014  0.75463  0.63569  1.0000
  F   F133      1.0  0.32275  0.24980  0.12315  1.0000
  F   F134      1.0  0.31225  0.25801  0.62277  1.0000
  F   F135      1.0  0.31638  0.75313  0.13865  1.0000
  F   F136      1.0  0.30619  0.73981  0.66424  1.0000
  F   F137      1.0  0.55859  0.24283  0.15650  1.0000
  F   F138      1.0  0.56353  0.24423  0.64180  1.0000
  F   F139      1.0  0.58180  0.76212  0.10300  1.0000
  F   F140      1.0  0.57098  0.74585  0.65188  1.0000
  F   F141      1.0  0.80538  0.25453  0.14889  1.0000
  F   F142      1.0  0.81108  0.24856  0.64389  1.0000
  F   F143      1.0  0.81931  0.73742  0.14166  1.0000
  F   F144      1.0  0.81839  0.75770  0.61541  1.0000
  F   F145      1.0  0.12392  0.36329  0.11736  1.0000
  F   F146      1.0  0.12090  0.36140  0.61592  1.0000
  F   F147      1.0  0.12650  0.87676  0.10715  1.0000
  F   F148      1.0  0.12715  0.88279  0.60072  1.0000
  F   F149      1.0  0.37756  0.39119  0.08938  1.0000
  F   F150      1.0  0.37968  0.39403  0.58471  1.0000
  F   F151      1.0  0.37740  0.87465  0.09659  1.0000
  F   F152      1.0  0.37285  0.87013  0.62150  1.0000
  F   F153      1.0  0.62249  0.35030  0.12487  1.0000
  F   F154      1.0  0.62155  0.36543  0.60187  1.0000
  F   F155      1.0  0.62145  0.86312  0.11583  1.0000
  F   F156      1.0  0.63094  0.86978  0.59160  1.0000
  F   F157      1.0  0.87099  0.37714  0.10212  1.0000
  F   F158      1.0  0.86936  0.36785  0.62721  1.0000
  F   F159      1.0  0.88023  0.88130  0.09844  1.0000
  F   F160      1.0  0.87400  0.86481  0.62662  1.0000
  F   F161      1.0  0.19297  0.24770  0.37217  1.0000
  F   F162      1.0  0.17580  0.24672  0.87644  1.0000
  F   F163      1.0  0.17483  0.74863  0.36939  1.0000
  F   F164      1.0  0.19236  0.75274  0.84077  1.0000
  F   F165      1.0  0.43550  0.25128  0.34739  1.0000
  F   F166      1.0  0.43373  0.25149  0.84728  1.0000
  F   F167      1.0  0.43843  0.74708  0.35529  1.0000
  F   F168      1.0  0.44431  0.74617  0.84645  1.0000
  F   F169      1.0  0.69022  0.24940  0.34578  1.0000
  F   F170      1.0  0.68049  0.24779  0.85453  1.0000
  F   F171      1.0  0.66896  0.73888  0.39429  1.0000
  F   F172      1.0  0.68483  0.74564  0.85155  1.0000
  F   F173      1.0  0.93245  0.25131  0.36436  1.0000
  F   F174      1.0  0.92528  0.24283  0.89195  1.0000
  F   F175      1.0  0.93299  0.75002  0.36683  1.0000
  F   F176      1.0  0.92817  0.75436  0.85712  1.0000
  F   F177      1.0  0.11965  0.11154  0.39928  1.0000
  F   F178      1.0  0.12363  0.13012  0.89849  1.0000
  F   F179      1.0  0.12786  0.62008  0.39430  1.0000
  F   F180      1.0  0.12713  0.63868  0.88056  1.0000
  F   F181      1.0  0.37448  0.12055  0.40722  1.0000
  F   F182      1.0  0.37687  0.12238  0.88960  1.0000
  F   F183      1.0  0.37749  0.62787  0.38721  1.0000
  F   F184      1.0  0.37925  0.61355  0.89430  1.0000
  F   F185      1.0  0.62758  0.15149  0.38023  1.0000
  F   F186      1.0  0.62806  0.13632  0.87326  1.0000
  F   F187      1.0  0.62507  0.61021  0.40187  1.0000
  F   F188      1.0  0.63035  0.63764  0.88292  1.0000
  F   F189      1.0  0.87544  0.14863  0.38951  1.0000
  F   F190      1.0  0.87214  0.13291  0.90042  1.0000
  F   F191      1.0  0.87361  0.63748  0.38510  1.0000
  F   F192      1.0  0.87492  0.62295  0.90437  1.0000
  F   F193      1.0  0.00524  0.37693  0.07241  1.0000
  F   F194      1.0  0.00697  0.34871  0.58967  1.0000
  F   F195      1.0  0.00898  0.85468  0.07291  1.0000
  F   F196      1.0  0.01538  0.86426  0.56392  1.0000
  F   F197      1.0  0.25925  0.35115  0.08062  1.0000
  F   F198      1.0  0.26175  0.37517  0.54720  1.0000
  F   F199      1.0  0.25842  0.85506  0.07742  1.0000
  F   F200      1.0  0.25879  0.86214  0.57402  1.0000
  F   F201      1.0  0.51281  0.36023  0.06538  1.0000
  F   F202      1.0  0.50816  0.35730  0.56989  1.0000
  F   F203      1.0  0.50640  0.85392  0.08008  1.0000
  F   F204      1.0  0.51610  0.85427  0.56746  1.0000
  F   F205      1.0  0.75354  0.38192  0.05503  1.0000
  F   F206      1.0  0.75419  0.36586  0.57820  1.0000
  F   F207      1.0  0.76061  0.86332  0.09334  1.0000
  F   F208      1.0  0.75970  0.86235  0.57657  1.0000
  F   F209      1.0  0.06443  0.48325  0.17209  1.0000
  F   F210      1.0  0.06836  0.48014  0.67936  1.0000
  F   F211      1.0  0.06840  0.98945  0.16408  1.0000
  F   F212      1.0  0.06253  0.99015  0.67337  1.0000
  F   F213      1.0  0.32613  0.49539  0.16783  1.0000
  F   F214      1.0  0.31065  0.49190  0.67309  1.0000
  F   F215      1.0  0.31509  0.98425  0.17796  1.0000
  F   F216      1.0  0.31960  0.98107  0.68182  1.0000
  F   F217      1.0  0.57172  0.47953  0.16903  1.0000
  F   F218      1.0  0.56446  0.48683  0.68214  1.0000
  F   F219      1.0  0.57365  0.97706  0.15623  1.0000
  F   F220      1.0  0.57792  0.97558  0.67197  1.0000
  F   F221      1.0  0.81950  0.48013  0.17663  1.0000
  F   F222      1.0  0.80691  0.48889  0.67891  1.0000
  F   F223      1.0  0.80910  0.99681  0.17312  1.0000
  F   F224      1.0  0.81798  0.98405  0.67829  1.0000
  F   F225      1.0  0.24582  0.12816  0.42696  1.0000
  F   F226      1.0  0.24075  0.13976  0.93228  1.0000
  F   F227      1.0  0.23912  0.65902  0.39877  1.0000
  F   F228      1.0  0.24603  0.63317  0.91463  1.0000
  F   F229      1.0  0.48906  0.12063  0.43859  1.0000
  F   F230      1.0  0.48782  0.12945  0.92477  1.0000
  F   F231      1.0  0.49297  0.64209  0.43123  1.0000
  F   F232      1.0  0.49226  0.62109  0.94142  1.0000
  F   F233      1.0  0.74340  0.13923  0.42441  1.0000
  F   F234      1.0  0.74050  0.12755  0.92002  1.0000
  F   F235      1.0  0.74099  0.64823  0.42417  1.0000
  F   F236      1.0  0.74713  0.63465  0.94832  1.0000
  F   F237      1.0  0.99097  0.14421  0.42971  1.0000
  F   F238      1.0  0.98549  0.13510  0.94614  1.0000
  F   F239      1.0  0.99441  0.64716  0.42228  1.0000
  F   F240      1.0  0.99538  0.64088  0.91669  1.0000
  F   F241      1.0  0.18074  0.00834  0.33958  1.0000
  F   F242      1.0  0.18302  0.02986  0.80809  1.0000
  F   F243      1.0  0.18545  0.51137  0.31617  1.0000
  F   F244      1.0  0.17993  0.52191  0.81567  1.0000
  F   F245      1.0  0.43630  0.00583  0.31588  1.0000
  F   F246      1.0  0.43289  0.00889  0.81665  1.0000
  F   F247      1.0  0.43440  0.51380  0.32298  1.0000
  F   F248      1.0  0.43465  0.51216  0.82105  1.0000
  F   F249      1.0  0.67350  0.01899  0.33522  1.0000
  F   F250      1.0  0.67854  0.00188  0.84160  1.0000
  F   F251      1.0  0.68191  0.50312  0.33919  1.0000
  F   F252      1.0  0.67756  0.51959  0.82019  1.0000
  F   F253      1.0  0.92425  0.02234  0.33828  1.0000
  F   F254      1.0  0.92800  0.01033  0.83857  1.0000
  F   F255      1.0  0.92658  0.52422  0.32292  1.0000
  F   F256      1.0  0.92564  0.51870  0.82870  1.0000
  F   F257      1.0  0.00162  0.26695  0.00220  1.0000
  F   F258      1.0  0.99722  0.23503  0.51655  1.0000
  F   F259      1.0  0.00069  0.73131  0.00927  1.0000
  F   F260      1.0  0.00237  0.76508  0.48258  1.0000
  F   F261      1.0  0.24657  0.24984  0.99606  1.0000
  F   F262      1.0  0.25148  0.25792  0.48992  1.0000
  F   F263      1.0  0.25221  0.75528  0.98969  1.0000
  F   F264      1.0  0.25237  0.73962  0.50964  1.0000
  F   F265      1.0  0.49562  0.23160  0.00781  1.0000
  F   F266      1.0  0.49922  0.24548  0.50127  1.0000
  F   F267      1.0  0.49970  0.74835  0.99865  1.0000
  F   F268      1.0  0.50433  0.76920  0.46862  1.0000
  F   F269      1.0  0.74809  0.24823  0.99143  1.0000
  F   F270      1.0  0.75022  0.25778  0.49725  1.0000
  F   F271      1.0  0.75273  0.77278  0.98832  1.0000
  F   F272      1.0  0.75769  0.76941  0.48731  1.0000
  F   F273      1.0  0.12867  0.99961  0.24450  1.0000
  F   F274      1.0  0.12193  0.00232  0.75318  1.0000
  F   F275      1.0  0.13551  0.51634  0.22351  1.0000
  F   F276      1.0  0.11988  0.50398  0.75563  1.0000
  F   F277      1.0  0.37380  0.00010  0.25274  1.0000
  F   F278      1.0  0.37678  0.00390  0.73846  1.0000
  F   F279      1.0  0.38785  0.50939  0.22731  1.0000
  F   F280      1.0  0.37150  0.49455  0.75373  1.0000
  F   F281      1.0  0.61977  0.00012  0.25300  1.0000
  F   F282      1.0  0.62671  0.99805  0.73821  1.0000
  F   F283      1.0  0.62961  0.50675  0.25023  1.0000
  F   F284      1.0  0.62980  0.48704  0.74557  1.0000
  F   F285      1.0  0.86186  0.99208  0.27128  1.0000
  F   F286      1.0  0.87843  0.00929  0.74413  1.0000
  F   F287      1.0  0.87794  0.50476  0.24463  1.0000
  F   F288      1.0  0.87686  0.50339  0.74929  1.0000
  F   F289      1.0  0.04078  0.03300  0.02950  1.0000
  F   F290      1.0  0.03603  0.03280  0.52586  1.0000
  F   F291      1.0  0.04665  0.52773  0.01923  1.0000
  F   F292      1.0  0.03735  0.53348  0.52448  1.0000
  F   F293      1.0  0.30187  0.01143  0.00887  1.0000
  F   F294      1.0  0.29699  0.02613  0.51660  1.0000
  F   F295      1.0  0.28702  0.54995  0.03298  1.0000
  F   F296      1.0  0.28504  0.54132  0.52372  1.0000
  F   F297      1.0  0.53752  0.03565  0.02247  1.0000
  F   F298      1.0  0.54312  0.01613  0.53785  1.0000
  F   F299      1.0  0.54757  0.52544  0.02145  1.0000
  F   F300      1.0  0.53962  0.53234  0.52074  1.0000
  F   F301      1.0  0.78886  0.03181  0.02599  1.0000
  F   F302      1.0  0.80053  0.03303  0.50082  1.0000
  F   F303      1.0  0.80132  0.52123  0.02128  1.0000
  F   F304      1.0  0.79305  0.53535  0.51988  1.0000
  F   F305      1.0  0.24259  0.40683  0.22316  1.0000
  F   F306      1.0  0.23619  0.39363  0.73157  1.0000
  F   F307      1.0  0.23383  0.89761  0.22710  1.0000
  F   F308      1.0  0.23805  0.93074  0.72782  1.0000
  F   F309      1.0  0.48232  0.42088  0.21766  1.0000
  F   F310      1.0  0.48851  0.42074  0.72179  1.0000
  F   F311      1.0  0.48490  0.91221  0.23238  1.0000
  F   F312      1.0  0.48768  0.90976  0.73795  1.0000
  F   F313      1.0  0.73912  0.40721  0.24347  1.0000
  F   F314      1.0  0.73248  0.41400  0.71761  1.0000
  F   F315      1.0  0.73080  0.90381  0.24007  1.0000
  F   F316      1.0  0.73215  0.92194  0.71607  1.0000
  F   F317      1.0  0.98700  0.40017  0.24166  1.0000
  F   F318      1.0  0.98499  0.41484  0.73162  1.0000
  F   F319      1.0  0.98291  0.91713  0.24420  1.0000
  F   F320      1.0  0.98720  0.88981  0.74124  1.0000
  F   F321      1.0  0.20350  0.47336  0.48262  1.0000
  F   F322      1.0  0.20422  0.47143  0.98599  1.0000
  F   F323      1.0  0.20784  0.97409  0.47964  1.0000
  F   F324      1.0  0.20921  0.97357  0.96581  1.0000
  F   F325      1.0  0.46898  0.46715  0.46883  1.0000
  F   F326      1.0  0.46193  0.46198  0.97790  1.0000
  F   F327      1.0  0.44984  0.96978  0.47941  1.0000
  F   F328      1.0  0.45452  0.96793  0.98055  1.0000
  F   F329      1.0  0.70957  0.46902  0.48678  1.0000
  F   F330      1.0  0.69813  0.48110  0.98353  1.0000
  F   F331      1.0  0.71147  0.96715  0.47816  1.0000
  F   F332      1.0  0.71625  0.95562  0.97019  1.0000
  F   F333      1.0  0.95131  0.46854  0.48374  1.0000
  F   F334      1.0  0.95404  0.47508  0.97736  1.0000
  F   F335      1.0  0.95927  0.96563  0.47293  1.0000
  F   F336      1.0  0.96127  0.96890  0.98747  1.0000
  F   F337      1.0  0.01525  0.08460  0.26545  1.0000
  F   F338      1.0  0.01255  0.09816  0.77606  1.0000
  F   F339      1.0  0.01062  0.59696  0.28279  1.0000
  F   F340      1.0  0.01399  0.57561  0.78030  1.0000
  F   F341      1.0  0.26463  0.09915  0.27070  1.0000
  F   F342      1.0  0.26396  0.09279  0.77149  1.0000
  F   F343      1.0  0.26380  0.57662  0.27232  1.0000
  F   F344      1.0  0.26587  0.57632  0.77960  1.0000
  F   F345      1.0  0.51725  0.07465  0.28348  1.0000
  F   F346      1.0  0.51376  0.07188  0.77574  1.0000
  F   F347      1.0  0.51909  0.60151  0.26617  1.0000
  F   F348      1.0  0.51551  0.60475  0.76349  1.0000
  F   F349      1.0  0.75521  0.09410  0.27305  1.0000
  F   F350      1.0  0.76952  0.06701  0.77223  1.0000
  F   F351      1.0  0.76821  0.57672  0.27843  1.0000
  F   F352      1.0  0.76905  0.58977  0.76783  1.0000
  F   F353      1.0  0.10448  0.41441  0.44114  1.0000
  F   F354      1.0  0.10158  0.38227  0.96607  1.0000
  F   F355      1.0  0.10217  0.90032  0.45455  1.0000
  F   F356      1.0  0.10370  0.91737  0.96721  1.0000
  F   F357      1.0  0.34872  0.43444  0.44314  1.0000
  F   F358      1.0  0.34891  0.42658  0.95303  1.0000
  F   F359      1.0  0.34914  0.89931  0.47164  1.0000
  F   F360      1.0  0.35089  0.90414  0.95554  1.0000
  F   F361      1.0  0.60020  0.40954  0.45942  1.0000
  F   F362      1.0  0.59937  0.39428  0.96818  1.0000
  F   F363      1.0  0.59534  0.90615  0.46103  1.0000
  F   F364      1.0  0.60048  0.92813  0.96259  1.0000
  F   F365      1.0  0.84668  0.40098  0.47450  1.0000
  F   F366      1.0  0.84733  0.38435  0.97022  1.0000
  F   F367      1.0  0.85522  0.91303  0.46318  1.0000
  F   F368      1.0  0.85096  0.90108  0.96923  1.0000
  F   F369      1.0  0.05229  0.30726  0.30759  1.0000
  F   F370      1.0  0.03737  0.28913  0.79876  1.0000
  F   F371      1.0  0.04778  0.80574  0.28355  1.0000
  F   F372      1.0  0.05611  0.79919  0.78145  1.0000
  F   F373      1.0  0.30605  0.30182  0.27449  1.0000
  F   F374      1.0  0.30085  0.30089  0.77854  1.0000
  F   F375      1.0  0.31074  0.79115  0.27496  1.0000
  F   F376      1.0  0.29475  0.80245  0.79440  1.0000
  F   F377      1.0  0.54071  0.29888  0.29898  1.0000
  F   F378      1.0  0.54551  0.29464  0.78604  1.0000
  F   F379      1.0  0.54486  0.78407  0.28138  1.0000
  F   F380      1.0  0.54487  0.78205  0.80529  1.0000
  F   F381      1.0  0.79357  0.29791  0.30058  1.0000
  F   F382      1.0  0.78943  0.30228  0.79290  1.0000
  F   F383      1.0  0.79783  0.80135  0.28825  1.0000
  F   F384      1.0  0.78847  0.79358  0.78105  1.0000
