data_image0
_chemical_formula_structural       Hf96F384
_chemical_formula_sum              "Hf96 F384"
_cell_length_a       31.0403
_cell_length_b       15.5179
_cell_length_c       15.5109
_cell_angle_alpha    63.342
_cell_angle_beta     63.342
_cell_angle_gamma    80.1625

_space_group_name_H-M_alt    "P 1"
_space_group_IT_number       1

loop_
  _space_group_symop_operation_xyz
  'x, y, z'

loop_
  _atom_site_type_symbol
  _atom_site_label
  _atom_site_symmetry_multiplicity
  _atom_site_fract_x
  _atom_site_fract_y
  _atom_site_fract_z
  _atom_site_occupancy
  Hf  Hf1       1.0  0.19714  0.11272  0.37380  1.0000
  Hf  Hf2       1.0  0.19492  0.11224  0.87807  1.0000
  Hf  Hf3       1.0  0.19918  0.60883  0.36708  1.0000
  Hf  Hf4       1.0  0.19631  0.60515  0.87589  1.0000
  Hf  Hf5       1.0  0.44339  0.10042  0.38346  1.0000
  Hf  Hf6       1.0  0.44559  0.10443  0.87569  1.0000
  Hf  Hf7       1.0  0.44713  0.60677  0.37232  1.0000
  Hf  Hf8       1.0  0.44696  0.60282  0.87432  1.0000
  Hf  Hf9       1.0  0.69606  0.10851  0.35676  1.0000
  Hf  Hf10      1.0  0.69615  0.11745  0.87362  1.0000
  Hf  Hf11      1.0  0.69772  0.60450  0.37287  1.0000
  Hf  Hf12      1.0  0.69800  0.60541  0.87717  1.0000
  Hf  Hf13      1.0  0.94601  0.10851  0.37371  1.0000
  Hf  Hf14      1.0  0.94476  0.10846  0.88053  1.0000
  Hf  Hf15      1.0  0.94857  0.62016  0.36837  1.0000
  Hf  Hf16      1.0  0.94735  0.61149  0.87732  1.0000
  Hf  Hf17      1.0  0.05132  0.38784  0.13752  1.0000
  Hf  Hf18      1.0  0.05022  0.39201  0.62722  1.0000
  Hf  Hf19      1.0  0.05704  0.89101  0.11926  1.0000
  Hf  Hf20      1.0  0.05567  0.88400  0.62816  1.0000
  Hf  Hf21      1.0  0.30285  0.38567  0.13193  1.0000
  Hf  Hf22      1.0  0.30126  0.39013  0.63213  1.0000
  Hf  Hf23      1.0  0.30348  0.88839  0.13023  1.0000
  Hf  Hf24      1.0  0.30322  0.88711  0.62821  1.0000
  Hf  Hf25      1.0  0.55079  0.39294  0.12936  1.0000
  Hf  Hf26      1.0  0.55415  0.39218  0.62250  1.0000
  Hf  Hf27      1.0  0.55303  0.88479  0.12162  1.0000
  Hf  Hf28      1.0  0.55093  0.89891  0.62116  1.0000
  Hf  Hf29      1.0  0.80197  0.39574  0.12458  1.0000
  Hf  Hf30      1.0  0.80379  0.39669  0.62461  1.0000
  Hf  Hf31      1.0  0.80577  0.90026  0.11212  1.0000
  Hf  Hf32      1.0  0.80372  0.89226  0.62492  1.0000
  Hf  Hf33      1.0  0.05605  0.17837  0.41620  1.0000
  Hf  Hf34      1.0  0.05587  0.18808  0.91334  1.0000
  Hf  Hf35      1.0  0.05902  0.69366  0.40598  1.0000
  Hf  Hf36      1.0  0.06018  0.67676  0.91728  1.0000
  Hf  Hf37      1.0  0.30587  0.17268  0.42114  1.0000
  Hf  Hf38      1.0  0.30607  0.18625  0.91767  1.0000
  Hf  Hf39      1.0  0.30526  0.67272  0.42083  1.0000
  Hf  Hf40      1.0  0.30448  0.66863  0.92042  1.0000
  Hf  Hf41      1.0  0.55538  0.18592  0.41053  1.0000
  Hf  Hf42      1.0  0.55243  0.17723  0.92052  1.0000
  Hf  Hf43      1.0  0.55751  0.68352  0.41127  1.0000
  Hf  Hf44      1.0  0.56177  0.68507  0.90921  1.0000
  Hf  Hf45      1.0  0.80473  0.18440  0.41345  1.0000
  Hf  Hf46      1.0  0.80043  0.19575  0.91510  1.0000
  Hf  Hf47      1.0  0.80836  0.68703  0.41089  1.0000
  Hf  Hf48      1.0  0.80486  0.68090  0.91799  1.0000
  Hf  Hf49      1.0  0.15822  0.39320  0.33034  1.0000
  Hf  Hf50      1.0  0.15641  0.38295  0.84646  1.0000
  Hf  Hf51      1.0  0.15731  0.89044  0.33106  1.0000
  Hf  Hf52      1.0  0.16189  0.88694  0.83534  1.0000
  Hf  Hf53      1.0  0.40352  0.38493  0.34014  1.0000
  Hf  Hf54      1.0  0.40822  0.38120  0.84082  1.0000
  Hf  Hf55      1.0  0.40743  0.88254  0.33718  1.0000
  Hf  Hf56      1.0  0.40615  0.88671  0.83079  1.0000
  Hf  Hf57      1.0  0.65906  0.38339  0.33543  1.0000
  Hf  Hf58      1.0  0.65449  0.39053  0.83504  1.0000
  Hf  Hf59      1.0  0.65343  0.88218  0.33522  1.0000
  Hf  Hf60      1.0  0.66154  0.89226  0.83052  1.0000
  Hf  Hf61      1.0  0.90383  0.38657  0.34191  1.0000
  Hf  Hf62      1.0  0.91059  0.39170  0.82949  1.0000
  Hf  Hf63      1.0  0.90962  0.88641  0.33119  1.0000
  Hf  Hf64      1.0  0.90867  0.89674  0.82845  1.0000
  Hf  Hf65      1.0  0.19413  0.31113  0.08806  1.0000
  Hf  Hf66      1.0  0.19463  0.32511  0.58022  1.0000
  Hf  Hf67      1.0  0.19450  0.81720  0.08432  1.0000
  Hf  Hf68      1.0  0.19548  0.81802  0.58726  1.0000
  Hf  Hf69      1.0  0.44227  0.30778  0.08780  1.0000
  Hf  Hf70      1.0  0.44658  0.31999  0.57664  1.0000
  Hf  Hf71      1.0  0.44766  0.82022  0.07564  1.0000
  Hf  Hf72      1.0  0.44310  0.81095  0.58678  1.0000
  Hf  Hf73      1.0  0.69063  0.31959  0.08626  1.0000
  Hf  Hf74      1.0  0.69190  0.31776  0.58400  1.0000
  Hf  Hf75      1.0  0.69588  0.82844  0.08054  1.0000
  Hf  Hf76      1.0  0.69515  0.82402  0.57348  1.0000
  Hf  Hf77      1.0  0.94509  0.31324  0.08665  1.0000
  Hf  Hf78      1.0  0.94624  0.32825  0.57749  1.0000
  Hf  Hf79      1.0  0.94285  0.82011  0.08386  1.0000
  Hf  Hf80      1.0  0.94581  0.82407  0.57994  1.0000
  Hf  Hf81      1.0  0.09083  0.11716  0.16546  1.0000
  Hf  Hf82      1.0  0.09079  0.10170  0.67137  1.0000
  Hf  Hf83      1.0  0.08924  0.61349  0.17005  1.0000
  Hf  Hf84      1.0  0.09514  0.60828  0.66326  1.0000
  Hf  Hf85      1.0  0.34024  0.10677  0.17491  1.0000
  Hf  Hf86      1.0  0.34020  0.11088  0.67181  1.0000
  Hf  Hf87      1.0  0.34241  0.61110  0.16838  1.0000
  Hf  Hf88      1.0  0.34477  0.60944  0.66846  1.0000
  Hf  Hf89      1.0  0.58756  0.11318  0.16268  1.0000
  Hf  Hf90      1.0  0.59412  0.10886  0.66585  1.0000
  Hf  Hf91      1.0  0.59162  0.61408  0.16549  1.0000
  Hf  Hf92      1.0  0.59211  0.61412  0.65987  1.0000
  Hf  Hf93      1.0  0.84201  0.11501  0.16440  1.0000
  Hf  Hf94      1.0  0.83734  0.11484  0.67102  1.0000
  Hf  Hf95      1.0  0.84253  0.61711  0.16359  1.0000
  Hf  Hf96      1.0  0.84142  0.61528  0.67119  1.0000
  F   F1        1.0  0.08637  0.12780  0.29889  1.0000
  F   F2        1.0  0.07864  0.13191  0.80667  1.0000
  F   F3        1.0  0.08212  0.63265  0.29846  1.0000
  F   F4        1.0  0.07912  0.61342  0.81166  1.0000
  F   F5        1.0  0.33644  0.12241  0.30304  1.0000
  F   F6        1.0  0.33022  0.11300  0.81365  1.0000
  F   F7        1.0  0.32769  0.61380  0.30562  1.0000
  F   F8        1.0  0.32617  0.61319  0.80946  1.0000
  F   F9        1.0  0.57995  0.12239  0.29939  1.0000
  F   F10       1.0  0.57837  0.12169  0.81763  1.0000
  F   F11       1.0  0.57732  0.62279  0.30081  1.0000
  F   F12       1.0  0.57797  0.63161  0.80320  1.0000
  F   F13       1.0  0.82246  0.11878  0.30743  1.0000
  F   F14       1.0  0.82520  0.14788  0.79650  1.0000
  F   F15       1.0  0.83491  0.63234  0.28972  1.0000
  F   F16       1.0  0.82315  0.61790  0.81735  1.0000
  F   F17       1.0  0.18593  0.34330  0.45330  1.0000
  F   F18       1.0  0.19098  0.34617  0.94341  1.0000
  F   F19       1.0  0.19031  0.84803  0.45082  1.0000
  F   F20       1.0  0.19508  0.83869  0.93687  1.0000
  F   F21       1.0  0.43759  0.32860  0.44897  1.0000
  F   F22       1.0  0.43255  0.33609  0.95305  1.0000
  F   F23       1.0  0.43366  0.82217  0.45145  1.0000
  F   F24       1.0  0.42531  0.84377  0.96391  1.0000
  F   F25       1.0  0.68633  0.32603  0.44926  1.0000
  F   F26       1.0  0.68377  0.33714  0.94937  1.0000
  F   F27       1.0  0.68529  0.84344  0.43869  1.0000
  F   F28       1.0  0.68655  0.84950  0.94237  1.0000
  F   F29       1.0  0.93618  0.35423  0.44447  1.0000
  F   F30       1.0  0.93552  0.33964  0.94009  1.0000
  F   F31       1.0  0.93195  0.82345  0.45396  1.0000
  F   F32       1.0  0.93682  0.85417  0.94120  1.0000
  F   F33       1.0  0.17100  0.36039  0.20421  1.0000
  F   F34       1.0  0.17213  0.36808  0.70783  1.0000
  F   F35       1.0  0.16987  0.86363  0.20169  1.0000
  F   F36       1.0  0.17204  0.86922  0.70414  1.0000
  F   F37       1.0  0.42428  0.36974  0.19491  1.0000
  F   F38       1.0  0.42159  0.35332  0.70371  1.0000
  F   F39       1.0  0.42568  0.87724  0.18600  1.0000
  F   F40       1.0  0.41881  0.85897  0.70199  1.0000
  F   F41       1.0  0.67046  0.37986  0.19589  1.0000
  F   F42       1.0  0.66283  0.36165  0.70040  1.0000
  F   F43       1.0  0.68267  0.88640  0.18526  1.0000
  F   F44       1.0  0.67095  0.87031  0.69750  1.0000
  F   F45       1.0  0.91855  0.35839  0.20556  1.0000
  F   F46       1.0  0.92476  0.38719  0.68496  1.0000
  F   F47       1.0  0.91701  0.86935  0.20204  1.0000
  F   F48       1.0  0.92649  0.88313  0.68330  1.0000
  F   F49       1.0  0.07067  0.17555  0.04179  1.0000
  F   F50       1.0  0.06601  0.15781  0.55152  1.0000
  F   F51       1.0  0.05821  0.64519  0.06947  1.0000
  F   F52       1.0  0.06888  0.66828  0.54631  1.0000
  F   F53       1.0  0.31345  0.16685  0.05234  1.0000
  F   F54       1.0  0.32275  0.16376  0.55045  1.0000
  F   F55       1.0  0.32642  0.66038  0.04552  1.0000
  F   F56       1.0  0.31568  0.65036  0.55337  1.0000
  F   F57       1.0  0.56342  0.16548  0.04234  1.0000
  F   F58       1.0  0.56795  0.14694  0.55173  1.0000
  F   F59       1.0  0.57094  0.65510  0.04084  1.0000
  F   F60       1.0  0.57182  0.67291  0.52975  1.0000
  F   F61       1.0  0.81303  0.17266  0.05276  1.0000
  F   F62       1.0  0.81973  0.15914  0.54818  1.0000
  F   F63       1.0  0.81832  0.65632  0.04936  1.0000
  F   F64       1.0  0.81048  0.65178  0.56119  1.0000
  F   F65       1.0  0.20588  0.19842  0.21000  1.0000
  F   F66       1.0  0.20421  0.20241  0.72137  1.0000
  F   F67       1.0  0.20873  0.69180  0.21344  1.0000
  F   F68       1.0  0.20168  0.69676  0.71930  1.0000
  F   F69       1.0  0.44956  0.19357  0.21558  1.0000
  F   F70       1.0  0.46119  0.18060  0.70866  1.0000
  F   F71       1.0  0.45173  0.69825  0.21923  1.0000
  F   F72       1.0  0.45811  0.70054  0.70958  1.0000
  F   F73       1.0  0.70934  0.20474  0.19698  1.0000
  F   F74       1.0  0.71656  0.21148  0.70654  1.0000
  F   F75       1.0  0.70070  0.71695  0.20529  1.0000
  F   F76       1.0  0.71024  0.71671  0.69576  1.0000
  F   F77       1.0  0.95535  0.20088  0.22095  1.0000
  F   F78       1.0  0.93898  0.20857  0.70939  1.0000
  F   F79       1.0  0.95638  0.70991  0.20740  1.0000
  F   F80       1.0  0.94597  0.69822  0.72616  1.0000
  F   F81       1.0  0.15330  0.08182  0.04531  1.0000
  F   F82       1.0  0.14842  0.10981  0.54329  1.0000
  F   F83       1.0  0.14705  0.59731  0.03913  1.0000
  F   F84       1.0  0.14866  0.59056  0.54182  1.0000
  F   F85       1.0  0.39419  0.08884  0.04325  1.0000
  F   F86       1.0  0.40532  0.08025  0.54497  1.0000
  F   F87       1.0  0.40599  0.58155  0.03782  1.0000
  F   F88       1.0  0.40200  0.60505  0.53003  1.0000
  F   F89       1.0  0.64668  0.09038  0.05426  1.0000
  F   F90       1.0  0.65287  0.09482  0.53385  1.0000
  F   F91       1.0  0.65066  0.58610  0.04260  1.0000
  F   F92       1.0  0.65496  0.60448  0.52394  1.0000
  F   F93       1.0  0.90021  0.11586  0.03430  1.0000
  F   F94       1.0  0.90063  0.07983  0.51753  1.0000
  F   F95       1.0  0.90376  0.58171  0.05581  1.0000
  F   F96       1.0  0.90021  0.61246  0.53040  1.0000
  F   F97       1.0  0.15738  0.19068  0.10997  1.0000
  F   F98       1.0  0.15129  0.21007  0.63241  1.0000
  F   F99       1.0  0.15312  0.69688  0.12538  1.0000
  F   F100      1.0  0.14871  0.70821  0.62988  1.0000
  F   F101      1.0  0.40794  0.19334  0.10718  1.0000
  F   F102      1.0  0.39276  0.20858  0.63043  1.0000
  F   F103      1.0  0.40241  0.69388  0.12999  1.0000
  F   F104      1.0  0.40647  0.69349  0.63341  1.0000
  F   F105      1.0  0.65511  0.19639  0.12285  1.0000
  F   F106      1.0  0.64769  0.19596  0.64050  1.0000
  F   F107      1.0  0.64640  0.71063  0.12368  1.0000
  F   F108      1.0  0.64767  0.70335  0.63192  1.0000
  F   F109      1.0  0.89917  0.20155  0.14698  1.0000
  F   F110      1.0  0.90072  0.17630  0.60729  1.0000
  F   F111      1.0  0.90161  0.71101  0.11462  1.0000
  F   F112      1.0  0.90197  0.69628  0.63334  1.0000
  F   F113      1.0  0.09314  0.30366  0.36914  1.0000
  F   F114      1.0  0.09177  0.30575  0.88251  1.0000
  F   F115      1.0  0.09793  0.81371  0.36866  1.0000
  F   F116      1.0  0.10531  0.78564  0.88963  1.0000
  F   F117      1.0  0.34430  0.29773  0.36969  1.0000
  F   F118      1.0  0.35047  0.30665  0.87261  1.0000
  F   F119      1.0  0.35086  0.79847  0.37278  1.0000
  F   F120      1.0  0.34640  0.80797  0.86337  1.0000
  F   F121      1.0  0.59602  0.30040  0.37185  1.0000
  F   F122      1.0  0.59342  0.31531  0.88102  1.0000
  F   F123      1.0  0.60456  0.79900  0.34231  1.0000
  F   F124      1.0  0.59990  0.81129  0.88313  1.0000
  F   F125      1.0  0.84047  0.31187  0.38852  1.0000
  F   F126      1.0  0.85387  0.30771  0.84878  1.0000
  F   F127      1.0  0.85066  0.80432  0.40014  1.0000
  F   F128      1.0  0.84712  0.82313  0.86334  1.0000
  F   F129      1.0  0.05449  0.24241  0.16482  1.0000
  F   F130      1.0  0.07258  0.25336  0.63013  1.0000
  F   F131      1.0  0.06900  0.75247  0.13505  1.0000
  F   F132      1.0  0.05949  0.73511  0.66800  1.0000
  F   F133      1.0  0.32063  0.24258  0.15190  1.0000
  F   F134      1.0  0.30727  0.24601  0.66402  1.0000
  F   F135      1.0  0.31309  0.74383  0.14968  1.0000
  F   F136      1.0  0.32250  0.74401  0.64381  1.0000
  F   F137      1.0  0.56451  0.24893  0.13975  1.0000
  F   F138      1.0  0.56855  0.24188  0.64334  1.0000
  F   F139      1.0  0.55622  0.74231  0.14201  1.0000
  F   F140      1.0  0.55350  0.74636  0.65556  1.0000
  F   F141      1.0  0.81809  0.24896  0.14848  1.0000
  F   F142      1.0  0.81042  0.25505  0.64470  1.0000
  F   F143      1.0  0.81807  0.75839  0.13404  1.0000
  F   F144      1.0  0.81762  0.75027  0.64210  1.0000
  F   F145      1.0  0.12454  0.35664  0.11881  1.0000
  F   F146      1.0  0.12363  0.38133  0.60645  1.0000
  F   F147      1.0  0.12898  0.87598  0.10526  1.0000
  F   F148      1.0  0.12633  0.87082  0.61701  1.0000
  F   F149      1.0  0.37093  0.36485  0.12296  1.0000
  F   F150      1.0  0.37712  0.39657  0.59557  1.0000
  F   F151      1.0  0.37009  0.85533  0.13181  1.0000
  F   F152      1.0  0.37747  0.87182  0.59599  1.0000
  F   F153      1.0  0.62334  0.36217  0.12808  1.0000
  F   F154      1.0  0.62793  0.37701  0.58903  1.0000
  F   F155      1.0  0.62440  0.87416  0.11474  1.0000
  F   F156      1.0  0.62311  0.88189  0.59304  1.0000
  F   F157      1.0  0.87804  0.39481  0.08839  1.0000
  F   F158      1.0  0.87169  0.34231  0.63644  1.0000
  F   F159      1.0  0.87711  0.88315  0.10074  1.0000
  F   F160      1.0  0.87817  0.88442  0.59891  1.0000
  F   F161      1.0  0.18610  0.25217  0.36216  1.0000
  F   F162      1.0  0.17217  0.23793  0.89214  1.0000
  F   F163      1.0  0.18486  0.74473  0.37668  1.0000
  F   F164      1.0  0.18720  0.74580  0.86450  1.0000
  F   F165      1.0  0.42817  0.24258  0.37496  1.0000
  F   F166      1.0  0.43262  0.25078  0.85928  1.0000
  F   F167      1.0  0.44312  0.75538  0.34187  1.0000
  F   F168      1.0  0.43106  0.74433  0.86080  1.0000
  F   F169      1.0  0.68343  0.25201  0.34230  1.0000
  F   F170      1.0  0.67696  0.25499  0.86670  1.0000
  F   F171      1.0  0.68435  0.75563  0.35351  1.0000
  F   F172      1.0  0.68389  0.75366  0.85089  1.0000
  F   F173      1.0  0.93233  0.23911  0.38220  1.0000
  F   F174      1.0  0.94032  0.25330  0.84553  1.0000
  F   F175      1.0  0.94522  0.75762  0.34219  1.0000
  F   F176      1.0  0.93408  0.75564  0.86141  1.0000
  F   F177      1.0  0.12956  0.14004  0.38557  1.0000
  F   F178      1.0  0.12619  0.11698  0.90194  1.0000
  F   F179      1.0  0.12811  0.64312  0.38881  1.0000
  F   F180      1.0  0.12669  0.61259  0.90348  1.0000
  F   F181      1.0  0.37539  0.11803  0.40957  1.0000
  F   F182      1.0  0.37710  0.12966  0.89046  1.0000
  F   F183      1.0  0.37281  0.60942  0.40850  1.0000
  F   F184      1.0  0.37375  0.62175  0.89136  1.0000
  F   F185      1.0  0.62487  0.13360  0.38296  1.0000
  F   F186      1.0  0.62380  0.12513  0.90817  1.0000
  F   F187      1.0  0.63139  0.62497  0.38007  1.0000
  F   F188      1.0  0.63134  0.63511  0.87309  1.0000
  F   F189      1.0  0.87462  0.13681  0.37452  1.0000
  F   F190      1.0  0.87326  0.12257  0.91635  1.0000
  F   F191      1.0  0.87938  0.66767  0.37407  1.0000
  F   F192      1.0  0.87057  0.63157  0.90298  1.0000
  F   F193      1.0  0.01052  0.37261  0.07752  1.0000
  F   F194      1.0  0.01068  0.35502  0.57343  1.0000
  F   F195      1.0  0.01066  0.86230  0.06671  1.0000
  F   F196      1.0  0.01581  0.85212  0.57022  1.0000
  F   F197      1.0  0.25183  0.36188  0.08709  1.0000
  F   F198      1.0  0.25828  0.35252  0.57748  1.0000
  F   F199      1.0  0.25445  0.87076  0.07082  1.0000
  F   F200      1.0  0.25752  0.84444  0.58966  1.0000
  F   F201      1.0  0.50721  0.36588  0.06504  1.0000
  F   F202      1.0  0.50760  0.35595  0.57014  1.0000
  F   F203      1.0  0.51150  0.87476  0.05845  1.0000
  F   F204      1.0  0.50444  0.87264  0.56744  1.0000
  F   F205      1.0  0.75816  0.36702  0.07405  1.0000
  F   F206      1.0  0.75248  0.37222  0.56812  1.0000
  F   F207      1.0  0.76144  0.86552  0.06808  1.0000
  F   F208      1.0  0.76766  0.86725  0.54627  1.0000
  F   F209      1.0  0.06618  0.47503  0.20528  1.0000
  F   F210      1.0  0.06227  0.48929  0.67986  1.0000
  F   F211      1.0  0.07135  0.98384  0.17892  1.0000
  F   F212      1.0  0.06585  0.97617  0.68150  1.0000
  F   F213      1.0  0.31841  0.47831  0.18045  1.0000
  F   F214      1.0  0.31637  0.48541  0.68461  1.0000
  F   F215      1.0  0.31219  0.97858  0.18031  1.0000
  F   F216      1.0  0.31949  0.97760  0.67580  1.0000
  F   F217      1.0  0.56709  0.48432  0.17840  1.0000
  F   F218      1.0  0.57383  0.49278  0.66073  1.0000
  F   F219      1.0  0.56928  0.99404  0.15144  1.0000
  F   F220      1.0  0.56534  0.98435  0.67682  1.0000
  F   F221      1.0  0.82104  0.49520  0.17263  1.0000
  F   F222      1.0  0.81664  0.47919  0.68707  1.0000
  F   F223      1.0  0.82343  0.00249  0.15394  1.0000
  F   F224      1.0  0.81677  0.98383  0.67376  1.0000
  F   F225      1.0  0.24305  0.12812  0.43002  1.0000
  F   F226      1.0  0.24763  0.15663  0.90124  1.0000
  F   F227      1.0  0.24368  0.62866  0.44063  1.0000
  F   F228      1.0  0.24053  0.64136  0.92487  1.0000
  F   F229      1.0  0.49567  0.13955  0.41645  1.0000
  F   F230      1.0  0.48779  0.13571  0.92832  1.0000
  F   F231      1.0  0.49497  0.63760  0.42037  1.0000
  F   F232      1.0  0.49534  0.63860  0.91517  1.0000
  F   F233      1.0  0.73816  0.15012  0.40789  1.0000
  F   F234      1.0  0.73788  0.15823  0.92964  1.0000
  F   F235      1.0  0.74460  0.63107  0.41889  1.0000
  F   F236      1.0  0.73906  0.63426  0.94036  1.0000
  F   F237      1.0  0.99193  0.12688  0.43612  1.0000
  F   F238      1.0  0.99045  0.13763  0.93900  1.0000
  F   F239      1.0  0.99679  0.63423  0.43128  1.0000
  F   F240      1.0  0.99341  0.64818  0.93021  1.0000
  F   F241      1.0  0.17735  0.01511  0.32788  1.0000
  F   F242      1.0  0.18005  0.01715  0.80979  1.0000
  F   F243      1.0  0.18383  0.51338  0.32234  1.0000
  F   F244      1.0  0.18627  0.50749  0.82520  1.0000
  F   F245      1.0  0.43273  0.01477  0.32379  1.0000
  F   F246      1.0  0.42425  0.00872  0.83219  1.0000
  F   F247      1.0  0.42372  0.50439  0.33970  1.0000
  F   F248      1.0  0.42885  0.50652  0.82747  1.0000
  F   F249      1.0  0.67506  0.01254  0.32048  1.0000
  F   F250      1.0  0.68189  0.03015  0.80999  1.0000
  F   F251      1.0  0.68540  0.51011  0.32350  1.0000
  F   F252      1.0  0.68809  0.51510  0.82774  1.0000
  F   F253      1.0  0.93110  0.01273  0.33036  1.0000
  F   F254      1.0  0.93163  0.03141  0.81054  1.0000
  F   F255      1.0  0.92508  0.52485  0.34235  1.0000
  F   F256      1.0  0.92395  0.51446  0.83462  1.0000
  F   F257      1.0  0.00096  0.26021  0.00485  1.0000
  F   F258      1.0  0.99752  0.26379  0.48775  1.0000
  F   F259      1.0  0.00103  0.75328  0.99938  1.0000
  F   F260      1.0  0.99775  0.74671  0.50608  1.0000
  F   F261      1.0  0.25054  0.24671  0.99805  1.0000
  F   F262      1.0  0.24990  0.23829  0.51456  1.0000
  F   F263      1.0  0.25553  0.74525  0.00036  1.0000
  F   F264      1.0  0.24868  0.73919  0.50939  1.0000
  F   F265      1.0  0.49253  0.23803  0.00391  1.0000
  F   F266      1.0  0.49803  0.23731  0.51084  1.0000
  F   F267      1.0  0.50337  0.75144  0.99856  1.0000
  F   F268      1.0  0.49790  0.73885  0.50403  1.0000
  F   F269      1.0  0.75193  0.26239  0.99209  1.0000
  F   F270      1.0  0.74493  0.22454  0.51464  1.0000
  F   F271      1.0  0.74816  0.74954  0.00498  1.0000
  F   F272      1.0  0.75133  0.77177  0.47626  1.0000
  F   F273      1.0  0.13101  0.00346  0.24067  1.0000
  F   F274      1.0  0.12870  0.00077  0.74668  1.0000
  F   F275      1.0  0.12530  0.49608  0.25631  1.0000
  F   F276      1.0  0.12593  0.49703  0.75627  1.0000
  F   F277      1.0  0.37467  0.99417  0.24767  1.0000
  F   F278      1.0  0.37425  0.99054  0.75055  1.0000
  F   F279      1.0  0.37640  0.48988  0.24646  1.0000
  F   F280      1.0  0.37618  0.48883  0.74340  1.0000
  F   F281      1.0  0.61032  0.97841  0.26522  1.0000
  F   F282      1.0  0.63162  0.99867  0.74539  1.0000
  F   F283      1.0  0.62176  0.49391  0.25372  1.0000
  F   F284      1.0  0.62779  0.50786  0.74228  1.0000
  F   F285      1.0  0.88202  0.00800  0.24095  1.0000
  F   F286      1.0  0.87260  0.99985  0.75193  1.0000
  F   F287      1.0  0.88270  0.50084  0.24396  1.0000
  F   F288      1.0  0.87522  0.50034  0.74547  1.0000
  F   F289      1.0  0.04216  0.03257  0.03467  1.0000
  F   F290      1.0  0.05167  0.02920  0.51062  1.0000
  F   F291      1.0  0.04470  0.52858  0.02901  1.0000
  F   F292      1.0  0.05337  0.52694  0.51177  1.0000
  F   F293      1.0  0.29730  0.03136  0.02163  1.0000
  F   F294      1.0  0.28924  0.02935  0.53287  1.0000
  F   F295      1.0  0.29257  0.52813  0.03500  1.0000
  F   F296      1.0  0.28991  0.52078  0.53225  1.0000
  F   F297      1.0  0.53174  0.03274  0.03262  1.0000
  F   F298      1.0  0.54310  0.03104  0.51194  1.0000
  F   F299      1.0  0.55008  0.53073  0.01326  1.0000
  F   F300      1.0  0.55171  0.52503  0.51086  1.0000
  F   F301      1.0  0.78902  0.04988  0.01627  1.0000
  F   F302      1.0  0.79886  0.03909  0.51498  1.0000
  F   F303      1.0  0.79206  0.52658  0.01820  1.0000
  F   F304      1.0  0.80144  0.53238  0.49619  1.0000
  F   F305      1.0  0.23663  0.40768  0.22754  1.0000
  F   F306      1.0  0.23196  0.39110  0.74009  1.0000
  F   F307      1.0  0.23033  0.92209  0.22052  1.0000
  F   F308      1.0  0.23476  0.92380  0.71564  1.0000
  F   F309      1.0  0.48870  0.41928  0.23011  1.0000
  F   F310      1.0  0.48634  0.41129  0.71778  1.0000
  F   F311      1.0  0.48545  0.90916  0.23504  1.0000
  F   F312      1.0  0.48269  0.92093  0.72817  1.0000
  F   F313      1.0  0.73364  0.40615  0.23849  1.0000
  F   F314      1.0  0.72941  0.42465  0.72587  1.0000
  F   F315      1.0  0.74569  0.91587  0.22468  1.0000
  F   F316      1.0  0.73510  0.91828  0.72336  1.0000
  F   F317      1.0  0.97761  0.42871  0.22695  1.0000
  F   F318      1.0  0.98627  0.43209  0.71521  1.0000
  F   F319      1.0  0.98419  0.90011  0.23474  1.0000
  F   F320      1.0  0.98953  0.91866  0.71345  1.0000
  F   F321      1.0  0.21006  0.46477  0.47370  1.0000
  F   F322      1.0  0.20176  0.47047  0.98805  1.0000
  F   F323      1.0  0.21004  0.97582  0.47282  1.0000
  F   F324      1.0  0.20815  0.97650  0.96459  1.0000
  F   F325      1.0  0.46019  0.46444  0.46987  1.0000
  F   F326      1.0  0.45999  0.46725  0.97078  1.0000
  F   F327      1.0  0.46002  0.96860  0.46533  1.0000
  F   F328      1.0  0.45201  0.97034  0.98607  1.0000
  F   F329      1.0  0.70537  0.47122  0.47482  1.0000
  F   F330      1.0  0.71061  0.46247  0.98376  1.0000
  F   F331      1.0  0.70796  0.97276  0.46460  1.0000
  F   F332      1.0  0.69908  0.98020  0.98805  1.0000
  F   F333      1.0  0.95481  0.48400  0.48079  1.0000
  F   F334      1.0  0.95883  0.47535  0.97633  1.0000
  F   F335      1.0  0.96167  0.95488  0.46698  1.0000
  F   F336      1.0  0.95950  0.97990  0.97583  1.0000
  F   F337      1.0  0.01622  0.08343  0.28239  1.0000
  F   F338      1.0  0.01290  0.09882  0.76705  1.0000
  F   F339      1.0  0.01687  0.59793  0.27038  1.0000
  F   F340      1.0  0.01605  0.58477  0.77852  1.0000
  F   F341      1.0  0.26700  0.10203  0.25961  1.0000
  F   F342      1.0  0.26845  0.07301  0.76891  1.0000
  F   F343      1.0  0.26552  0.57525  0.27567  1.0000
  F   F344      1.0  0.26369  0.59968  0.76721  1.0000
  F   F345      1.0  0.51168  0.08608  0.26808  1.0000
  F   F346      1.0  0.51915  0.08519  0.78045  1.0000
  F   F347      1.0  0.51614  0.58087  0.27031  1.0000
  F   F348      1.0  0.52514  0.56552  0.77491  1.0000
  F   F349      1.0  0.76023  0.07675  0.26413  1.0000
  F   F350      1.0  0.76404  0.07413  0.79275  1.0000
  F   F351      1.0  0.76808  0.58964  0.25351  1.0000
  F   F352      1.0  0.76452  0.59833  0.76888  1.0000
  F   F353      1.0  0.10442  0.40972  0.45950  1.0000
  F   F354      1.0  0.10209  0.38670  0.97927  1.0000
  F   F355      1.0  0.10304  0.89462  0.47264  1.0000
  F   F356      1.0  0.10555  0.92190  0.96276  1.0000
  F   F357      1.0  0.34709  0.38310  0.46634  1.0000
  F   F358      1.0  0.34772  0.40388  0.96181  1.0000
  F   F359      1.0  0.34650  0.89778  0.46683  1.0000
  F   F360      1.0  0.34143  0.88827  0.97754  1.0000
  F   F361      1.0  0.59843  0.40721  0.45459  1.0000
  F   F362      1.0  0.60128  0.41356  0.96926  1.0000
  F   F363      1.0  0.59555  0.89029  0.46276  1.0000
  F   F364      1.0  0.59816  0.90214  0.97496  1.0000
  F   F365      1.0  0.85251  0.40387  0.46919  1.0000
  F   F366      1.0  0.84794  0.39974  0.95538  1.0000
  F   F367      1.0  0.85331  0.91940  0.45991  1.0000
  F   F368      1.0  0.85216  0.93136  0.95071  1.0000
  F   F369      1.0  0.03428  0.28832  0.29995  1.0000
  F   F370      1.0  0.04483  0.30418  0.78329  1.0000
  F   F371      1.0  0.04452  0.80234  0.28688  1.0000
  F   F372      1.0  0.05192  0.79984  0.79456  1.0000
  F   F373      1.0  0.29671  0.28088  0.28506  1.0000
  F   F374      1.0  0.30962  0.30041  0.78765  1.0000
  F   F375      1.0  0.28826  0.78741  0.30011  1.0000
  F   F376      1.0  0.29178  0.79086  0.78852  1.0000
  F   F377      1.0  0.54666  0.29667  0.29215  1.0000
  F   F378      1.0  0.54423  0.28928  0.78903  1.0000
  F   F379      1.0  0.54947  0.78872  0.27385  1.0000
  F   F380      1.0  0.54844  0.80525  0.77839  1.0000
  F   F381      1.0  0.80132  0.30552  0.28464  1.0000
  F   F382      1.0  0.78791  0.30721  0.78718  1.0000
  F   F383      1.0  0.80758  0.79569  0.28575  1.0000
  F   F384      1.0  0.79230  0.79127  0.78611  1.0000
