data_image0
_chemical_formula_structural       Ti96Br384
_chemical_formula_sum              "Ti96 Br384"
_cell_length_a       73.1699
_cell_length_b       47.0936
_cell_length_c       49.3635
_cell_angle_alpha    90
_cell_angle_beta     90
_cell_angle_gamma    90

_space_group_name_H-M_alt    "P 1"
_space_group_IT_number       1

loop_
  _space_group_symop_operation_xyz
  'x, y, z'

loop_
  _atom_site_type_symbol
  _atom_site_label
  _atom_site_symmetry_multiplicity
  _atom_site_fract_x
  _atom_site_fract_y
  _atom_site_fract_z
  _atom_site_occupancy
  Ti  Ti1       1.0  0.10342  0.08611  0.48692  1.0000
  Ti  Ti2       1.0  0.71851  0.68217  0.55654  1.0000
  Ti  Ti3       1.0  0.24393  0.19980  0.27662  1.0000
  Ti  Ti4       1.0  0.90297  0.13265  0.22922  1.0000
  Ti  Ti5       1.0  0.91467  0.75003  0.60796  1.0000
  Ti  Ti6       1.0  0.34746  0.40012  0.68603  1.0000
  Ti  Ti7       1.0  0.98820  0.84437  0.38500  1.0000
  Ti  Ti8       1.0  0.72283  0.48954  0.53911  1.0000
  Ti  Ti9       1.0  0.90321  0.21426  0.88079  1.0000
  Ti  Ti10      1.0  0.42937  0.27987  0.39990  1.0000
  Ti  Ti11      1.0  0.58225  0.18749  0.78834  1.0000
  Ti  Ti12      1.0  0.19855  0.87932  0.26492  1.0000
  Ti  Ti13      1.0  0.30910  0.79906  0.57587  1.0000
  Ti  Ti14      1.0  0.15125  0.00727  0.93331  1.0000
  Ti  Ti15      1.0  0.14066  0.96847  0.61876  1.0000
  Ti  Ti16      1.0  0.69185  0.86815  0.26110  1.0000
  Ti  Ti17      1.0  0.11118  0.91294  0.24383  1.0000
  Ti  Ti18      1.0  0.22864  0.25445  0.46361  1.0000
  Ti  Ti19      1.0  0.61021  0.31316  0.46435  1.0000
  Ti  Ti20      1.0  0.36592  0.84419  0.44251  1.0000
  Ti  Ti21      1.0  0.63910  0.39596  0.80967  1.0000
  Ti  Ti22      1.0  0.52495  0.30535  0.26868  1.0000
  Ti  Ti23      1.0  0.56514  0.17223  0.15087  1.0000
  Ti  Ti24      1.0  0.78968  0.19633  0.17380  1.0000
  Ti  Ti25      1.0  0.10977  0.60645  0.81136  1.0000
  Ti  Ti26      1.0  0.21556  0.04889  0.37333  1.0000
  Ti  Ti27      1.0  0.02940  0.37448  0.88260  1.0000
  Ti  Ti28      1.0  0.01198  0.27749  0.60821  1.0000
  Ti  Ti29      1.0  0.72429  0.50418  0.35566  1.0000
  Ti  Ti30      1.0  0.63363  0.99270  0.75566  1.0000
  Ti  Ti31      1.0  0.34281  0.19906  0.55348  1.0000
  Ti  Ti32      1.0  0.74513  0.15033  0.73226  1.0000
  Ti  Ti33      1.0  0.42685  0.75451  0.74476  1.0000
  Ti  Ti34      1.0  0.77331  0.07219  0.82988  1.0000
  Ti  Ti35      1.0  0.92629  0.57843  0.43255  1.0000
  Ti  Ti36      1.0  0.86060  0.10739  0.69002  1.0000
  Ti  Ti37      1.0  0.65024  0.77426  0.69955  1.0000
  Ti  Ti38      1.0  0.00699  0.04524  0.00365  1.0000
  Ti  Ti39      1.0  0.13715  0.33355  0.06620  1.0000
  Ti  Ti40      1.0  0.26549  0.35563  0.11980  1.0000
  Ti  Ti41      1.0  0.16359  0.43529  0.62614  1.0000
  Ti  Ti42      1.0  0.09018  0.45859  0.32570  1.0000
  Ti  Ti43      1.0  0.25294  0.11157  0.67404  1.0000
  Ti  Ti44      1.0  0.28904  0.70417  0.09419  1.0000
  Ti  Ti45      1.0  0.84842  0.51445  0.03332  1.0000
  Ti  Ti46      1.0  0.52875  0.78127  0.87368  1.0000
  Ti  Ti47      1.0  0.96962  0.41272  0.29883  1.0000
  Ti  Ti48      1.0  0.30204  0.59805  0.66848  1.0000
  Ti  Ti49      1.0  0.93641  0.64349  0.75962  1.0000
  Ti  Ti50      1.0  0.41977  0.73779  0.96972  1.0000
  Ti  Ti51      1.0  0.20612  0.52185  0.27049  1.0000
  Ti  Ti52      1.0  0.19017  0.66064  0.04611  1.0000
  Ti  Ti53      1.0  0.62864  0.27409  0.94450  1.0000
  Ti  Ti54      1.0  0.73054  0.50201  0.93925  1.0000
  Ti  Ti55      1.0  0.47156  0.32050  0.94550  1.0000
  Ti  Ti56      1.0  0.89455  0.08148  0.82980  1.0000
  Ti  Ti57      1.0  0.06267  0.64298  0.47901  1.0000
  Ti  Ti58      1.0  0.91020  0.25758  0.44367  1.0000
  Ti  Ti59      1.0  0.71066  0.90977  0.12652  1.0000
  Ti  Ti60      1.0  0.01280  0.73669  0.65226  1.0000
  Ti  Ti61      1.0  0.02755  0.76164  0.25479  1.0000
  Ti  Ti62      1.0  0.43047  0.94957  0.18764  1.0000
  Ti  Ti63      1.0  0.85422  0.59609  0.19842  1.0000
  Ti  Ti64      1.0  0.30854  0.07291  0.15876  1.0000
  Ti  Ti65      1.0  0.49771  0.66286  0.56309  1.0000
  Ti  Ti66      1.0  0.48168  0.70156  0.22774  1.0000
  Ti  Ti67      1.0  0.04764  0.44837  0.12604  1.0000
  Ti  Ti68      1.0  0.87090  0.34182  0.29513  1.0000
  Ti  Ti69      1.0  0.03873  0.18535  0.89319  1.0000
  Ti  Ti70      1.0  0.92593  0.74082  0.07188  1.0000
  Ti  Ti71      1.0  0.37074  0.94769  0.65881  1.0000
  Ti  Ti72      1.0  0.63255  0.02781  0.46220  1.0000
  Ti  Ti73      1.0  0.64923  0.71805  0.92767  1.0000
  Ti  Ti74      1.0  0.43065  0.09710  0.82780  1.0000
  Ti  Ti75      1.0  0.15410  0.79657  0.41218  1.0000
  Ti  Ti76      1.0  0.38494  0.95644  0.29977  1.0000
  Ti  Ti77      1.0  0.85643  0.00168  0.39979  1.0000
  Ti  Ti78      1.0  0.97802  0.98133  0.19012  1.0000
  Ti  Ti79      1.0  0.58835  0.89466  0.52617  1.0000
  Ti  Ti80      1.0  0.46908  0.52725  0.77856  1.0000
  Ti  Ti81      1.0  0.90538  0.85555  0.81610  1.0000
  Ti  Ti82      1.0  0.22767  0.96621  0.04454  1.0000
  Ti  Ti83      1.0  0.11023  0.58679  0.18148  1.0000
  Ti  Ti84      1.0  0.44268  0.21251  0.67255  1.0000
  Ti  Ti85      1.0  0.66256  0.07467  0.33327  1.0000
  Ti  Ti86      1.0  0.22192  0.86985  0.72266  1.0000
  Ti  Ti87      1.0  0.40782  0.60685  0.49104  1.0000
  Ti  Ti88      1.0  0.20276  0.21528  0.88533  1.0000
  Ti  Ti89      1.0  0.38958  0.63438  0.79982  1.0000
  Ti  Ti90      1.0  0.55008  0.97738  0.31281  1.0000
  Ti  Ti91      1.0  0.81601  0.24672  0.81001  1.0000
  Ti  Ti92      1.0  0.46066  0.05357  0.63418  1.0000
  Ti  Ti93      1.0  0.70429  0.50521  0.72784  1.0000
  Ti  Ti94      1.0  0.31859  0.09549  0.02118  1.0000
  Ti  Ti95      1.0  0.06737  0.62038  0.99162  1.0000
  Ti  Ti96      1.0  0.85711  0.41015  0.93475  1.0000
  Br  Br1       1.0  0.91202  0.63140  0.78856  1.0000
  Br  Br2       1.0  0.44147  0.77360  0.96227  1.0000
  Br  Br3       1.0  0.20674  0.54679  0.22923  1.0000
  Br  Br4       1.0  0.18291  0.67513  0.00274  1.0000
  Br  Br5       1.0  0.64328  0.29343  0.90742  1.0000
  Br  Br6       1.0  0.70755  0.53704  0.93884  1.0000
  Br  Br7       1.0  0.44912  0.35117  0.92821  1.0000
  Br  Br8       1.0  0.86583  0.10133  0.82175  1.0000
  Br  Br9       1.0  0.05045  0.63961  0.52325  1.0000
  Br  Br10      1.0  0.88168  0.27561  0.45346  1.0000
  Br  Br11      1.0  0.68748  0.94058  0.14028  1.0000
  Br  Br12      1.0  0.01633  0.77251  0.68361  1.0000
  Br  Br13      1.0  0.13017  0.11530  0.48580  1.0000
  Br  Br14      1.0  0.71935  0.67647  0.60240  1.0000
  Br  Br15      1.0  0.22178  0.23391  0.26534  1.0000
  Br  Br16      1.0  0.93348  0.12200  0.24394  1.0000
  Br  Br17      1.0  0.88743  0.73564  0.58733  1.0000
  Br  Br18      1.0  0.36063  0.36399  0.71246  1.0000
  Br  Br19      1.0  0.00522  0.88406  0.37047  1.0000
  Br  Br20      1.0  0.69442  0.46835  0.52873  1.0000
  Br  Br21      1.0  0.87971  0.21195  0.84796  1.0000
  Br  Br22      1.0  0.45100  0.24991  0.38193  1.0000
  Br  Br23      1.0  0.56124  0.19792  0.82187  1.0000
  Br  Br24      1.0  0.19274  0.87770  0.31052  1.0000
  Br  Br25      1.0  0.11258  0.04115  0.50362  1.0000
  Br  Br26      1.0  0.69078  0.70373  0.54623  1.0000
  Br  Br27      1.0  0.26474  0.22061  0.30623  1.0000
  Br  Br28      1.0  0.89027  0.15720  0.26518  1.0000
  Br  Br29      1.0  0.93835  0.71976  0.59008  1.0000
  Br  Br30      1.0  0.36831  0.40683  0.65079  1.0000
  Br  Br31      1.0  0.96897  0.86035  0.41901  1.0000
  Br  Br32      1.0  0.74616  0.46073  0.52289  1.0000
  Br  Br33      1.0  0.91383  0.26040  0.88060  1.0000
  Br  Br34      1.0  0.44593  0.31087  0.42714  1.0000
  Br  Br35      1.0  0.59070  0.13964  0.78961  1.0000
  Br  Br36      1.0  0.21261  0.92424  0.25888  1.0000
  Br  Br37      1.0  0.99892  0.78052  0.26358  1.0000
  Br  Br38      1.0  0.44268  0.94396  0.23176  1.0000
  Br  Br39      1.0  0.83810  0.55965  0.22195  1.0000
  Br  Br40      1.0  0.29529  0.05187  0.12178  1.0000
  Br  Br41      1.0  0.50144  0.70315  0.53638  1.0000
  Br  Br42      1.0  0.44980  0.70031  0.21943  1.0000
  Br  Br43      1.0  0.05201  0.45184  0.17270  1.0000
  Br  Br44      1.0  0.87785  0.30077  0.26947  1.0000
  Br  Br45      1.0  0.02337  0.15256  0.86487  1.0000
  Br  Br46      1.0  0.91991  0.69444  0.09015  1.0000
  Br  Br47      1.0  0.36968  0.96759  0.61592  1.0000
  Br  Br48      1.0  0.66177  0.02853  0.44380  1.0000
  Br  Br49      1.0  0.62108  0.79600  0.69376  1.0000
  Br  Br50      1.0  0.03702  0.02842  0.00676  1.0000
  Br  Br51      1.0  0.11709  0.37229  0.07305  1.0000
  Br  Br52      1.0  0.27461  0.34504  0.16374  1.0000
  Br  Br53      1.0  0.18703  0.46433  0.61197  1.0000
  Br  Br54      1.0  0.09477  0.45785  0.37235  1.0000
  Br  Br55      1.0  0.25644  0.12625  0.71961  1.0000
  Br  Br56      1.0  0.26986  0.66645  0.10015  1.0000
  Br  Br57      1.0  0.84455  0.52334  0.07965  1.0000
  Br  Br58      1.0  0.54796  0.80155  0.90683  1.0000
  Br  Br59      1.0  0.94724  0.44571  0.31252  1.0000
  Br  Br60      1.0  0.32038  0.56223  0.68826  1.0000
  Br  Br61      1.0  0.09133  0.08099  0.44289  1.0000
  Br  Br62      1.0  0.71662  0.63811  0.53369  1.0000
  Br  Br63      1.0  0.26056  0.18624  0.23684  1.0000
  Br  Br64      1.0  0.88710  0.08840  0.22568  1.0000
  Br  Br65      1.0  0.91379  0.74304  0.65473  1.0000
  Br  Br66      1.0  0.34598  0.44114  0.71262  1.0000
  Br  Br67      1.0  0.00990  0.81420  0.40483  1.0000
  Br  Br68      1.0  0.72302  0.48990  0.58582  1.0000
  Br  Br69      1.0  0.92444  0.18172  0.86278  1.0000
  Br  Br70      1.0  0.40730  0.25616  0.42699  1.0000
  Br  Br71      1.0  0.60894  0.21040  0.79997  1.0000
  Br  Br72      1.0  0.17195  0.87787  0.24032  1.0000
  Br  Br73      1.0  0.63728  0.07203  0.36435  1.0000
  Br  Br74      1.0  0.21669  0.90763  0.75354  1.0000
  Br  Br75      1.0  0.39929  0.56192  0.47277  1.0000
  Br  Br76      1.0  0.22587  0.20584  0.85409  1.0000
  Br  Br77      1.0  0.37933  0.67501  0.82330  1.0000
  Br  Br78      1.0  0.57675  0.95074  0.30989  1.0000
  Br  Br79      1.0  0.80609  0.20008  0.80244  1.0000
  Br  Br80      1.0  0.48086  0.01671  0.62366  1.0000
  Br  Br81      1.0  0.70853  0.54008  0.76053  1.0000
  Br  Br82      1.0  0.34829  0.08354  0.01191  1.0000
  Br  Br83      1.0  0.06569  0.57177  0.99727  1.0000
  Br  Br84      1.0  0.88553  0.40628  0.95654  1.0000
  Br  Br85      1.0  0.34138  0.80987  0.57520  1.0000
  Br  Br86      1.0  0.12482  0.98532  0.94946  1.0000
  Br  Br87      1.0  0.12829  0.95076  0.57861  1.0000
  Br  Br88      1.0  0.69658  0.89352  0.22127  1.0000
  Br  Br89      1.0  0.11816  0.87557  0.27282  1.0000
  Br  Br90      1.0  0.20815  0.27777  0.43625  1.0000
  Br  Br91      1.0  0.58461  0.28278  0.47127  1.0000
  Br  Br92      1.0  0.37941  0.82428  0.48213  1.0000
  Br  Br93      1.0  0.62167  0.38519  0.84889  1.0000
  Br  Br94      1.0  0.53419  0.34160  0.23920  1.0000
  Br  Br95      1.0  0.55107  0.15076  0.18910  1.0000
  Br  Br96      1.0  0.80959  0.17617  0.20633  1.0000
  Br  Br97      1.0  0.02012  0.71736  0.23865  1.0000
  Br  Br98      1.0  0.41924  0.90412  0.17592  1.0000
  Br  Br99      1.0  0.86209  0.58004  0.15494  1.0000
  Br  Br100     1.0  0.32737  0.03726  0.17767  1.0000
  Br  Br101     1.0  0.51634  0.62713  0.54659  1.0000
  Br  Br102     1.0  0.48381  0.66399  0.25820  1.0000
  Br  Br103     1.0  0.01600  0.44353  0.11803  1.0000
  Br  Br104     1.0  0.88650  0.34297  0.33519  1.0000
  Br  Br105     1.0  0.01470  0.20587  0.91906  1.0000
  Br  Br106     1.0  0.89796  0.76019  0.05420  1.0000
  Br  Br107     1.0  0.34811  0.97164  0.68617  1.0000
  Br  Br108     1.0  0.62685  0.07431  0.47716  1.0000
  Br  Br109     1.0  0.62407  0.73812  0.90547  1.0000
  Br  Br110     1.0  0.44535  0.05410  0.83553  1.0000
  Br  Br111     1.0  0.16343  0.84388  0.40763  1.0000
  Br  Br112     1.0  0.38173  0.91995  0.26763  1.0000
  Br  Br113     1.0  0.88037  0.97020  0.38608  1.0000
  Br  Br114     1.0  0.98072  0.94364  0.15842  1.0000
  Br  Br115     1.0  0.61460  0.87031  0.50990  1.0000
  Br  Br116     1.0  0.46015  0.54560  0.73638  1.0000
  Br  Br117     1.0  0.90424  0.86292  0.76931  1.0000
  Br  Br118     1.0  0.20120  0.93864  0.04703  1.0000
  Br  Br119     1.0  0.13800  0.57327  0.16357  1.0000
  Br  Br120     1.0  0.42830  0.20053  0.71432  1.0000
  Br  Br121     1.0  0.67190  0.79601  0.67259  1.0000
  Br  Br122     1.0  0.98600  0.00979  0.99337  1.0000
  Br  Br123     1.0  0.15106  0.31188  0.10303  1.0000
  Br  Br124     1.0  0.23298  0.35538  0.11581  1.0000
  Br  Br125     1.0  0.14048  0.43641  0.59381  1.0000
  Br  Br126     1.0  0.10631  0.41941  0.31167  1.0000
  Br  Br127     1.0  0.22273  0.09491  0.67180  1.0000
  Br  Br128     1.0  0.28682  0.73639  0.13004  1.0000
  Br  Br129     1.0  0.85186  0.46829  0.02185  1.0000
  Br  Br130     1.0  0.54028  0.73910  0.85562  1.0000
  Br  Br131     1.0  0.95549  0.38376  0.26590  1.0000
  Br  Br132     1.0  0.31624  0.61834  0.63119  1.0000
  Br  Br133     1.0  0.63966  0.67668  0.95238  1.0000
  Br  Br134     1.0  0.42142  0.11141  0.87092  1.0000
  Br  Br135     1.0  0.16333  0.77650  0.45459  1.0000
  Br  Br136     1.0  0.35537  0.97522  0.31375  1.0000
  Br  Br137     1.0  0.83628  0.97463  0.42473  1.0000
  Br  Br138     1.0  0.94797  0.99658  0.18820  1.0000
  Br  Br139     1.0  0.59598  0.94272  0.53027  1.0000
  Br  Br140     1.0  0.49514  0.55002  0.79635  1.0000
  Br  Br141     1.0  0.87987  0.87557  0.83862  1.0000
  Br  Br142     1.0  0.22969  0.98984  0.00220  1.0000
  Br  Br143     1.0  0.09466  0.60200  0.14049  1.0000
  Br  Br144     1.0  0.42473  0.19695  0.63628  1.0000
  Br  Br145     1.0  0.65129  0.07573  0.28822  1.0000
  Br  Br146     1.0  0.25062  0.85020  0.73119  1.0000
  Br  Br147     1.0  0.38710  0.63857  0.47024  1.0000
  Br  Br148     1.0  0.17421  0.19716  0.87430  1.0000
  Br  Br149     1.0  0.41983  0.62914  0.81191  1.0000
  Br  Br150     1.0  0.55450  0.01215  0.34750  1.0000
  Br  Br151     1.0  0.84502  0.24979  0.78957  1.0000
  Br  Br152     1.0  0.43301  0.03680  0.65063  1.0000
  Br  Br153     1.0  0.71384  0.52077  0.68414  1.0000
  Br  Br154     1.0  0.30992  0.13194  0.99105  1.0000
  Br  Br155     1.0  0.07189  0.62627  0.94535  1.0000
  Br  Br156     1.0  0.86082  0.38555  0.89401  1.0000
  Br  Br157     1.0  0.29640  0.80553  0.61793  1.0000
  Br  Br158     1.0  0.17293  0.97110  0.93422  1.0000
  Br  Br159     1.0  0.16861  0.94472  0.62697  1.0000
  Br  Br160     1.0  0.66032  0.87353  0.27089  1.0000
  Br  Br161     1.0  0.13536  0.91397  0.21095  1.0000
  Br  Br162     1.0  0.21504  0.22090  0.49219  1.0000
  Br  Br163     1.0  0.61029  0.33069  0.41925  1.0000
  Br  Br164     1.0  0.34148  0.81377  0.42660  1.0000
  Br  Br165     1.0  0.62497  0.38530  0.76875  1.0000
  Br  Br166     1.0  0.52503  0.26242  0.24431  1.0000
  Br  Br167     1.0  0.58853  0.14591  0.13049  1.0000
  Br  Br168     1.0  0.78434  0.24480  0.18201  1.0000
  Br  Br169     1.0  0.08284  0.10409  0.51730  1.0000
  Br  Br170     1.0  0.74151  0.70947  0.53751  1.0000
  Br  Br171     1.0  0.22919  0.16143  0.29368  1.0000
  Br  Br172     1.0  0.90478  0.15750  0.18866  1.0000
  Br  Br173     1.0  0.92024  0.79688  0.59410  1.0000
  Br  Br174     1.0  0.31810  0.38804  0.67006  1.0000
  Br  Br175     1.0  0.97164  0.82349  0.35001  1.0000
  Br  Br176     1.0  0.72212  0.53653  0.52170  1.0000
  Br  Br177     1.0  0.89077  0.19799  0.92163  1.0000
  Br  Br178     1.0  0.41557  0.31115  0.36858  1.0000
  Br  Br179     1.0  0.57479  0.20118  0.74234  1.0000
  Br  Br180     1.0  0.22078  0.84616  0.24942  1.0000
  Br  Br181     1.0  0.92644  0.67217  0.72382  1.0000
  Br  Br182     1.0  0.39443  0.74400  0.94202  1.0000
  Br  Br183     1.0  0.18351  0.48898  0.26565  1.0000
  Br  Br184     1.0  0.21234  0.69235  0.06460  1.0000
  Br  Br185     1.0  0.62825  0.22340  0.94538  1.0000
  Br  Br186     1.0  0.75641  0.52041  0.91714  1.0000
  Br  Br187     1.0  0.50041  0.34273  0.94157  1.0000
  Br  Br188     1.0  0.90064  0.03932  0.80555  1.0000
  Br  Br189     1.0  0.05557  0.60073  0.45473  1.0000
  Br  Br190     1.0  0.92993  0.28979  0.42068  1.0000
  Br  Br191     1.0  0.73409  0.92290  0.15557  1.0000
  Br  Br192     1.0  0.99019  0.74903  0.62213  1.0000
  Br  Br193     1.0  0.94892  0.60336  0.73705  1.0000
  Br  Br194     1.0  0.41065  0.73212  0.01501  1.0000
  Br  Br195     1.0  0.19854  0.55330  0.30531  1.0000
  Br  Br196     1.0  0.20063  0.61404  0.04703  1.0000
  Br  Br197     1.0  0.59824  0.28967  0.94471  1.0000
  Br  Br198     1.0  0.71932  0.46416  0.91326  1.0000
  Br  Br199     1.0  0.47263  0.27950  0.91652  1.0000
  Br  Br200     1.0  0.89347  0.07382  0.87714  1.0000
  Br  Br201     1.0  0.09380  0.65195  0.48088  1.0000
  Br  Br202     1.0  0.90438  0.22315  0.40992  1.0000
  Br  Br203     1.0  0.71704  0.92496  0.08064  1.0000
  Br  Br204     1.0  0.00460  0.69351  0.67357  1.0000
  Br  Br205     1.0  0.11308  0.56018  0.79269  1.0000
  Br  Br206     1.0  0.20453  0.03616  0.41673  1.0000
  Br  Br207     1.0  0.03350  0.33868  0.91565  1.0000
  Br  Br208     1.0  0.02354  0.28391  0.56432  1.0000
  Br  Br209     1.0  0.71142  0.52064  0.31512  1.0000
  Br  Br210     1.0  0.65029  0.99634  0.79687  1.0000
  Br  Br211     1.0  0.31151  0.19502  0.56264  1.0000
  Br  Br212     1.0  0.76419  0.18822  0.71882  1.0000
  Br  Br213     1.0  0.43839  0.77863  0.70732  1.0000
  Br  Br214     1.0  0.76996  0.11601  0.85131  1.0000
  Br  Br215     1.0  0.92007  0.53169  0.41836  1.0000
  Br  Br216     1.0  0.86770  0.15194  0.66942  1.0000
  Br  Br217     1.0  0.04729  0.75289  0.29262  1.0000
  Br  Br218     1.0  0.45621  0.95813  0.16057  1.0000
  Br  Br219     1.0  0.87750  0.61162  0.22831  1.0000
  Br  Br220     1.0  0.28575  0.08702  0.18982  1.0000
  Br  Br221     1.0  0.46646  0.65145  0.56212  1.0000
  Br  Br222     1.0  0.49199  0.74253  0.24887  1.0000
  Br  Br223     1.0  0.06734  0.41304  0.10736  1.0000
  Br  Br224     1.0  0.84102  0.33845  0.30857  1.0000
  Br  Br225     1.0  0.05270  0.21900  0.86640  1.0000
  Br  Br226     1.0  0.94610  0.73887  0.03720  1.0000
  Br  Br227     1.0  0.40043  0.95596  0.67454  1.0000
  Br  Br228     1.0  0.62948  0.99525  0.49803  1.0000
  Br  Br229     1.0  0.08285  0.62865  0.79920  1.0000
  Br  Br230     1.0  0.19144  0.04592  0.34285  1.0000
  Br  Br231     1.0  0.02508  0.41871  0.90482  1.0000
  Br  Br232     1.0  0.02385  0.31408  0.63451  1.0000
  Br  Br233     1.0  0.70477  0.50900  0.39183  1.0000
  Br  Br234     1.0  0.60819  0.96632  0.76662  1.0000
  Br  Br235     1.0  0.35078  0.24581  0.54399  1.0000
  Br  Br236     1.0  0.76029  0.10884  0.71820  1.0000
  Br  Br237     1.0  0.44918  0.71964  0.75532  1.0000
  Br  Br238     1.0  0.80327  0.06281  0.81597  1.0000
  Br  Br239     1.0  0.95492  0.59156  0.41437  1.0000
  Br  Br240     1.0  0.85117  0.07883  0.65320  1.0000
  Br  Br241     1.0  0.96104  0.66574  0.78153  1.0000
  Br  Br242     1.0  0.43324  0.69237  0.96209  1.0000
  Br  Br243     1.0  0.23462  0.50035  0.27918  1.0000
  Br  Br244     1.0  0.16309  0.66301  0.07074  1.0000
  Br  Br245     1.0  0.64288  0.28894  0.98437  1.0000
  Br  Br246     1.0  0.73780  0.48831  0.98292  1.0000
  Br  Br247     1.0  0.46547  0.31041  0.99123  1.0000
  Br  Br248     1.0  0.91673  0.11585  0.82319  1.0000
  Br  Br249     1.0  0.04785  0.68322  0.45757  1.0000
  Br  Br250     1.0  0.92229  0.23229  0.48024  1.0000
  Br  Br251     1.0  0.70216  0.86259  0.13067  1.0000
  Br  Br252     1.0  0.04126  0.73066  0.63033  1.0000
  Br  Br253     1.0  0.13432  0.63742  0.79987  1.0000
  Br  Br254     1.0  0.23925  0.01672  0.36103  1.0000
  Br  Br255     1.0  0.00223  0.36256  0.86092  1.0000
  Br  Br256     1.0  0.02321  0.23413  0.62530  1.0000
  Br  Br257     1.0  0.75074  0.53212  0.36598  1.0000
  Br  Br258     1.0  0.65368  0.97118  0.72465  1.0000
  Br  Br259     1.0  0.35106  0.16832  0.51749  1.0000
  Br  Br260     1.0  0.71786  0.15382  0.70913  1.0000
  Br  Br261     1.0  0.39789  0.73797  0.73381  1.0000
  Br  Br262     1.0  0.75254  0.06402  0.79509  1.0000
  Br  Br263     1.0  0.92354  0.58538  0.47908  1.0000
  Br  Br264     1.0  0.83781  0.10954  0.72291  1.0000
  Br  Br265     1.0  0.29265  0.82575  0.54400  1.0000
  Br  Br266     1.0  0.14297  0.01924  0.88814  1.0000
  Br  Br267     1.0  0.14645  0.01647  0.61481  1.0000
  Br  Br268     1.0  0.69663  0.82069  0.25452  1.0000
  Br  Br269     1.0  0.08326  0.90526  0.22207  1.0000
  Br  Br270     1.0  0.25024  0.23239  0.43716  1.0000
  Br  Br271     1.0  0.60992  0.35090  0.49593  1.0000
  Br  Br272     1.0  0.35451  0.88823  0.45488  1.0000
  Br  Br273     1.0  0.64582  0.44513  0.80546  1.0000
  Br  Br274     1.0  0.54627  0.30427  0.30439  1.0000
  Br  Br275     1.0  0.54231  0.18492  0.11962  1.0000
  Br  Br276     1.0  0.80043  0.19151  0.13099  1.0000
  Br  Br277     1.0  0.67972  0.11558  0.34067  1.0000
  Br  Br278     1.0  0.20072  0.83550  0.73262  1.0000
  Br  Br279     1.0  0.39839  0.60407  0.53605  1.0000
  Br  Br280     1.0  0.21220  0.19429  0.92602  1.0000
  Br  Br281     1.0  0.37419  0.59630  0.82124  1.0000
  Br  Br282     1.0  0.54600  0.00307  0.27231  1.0000
  Br  Br283     1.0  0.79602  0.27738  0.78454  1.0000
  Br  Br284     1.0  0.47263  0.08251  0.66911  1.0000
  Br  Br285     1.0  0.72101  0.46393  0.73737  1.0000
  Br  Br286     1.0  0.29734  0.05996  0.01265  1.0000
  Br  Br287     1.0  0.03967  0.64106  0.00343  1.0000
  Br  Br288     1.0  0.83485  0.38386  0.95653  1.0000
  Br  Br289     1.0  0.11036  0.60372  0.85817  1.0000
  Br  Br290     1.0  0.22461  0.09575  0.37736  1.0000
  Br  Br291     1.0  0.05434  0.37625  0.85248  1.0000
  Br  Br292     1.0  0.98018  0.27910  0.60482  1.0000
  Br  Br293     1.0  0.73260  0.45578  0.35362  1.0000
  Br  Br294     1.0  0.62477  0.03977  0.74434  1.0000
  Br  Br295     1.0  0.35611  0.18638  0.59480  1.0000
  Br  Br296     1.0  0.74246  0.14843  0.77923  1.0000
  Br  Br297     1.0  0.42451  0.79029  0.77909  1.0000
  Br  Br298     1.0  0.76741  0.03630  0.86261  1.0000
  Br  Br299     1.0  0.90563  0.60809  0.40849  1.0000
  Br  Br300     1.0  0.88529  0.08616  0.71051  1.0000
  Br  Br301     1.0  0.04195  0.78615  0.21856  1.0000
  Br  Br302     1.0  0.40728  0.98232  0.18360  1.0000
  Br  Br303     1.0  0.83586  0.63636  0.19991  1.0000
  Br  Br304     1.0  0.32667  0.11252  0.15052  1.0000
  Br  Br305     1.0  0.50780  0.67640  0.60624  1.0000
  Br  Br306     1.0  0.49929  0.68641  0.18968  1.0000
  Br  Br307     1.0  0.05522  0.49391  0.11055  1.0000
  Br  Br308     1.0  0.87471  0.38411  0.26899  1.0000
  Br  Br309     1.0  0.05829  0.16000  0.92262  1.0000
  Br  Br310     1.0  0.93916  0.77124  0.10514  1.0000
  Br  Br311     1.0  0.36456  0.89861  0.65672  1.0000
  Br  Br312     1.0  0.61183  0.01711  0.42775  1.0000
  Br  Br313     1.0  0.68228  0.03557  0.34077  1.0000
  Br  Br314     1.0  0.22022  0.88189  0.67501  1.0000
  Br  Br315     1.0  0.43911  0.61694  0.48450  1.0000
  Br  Br316     1.0  0.20307  0.26472  0.89354  1.0000
  Br  Br317     1.0  0.38414  0.63488  0.75407  1.0000
  Br  Br318     1.0  0.52517  0.94816  0.32443  1.0000
  Br  Br319     1.0  0.81691  0.25889  0.85492  1.0000
  Br  Br320     1.0  0.45676  0.08278  0.59748  1.0000
  Br  Br321     1.0  0.67346  0.49256  0.72307  1.0000
  Br  Br322     1.0  0.31424  0.11494  0.06666  1.0000
  Br  Br323     1.0  0.09329  0.63887  0.01608  1.0000
  Br  Br324     1.0  0.84812  0.45677  0.92724  1.0000
  Br  Br325     1.0  0.65121  0.72653  0.68940  1.0000
  Br  Br326     1.0  0.00306  0.08150  0.97208  1.0000
  Br  Br327     1.0  0.16164  0.34454  0.03682  1.0000
  Br  Br328     1.0  0.27518  0.32125  0.08989  1.0000
  Br  Br329     1.0  0.15398  0.45527  0.66730  1.0000
  Br  Br330     1.0  0.10117  0.50021  0.30554  1.0000
  Br  Br331     1.0  0.27311  0.07549  0.66461  1.0000
  Br  Br332     1.0  0.27863  0.72541  0.05280  1.0000
  Br  Br333     1.0  0.87517  0.53724  0.01780  1.0000
  Br  Br334     1.0  0.52279  0.81122  0.83738  1.0000
  Br  Br335     1.0  0.97772  0.38287  0.33438  1.0000
  Br  Br336     1.0  0.29424  0.63306  0.69979  1.0000
  Br  Br337     1.0  0.30204  0.75095  0.56349  1.0000
  Br  Br338     1.0  0.16035  0.04644  0.95910  1.0000
  Br  Br339     1.0  0.11958  0.96089  0.65531  1.0000
  Br  Br340     1.0  0.70941  0.88454  0.29748  1.0000
  Br  Br341     1.0  0.11142  0.95380  0.27108  1.0000
  Br  Br342     1.0  0.24134  0.29326  0.49006  1.0000
  Br  Br343     1.0  0.63730  0.28739  0.46738  1.0000
  Br  Br344     1.0  0.38948  0.84768  0.41113  1.0000
  Br  Br345     1.0  0.66746  0.37407  0.80647  1.0000
  Br  Br346     1.0  0.49558  0.31531  0.28411  1.0000
  Br  Br347     1.0  0.57873  0.21549  0.16341  1.0000
  Br  Br348     1.0  0.76081  0.17298  0.17642  1.0000
  Br  Br349     1.0  0.66607  0.74890  0.95238  1.0000
  Br  Br350     1.0  0.40361  0.08543  0.80435  1.0000
  Br  Br351     1.0  0.16567  0.77059  0.37589  1.0000
  Br  Br352     1.0  0.40220  0.99356  0.28411  1.0000
  Br  Br353     1.0  0.84184  0.02006  0.36082  1.0000
  Br  Br354     1.0  0.99770  0.01969  0.18103  1.0000
  Br  Br355     1.0  0.58081  0.87472  0.56772  1.0000
  Br  Br356     1.0  0.47995  0.48029  0.77333  1.0000
  Br  Br357     1.0  0.93035  0.88288  0.83106  1.0000
  Br  Br358     1.0  0.25348  0.93912  0.05156  1.0000
  Br  Br359     1.0  0.11415  0.62720  0.20885  1.0000
  Br  Br360     1.0  0.47157  0.19048  0.66790  1.0000
  Br  Br361     1.0  0.66211  0.78330  0.74301  1.0000
  Br  Br362     1.0  0.99863  0.06827  0.04522  1.0000
  Br  Br363     1.0  0.11959  0.30009  0.04259  1.0000
  Br  Br364     1.0  0.27176  0.40025  0.10453  1.0000
  Br  Br365     1.0  0.17477  0.38922  0.63225  1.0000
  Br  Br366     1.0  0.05789  0.45487  0.31800  1.0000
  Br  Br367     1.0  0.25690  0.15062  0.64526  1.0000
  Br  Br368     1.0  0.31965  0.68889  0.08467  1.0000
  Br  Br369     1.0  0.82364  0.53376  0.00655  1.0000
  Br  Br370     1.0  0.50134  0.77106  0.89338  1.0000
  Br  Br371     1.0  0.99703  0.43416  0.28489  1.0000
  Br  Br372     1.0  0.27667  0.57220  0.65359  1.0000
  Br  Br373     1.0  0.66701  0.70221  0.89199  1.0000
  Br  Br374     1.0  0.44841  0.13095  0.80443  1.0000
  Br  Br375     1.0  0.12235  0.79897  0.40585  1.0000
  Br  Br376     1.0  0.39812  0.93780  0.33840  1.0000
  Br  Br377     1.0  0.86685  0.03875  0.42798  1.0000
  Br  Br378     1.0  0.98439  0.96505  0.23341  1.0000
  Br  Br379     1.0  0.56704  0.88671  0.49226  1.0000
  Br  Br380     1.0  0.44575  0.52436  0.81142  1.0000
  Br  Br381     1.0  0.91077  0.80811  0.82764  1.0000
  Br  Br382     1.0  0.22663  0.00146  0.07861  1.0000
  Br  Br383     1.0  0.09533  0.54850  0.20179  1.0000
  Br  Br384     1.0  0.44304  0.26246  0.67112  1.0000
