data_image0
_chemical_formula_structural       Hf96F384
_chemical_formula_sum              "Hf96 F384"
_cell_length_a       31.0149
_cell_length_b       15.5079
_cell_length_c       15.4996
_cell_angle_alpha    63.342
_cell_angle_beta     63.342
_cell_angle_gamma    80.1625

_space_group_name_H-M_alt    "P 1"
_space_group_IT_number       1

loop_
  _space_group_symop_operation_xyz
  'x, y, z'

loop_
  _atom_site_type_symbol
  _atom_site_label
  _atom_site_symmetry_multiplicity
  _atom_site_fract_x
  _atom_site_fract_y
  _atom_site_fract_z
  _atom_site_occupancy
  Hf  Hf1       1.0  0.19490  0.10867  0.37303  1.0000
  Hf  Hf2       1.0  0.19291  0.10494  0.87891  1.0000
  Hf  Hf3       1.0  0.20082  0.60247  0.36830  1.0000
  Hf  Hf4       1.0  0.19827  0.60536  0.87637  1.0000
  Hf  Hf5       1.0  0.44358  0.10091  0.38151  1.0000
  Hf  Hf6       1.0  0.44747  0.11296  0.87084  1.0000
  Hf  Hf7       1.0  0.44584  0.60453  0.37638  1.0000
  Hf  Hf8       1.0  0.44954  0.60579  0.87333  1.0000
  Hf  Hf9       1.0  0.69623  0.10479  0.37355  1.0000
  Hf  Hf10      1.0  0.69715  0.10756  0.87779  1.0000
  Hf  Hf11      1.0  0.69480  0.61204  0.37686  1.0000
  Hf  Hf12      1.0  0.69386  0.60951  0.87715  1.0000
  Hf  Hf13      1.0  0.94504  0.10516  0.38139  1.0000
  Hf  Hf14      1.0  0.94794  0.10726  0.86762  1.0000
  Hf  Hf15      1.0  0.94436  0.60472  0.37904  1.0000
  Hf  Hf16      1.0  0.94890  0.61049  0.87066  1.0000
  Hf  Hf17      1.0  0.05283  0.38806  0.12872  1.0000
  Hf  Hf18      1.0  0.05443  0.38981  0.62611  1.0000
  Hf  Hf19      1.0  0.05515  0.89631  0.12168  1.0000
  Hf  Hf20      1.0  0.05424  0.89424  0.62593  1.0000
  Hf  Hf21      1.0  0.30358  0.38718  0.13291  1.0000
  Hf  Hf22      1.0  0.30217  0.37913  0.63196  1.0000
  Hf  Hf23      1.0  0.30272  0.89208  0.13111  1.0000
  Hf  Hf24      1.0  0.30079  0.88654  0.63601  1.0000
  Hf  Hf25      1.0  0.55216  0.39836  0.12240  1.0000
  Hf  Hf26      1.0  0.55595  0.39459  0.62509  1.0000
  Hf  Hf27      1.0  0.55460  0.89631  0.11878  1.0000
  Hf  Hf28      1.0  0.55889  0.89653  0.61512  1.0000
  Hf  Hf29      1.0  0.80085  0.39135  0.13105  1.0000
  Hf  Hf30      1.0  0.80500  0.39534  0.62445  1.0000
  Hf  Hf31      1.0  0.80356  0.89558  0.11976  1.0000
  Hf  Hf32      1.0  0.80746  0.89681  0.62060  1.0000
  Hf  Hf33      1.0  0.05607  0.17820  0.41379  1.0000
  Hf  Hf34      1.0  0.05561  0.17910  0.92039  1.0000
  Hf  Hf35      1.0  0.05606  0.67765  0.41671  1.0000
  Hf  Hf36      1.0  0.05311  0.68495  0.91687  1.0000
  Hf  Hf37      1.0  0.30358  0.17660  0.42422  1.0000
  Hf  Hf38      1.0  0.30437  0.18003  0.91997  1.0000
  Hf  Hf39      1.0  0.30251  0.67601  0.42631  1.0000
  Hf  Hf40      1.0  0.30590  0.67645  0.92409  1.0000
  Hf  Hf41      1.0  0.55591  0.18355  0.41230  1.0000
  Hf  Hf42      1.0  0.55708  0.18073  0.91295  1.0000
  Hf  Hf43      1.0  0.55525  0.67992  0.41787  1.0000
  Hf  Hf44      1.0  0.55605  0.69255  0.91339  1.0000
  Hf  Hf45      1.0  0.80720  0.18305  0.41445  1.0000
  Hf  Hf46      1.0  0.80184  0.18654  0.91833  1.0000
  Hf  Hf47      1.0  0.80694  0.68029  0.40882  1.0000
  Hf  Hf48      1.0  0.80515  0.68450  0.91745  1.0000
  Hf  Hf49      1.0  0.16018  0.38572  0.32838  1.0000
  Hf  Hf50      1.0  0.15888  0.38722  0.83889  1.0000
  Hf  Hf51      1.0  0.15822  0.88546  0.33329  1.0000
  Hf  Hf52      1.0  0.15610  0.88071  0.83671  1.0000
  Hf  Hf53      1.0  0.40891  0.38253  0.33668  1.0000
  Hf  Hf54      1.0  0.40759  0.38616  0.83537  1.0000
  Hf  Hf55      1.0  0.40577  0.88779  0.34245  1.0000
  Hf  Hf56      1.0  0.40703  0.88876  0.83436  1.0000
  Hf  Hf57      1.0  0.66082  0.39936  0.32195  1.0000
  Hf  Hf58      1.0  0.65822  0.39328  0.83032  1.0000
  Hf  Hf59      1.0  0.66101  0.89122  0.32952  1.0000
  Hf  Hf60      1.0  0.66340  0.89502  0.81879  1.0000
  Hf  Hf61      1.0  0.90766  0.39305  0.33086  1.0000
  Hf  Hf62      1.0  0.90987  0.38490  0.83548  1.0000
  Hf  Hf63      1.0  0.90623  0.88710  0.33682  1.0000
  Hf  Hf64      1.0  0.90990  0.89275  0.82614  1.0000
  Hf  Hf65      1.0  0.19511  0.31762  0.08201  1.0000
  Hf  Hf66      1.0  0.19309  0.32180  0.58792  1.0000
  Hf  Hf67      1.0  0.19664  0.82480  0.07539  1.0000
  Hf  Hf68      1.0  0.19474  0.81421  0.58280  1.0000
  Hf  Hf69      1.0  0.44681  0.31697  0.08212  1.0000
  Hf  Hf70      1.0  0.44455  0.31297  0.58368  1.0000
  Hf  Hf71      1.0  0.44343  0.81869  0.08944  1.0000
  Hf  Hf72      1.0  0.44520  0.81989  0.58605  1.0000
  Hf  Hf73      1.0  0.68862  0.31617  0.08964  1.0000
  Hf  Hf74      1.0  0.69594  0.32302  0.57978  1.0000
  Hf  Hf75      1.0  0.69214  0.81826  0.08063  1.0000
  Hf  Hf76      1.0  0.69809  0.81829  0.57655  1.0000
  Hf  Hf77      1.0  0.94419  0.31304  0.08511  1.0000
  Hf  Hf78      1.0  0.94535  0.32391  0.57609  1.0000
  Hf  Hf79      1.0  0.94429  0.82233  0.08431  1.0000
  Hf  Hf80      1.0  0.94457  0.81198  0.58487  1.0000
  Hf  Hf81      1.0  0.09094  0.10836  0.16545  1.0000
  Hf  Hf82      1.0  0.09297  0.11083  0.66200  1.0000
  Hf  Hf83      1.0  0.09107  0.61842  0.16339  1.0000
  Hf  Hf84      1.0  0.09159  0.60782  0.67076  1.0000
  Hf  Hf85      1.0  0.34169  0.11431  0.16836  1.0000
  Hf  Hf86      1.0  0.33982  0.10614  0.66889  1.0000
  Hf  Hf87      1.0  0.34272  0.61115  0.16878  1.0000
  Hf  Hf88      1.0  0.34040  0.61390  0.66649  1.0000
  Hf  Hf89      1.0  0.58851  0.10980  0.16959  1.0000
  Hf  Hf90      1.0  0.59244  0.11163  0.66088  1.0000
  Hf  Hf91      1.0  0.58922  0.61199  0.16524  1.0000
  Hf  Hf92      1.0  0.59224  0.61091  0.66630  1.0000
  Hf  Hf93      1.0  0.84035  0.10841  0.16481  1.0000
  Hf  Hf94      1.0  0.84508  0.12140  0.65977  1.0000
  Hf  Hf95      1.0  0.84062  0.61883  0.16073  1.0000
  Hf  Hf96      1.0  0.83841  0.61008  0.66946  1.0000
  F   F1        1.0  0.07807  0.11102  0.30732  1.0000
  F   F2        1.0  0.07528  0.10573  0.82930  1.0000
  F   F3        1.0  0.08088  0.62602  0.30376  1.0000
  F   F4        1.0  0.07392  0.62422  0.81173  1.0000
  F   F5        1.0  0.32743  0.12180  0.31607  1.0000
  F   F6        1.0  0.32528  0.12403  0.80778  1.0000
  F   F7        1.0  0.32677  0.63560  0.29890  1.0000
  F   F8        1.0  0.33027  0.61882  0.81348  1.0000
  F   F9        1.0  0.57373  0.11691  0.31218  1.0000
  F   F10       1.0  0.58287  0.14805  0.78771  1.0000
  F   F11       1.0  0.57313  0.60785  0.31943  1.0000
  F   F12       1.0  0.58427  0.63664  0.79227  1.0000
  F   F13       1.0  0.82890  0.14163  0.29736  1.0000
  F   F14       1.0  0.83101  0.14528  0.79788  1.0000
  F   F15       1.0  0.82604  0.62375  0.29899  1.0000
  F   F16       1.0  0.83036  0.62077  0.80750  1.0000
  F   F17       1.0  0.19044  0.34674  0.44293  1.0000
  F   F18       1.0  0.18148  0.33680  0.95636  1.0000
  F   F19       1.0  0.18284  0.83934  0.44876  1.0000
  F   F20       1.0  0.18096  0.84351  0.94402  1.0000
  F   F21       1.0  0.43203  0.33827  0.45221  1.0000
  F   F22       1.0  0.43674  0.33450  0.95385  1.0000
  F   F23       1.0  0.43909  0.85606  0.44177  1.0000
  F   F24       1.0  0.43270  0.83902  0.94824  1.0000
  F   F25       1.0  0.69131  0.35742  0.42369  1.0000
  F   F26       1.0  0.68556  0.35891  0.93889  1.0000
  F   F27       1.0  0.68304  0.83967  0.45247  1.0000
  F   F28       1.0  0.68487  0.83198  0.93777  1.0000
  F   F29       1.0  0.93299  0.35133  0.44406  1.0000
  F   F30       1.0  0.92928  0.33702  0.95936  1.0000
  F   F31       1.0  0.92976  0.83471  0.45530  1.0000
  F   F32       1.0  0.93551  0.84149  0.95018  1.0000
  F   F33       1.0  0.17092  0.37318  0.19468  1.0000
  F   F34       1.0  0.17138  0.38091  0.69684  1.0000
  F   F35       1.0  0.16659  0.86312  0.19764  1.0000
  F   F36       1.0  0.16732  0.85642  0.70246  1.0000
  F   F37       1.0  0.42636  0.38602  0.19338  1.0000
  F   F38       1.0  0.42178  0.36085  0.70261  1.0000
  F   F39       1.0  0.41413  0.86571  0.20878  1.0000
  F   F40       1.0  0.41995  0.87476  0.69586  1.0000
  F   F41       1.0  0.66698  0.37379  0.20194  1.0000
  F   F42       1.0  0.67214  0.37569  0.69392  1.0000
  F   F43       1.0  0.67601  0.88206  0.19039  1.0000
  F   F44       1.0  0.67417  0.88359  0.68835  1.0000
  F   F45       1.0  0.92408  0.37891  0.18972  1.0000
  F   F46       1.0  0.92804  0.38819  0.68487  1.0000
  F   F47       1.0  0.92779  0.88009  0.18418  1.0000
  F   F48       1.0  0.92009  0.87413  0.69702  1.0000
  F   F49       1.0  0.05577  0.15235  0.06474  1.0000
  F   F50       1.0  0.07164  0.16556  0.54065  1.0000
  F   F51       1.0  0.06507  0.66407  0.04852  1.0000
  F   F52       1.0  0.05387  0.65331  0.56131  1.0000
  F   F53       1.0  0.31405  0.16073  0.05899  1.0000
  F   F54       1.0  0.31492  0.14890  0.55849  1.0000
  F   F55       1.0  0.31376  0.65203  0.05634  1.0000
  F   F56       1.0  0.31194  0.65385  0.56209  1.0000
  F   F57       1.0  0.57233  0.15705  0.05164  1.0000
  F   F58       1.0  0.56339  0.16422  0.54662  1.0000
  F   F59       1.0  0.55438  0.65442  0.07005  1.0000
  F   F60       1.0  0.56776  0.64832  0.55293  1.0000
  F   F61       1.0  0.81054  0.15400  0.05141  1.0000
  F   F62       1.0  0.81089  0.14600  0.56062  1.0000
  F   F63       1.0  0.81756  0.67226  0.04182  1.0000
  F   F64       1.0  0.81055  0.65295  0.55623  1.0000
  F   F65       1.0  0.20890  0.21020  0.21818  1.0000
  F   F66       1.0  0.20096  0.20006  0.70715  1.0000
  F   F67       1.0  0.20582  0.70571  0.20256  1.0000
  F   F68       1.0  0.21063  0.69120  0.71853  1.0000
  F   F69       1.0  0.44861  0.20482  0.21592  1.0000
  F   F70       1.0  0.45708  0.20027  0.69579  1.0000
  F   F71       1.0  0.45290  0.70230  0.22149  1.0000
  F   F72       1.0  0.45701  0.70554  0.71774  1.0000
  F   F73       1.0  0.70573  0.20276  0.19547  1.0000
  F   F74       1.0  0.71276  0.20169  0.71234  1.0000
  F   F75       1.0  0.70867  0.72359  0.20132  1.0000
  F   F76       1.0  0.69220  0.70071  0.71106  1.0000
  F   F77       1.0  0.95605  0.20137  0.20500  1.0000
  F   F78       1.0  0.95309  0.20681  0.70095  1.0000
  F   F79       1.0  0.96023  0.70732  0.20149  1.0000
  F   F80       1.0  0.95569  0.69700  0.70471  1.0000
  F   F81       1.0  0.14699  0.11193  0.03322  1.0000
  F   F82       1.0  0.14972  0.08378  0.53064  1.0000
  F   F83       1.0  0.14757  0.58746  0.04654  1.0000
  F   F84       1.0  0.14695  0.59083  0.55587  1.0000
  F   F85       1.0  0.39894  0.10176  0.03742  1.0000
  F   F86       1.0  0.39586  0.07163  0.54856  1.0000
  F   F87       1.0  0.40621  0.59545  0.03685  1.0000
  F   F88       1.0  0.39849  0.59284  0.54322  1.0000
  F   F89       1.0  0.65470  0.07965  0.04743  1.0000
  F   F90       1.0  0.65019  0.09585  0.53571  1.0000
  F   F91       1.0  0.64796  0.62897  0.02900  1.0000
  F   F92       1.0  0.64882  0.59676  0.53090  1.0000
  F   F93       1.0  0.90020  0.09112  0.03774  1.0000
  F   F94       1.0  0.89946  0.08986  0.53248  1.0000
  F   F95       1.0  0.90297  0.58846  0.02476  1.0000
  F   F96       1.0  0.89743  0.57609  0.54648  1.0000
  F   F97       1.0  0.15380  0.20276  0.13967  1.0000
  F   F98       1.0  0.14980  0.19837  0.62156  1.0000
  F   F99       1.0  0.15397  0.68656  0.12574  1.0000
  F   F100      1.0  0.15092  0.69869  0.62904  1.0000
  F   F101      1.0  0.40260  0.19500  0.12184  1.0000
  F   F102      1.0  0.40003  0.18225  0.61528  1.0000
  F   F103      1.0  0.40182  0.69741  0.13470  1.0000
  F   F104      1.0  0.40650  0.70090  0.62938  1.0000
  F   F105      1.0  0.64916  0.20054  0.12005  1.0000
  F   F106      1.0  0.65779  0.19121  0.60836  1.0000
  F   F107      1.0  0.64743  0.69602  0.14075  1.0000
  F   F108      1.0  0.65643  0.68853  0.60238  1.0000
  F   F109      1.0  0.90234  0.19093  0.13193  1.0000
  F   F110      1.0  0.90301  0.19858  0.61488  1.0000
  F   F111      1.0  0.89566  0.70278  0.13963  1.0000
  F   F112      1.0  0.89740  0.69241  0.61523  1.0000
  F   F113      1.0  0.09855  0.30460  0.36436  1.0000
  F   F114      1.0  0.09762  0.29828  0.88514  1.0000
  F   F115      1.0  0.09645  0.80516  0.38279  1.0000
  F   F116      1.0  0.09850  0.80440  0.86286  1.0000
  F   F117      1.0  0.35287  0.30390  0.36639  1.0000
  F   F118      1.0  0.34796  0.30192  0.88097  1.0000
  F   F119      1.0  0.34450  0.79482  0.37931  1.0000
  F   F120      1.0  0.34936  0.79844  0.86779  1.0000
  F   F121      1.0  0.60269  0.31165  0.36983  1.0000
  F   F122      1.0  0.60189  0.30105  0.87289  1.0000
  F   F123      1.0  0.60338  0.81915  0.38685  1.0000
  F   F124      1.0  0.60111  0.81225  0.87985  1.0000
  F   F125      1.0  0.85330  0.31122  0.36419  1.0000
  F   F126      1.0  0.85500  0.29797  0.86576  1.0000
  F   F127      1.0  0.84928  0.80741  0.35811  1.0000
  F   F128      1.0  0.84995  0.80755  0.87465  1.0000
  F   F129      1.0  0.07206  0.24831  0.13419  1.0000
  F   F130      1.0  0.06308  0.24108  0.65413  1.0000
  F   F131      1.0  0.07040  0.75446  0.13198  1.0000
  F   F132      1.0  0.06713  0.75277  0.63241  1.0000
  F   F133      1.0  0.31263  0.24906  0.15109  1.0000
  F   F134      1.0  0.30583  0.24278  0.65476  1.0000
  F   F135      1.0  0.30714  0.75227  0.14516  1.0000
  F   F136      1.0  0.32036  0.75134  0.63538  1.0000
  F   F137      1.0  0.55963  0.25176  0.14932  1.0000
  F   F138      1.0  0.56914  0.25859  0.63568  1.0000
  F   F139      1.0  0.56693  0.75744  0.13727  1.0000
  F   F140      1.0  0.57235  0.75204  0.63022  1.0000
  F   F141      1.0  0.80770  0.25132  0.14788  1.0000
  F   F142      1.0  0.82058  0.25689  0.62154  1.0000
  F   F143      1.0  0.81254  0.75074  0.15036  1.0000
  F   F144      1.0  0.81217  0.75183  0.63793  1.0000
  F   F145      1.0  0.12176  0.38882  0.09951  1.0000
  F   F146      1.0  0.12668  0.36770  0.60160  1.0000
  F   F147      1.0  0.12757  0.88588  0.09278  1.0000
  F   F148      1.0  0.12116  0.86688  0.60616  1.0000
  F   F149      1.0  0.37524  0.36257  0.11759  1.0000
  F   F150      1.0  0.37601  0.34536  0.61278  1.0000
  F   F151      1.0  0.36925  0.86033  0.12056  1.0000
  F   F152      1.0  0.36982  0.88861  0.60543  1.0000
  F   F153      1.0  0.62132  0.36562  0.11944  1.0000
  F   F154      1.0  0.62509  0.36574  0.61298  1.0000
  F   F155      1.0  0.62677  0.87712  0.10007  1.0000
  F   F156      1.0  0.62748  0.85368  0.62502  1.0000
  F   F157      1.0  0.87346  0.37181  0.10894  1.0000
  F   F158      1.0  0.87294  0.36216  0.62563  1.0000
  F   F159      1.0  0.87373  0.87408  0.11476  1.0000
  F   F160      1.0  0.87478  0.85699  0.61573  1.0000
  F   F161      1.0  0.17899  0.24175  0.38314  1.0000
  F   F162      1.0  0.18158  0.25089  0.85199  1.0000
  F   F163      1.0  0.18718  0.73755  0.36666  1.0000
  F   F164      1.0  0.18184  0.73853  0.87154  1.0000
  F   F165      1.0  0.43419  0.24240  0.36167  1.0000
  F   F166      1.0  0.44141  0.24884  0.84953  1.0000
  F   F167      1.0  0.43479  0.75361  0.36628  1.0000
  F   F168      1.0  0.43007  0.74702  0.86994  1.0000
  F   F169      1.0  0.69353  0.24890  0.34552  1.0000
  F   F170      1.0  0.68850  0.24841  0.86715  1.0000
  F   F171      1.0  0.69053  0.75826  0.35146  1.0000
  F   F172      1.0  0.69476  0.75782  0.82828  1.0000
  F   F173      1.0  0.94043  0.25071  0.35144  1.0000
  F   F174      1.0  0.93674  0.24589  0.85529  1.0000
  F   F175      1.0  0.92789  0.74305  0.36233  1.0000
  F   F176      1.0  0.94328  0.75045  0.85487  1.0000
  F   F177      1.0  0.12406  0.12216  0.39107  1.0000
  F   F178      1.0  0.12476  0.13261  0.88725  1.0000
  F   F179      1.0  0.12530  0.62662  0.40212  1.0000
  F   F180      1.0  0.12742  0.62974  0.88655  1.0000
  F   F181      1.0  0.37491  0.12565  0.39652  1.0000
  F   F182      1.0  0.37480  0.13152  0.89326  1.0000
  F   F183      1.0  0.37600  0.63252  0.40079  1.0000
  F   F184      1.0  0.38044  0.62297  0.89123  1.0000
  F   F185      1.0  0.63008  0.14601  0.37536  1.0000
  F   F186      1.0  0.62717  0.12606  0.89999  1.0000
  F   F187      1.0  0.62589  0.64486  0.38281  1.0000
  F   F188      1.0  0.62135  0.64072  0.89734  1.0000
  F   F189      1.0  0.87888  0.14330  0.37955  1.0000
  F   F190      1.0  0.88025  0.12751  0.89266  1.0000
  F   F191      1.0  0.87224  0.62655  0.39559  1.0000
  F   F192      1.0  0.87689  0.63622  0.88969  1.0000
  F   F193      1.0  0.00944  0.36838  0.06427  1.0000
  F   F194      1.0  0.00866  0.35629  0.57730  1.0000
  F   F195      1.0  0.00857  0.85688  0.07654  1.0000
  F   F196      1.0  0.00956  0.85960  0.57079  1.0000
  F   F197      1.0  0.25928  0.35881  0.07254  1.0000
  F   F198      1.0  0.25829  0.37073  0.55464  1.0000
  F   F199      1.0  0.25362  0.87147  0.07759  1.0000
  F   F200      1.0  0.26084  0.84725  0.58144  1.0000
  F   F201      1.0  0.51237  0.35894  0.06003  1.0000
  F   F202      1.0  0.50820  0.36322  0.58629  1.0000
  F   F203      1.0  0.50432  0.86802  0.07161  1.0000
  F   F204      1.0  0.51476  0.86899  0.56870  1.0000
  F   F205      1.0  0.75408  0.36578  0.07178  1.0000
  F   F206      1.0  0.75435  0.37721  0.56544  1.0000
  F   F207      1.0  0.76031  0.86935  0.05460  1.0000
  F   F208      1.0  0.75748  0.85906  0.58571  1.0000
  F   F209      1.0  0.06240  0.48376  0.18895  1.0000
  F   F210      1.0  0.06728  0.48752  0.67952  1.0000
  F   F211      1.0  0.06686  0.98520  0.18063  1.0000
  F   F212      1.0  0.06299  0.98775  0.67975  1.0000
  F   F213      1.0  0.31779  0.48510  0.17662  1.0000
  F   F214      1.0  0.32246  0.46764  0.68048  1.0000
  F   F215      1.0  0.31977  0.97445  0.18240  1.0000
  F   F216      1.0  0.30668  0.98495  0.68964  1.0000
  F   F217      1.0  0.57591  0.49113  0.16012  1.0000
  F   F218      1.0  0.56820  0.48913  0.67773  1.0000
  F   F219      1.0  0.57087  0.97338  0.17906  1.0000
  F   F220      1.0  0.57080  0.99001  0.65883  1.0000
  F   F221      1.0  0.81669  0.49246  0.17252  1.0000
  F   F222      1.0  0.81114  0.48260  0.69285  1.0000
  F   F223      1.0  0.82428  0.98500  0.16898  1.0000
  F   F224      1.0  0.82743  0.97855  0.66671  1.0000
  F   F225      1.0  0.23832  0.13801  0.43514  1.0000
  F   F226      1.0  0.24344  0.13945  0.92723  1.0000
  F   F227      1.0  0.23856  0.62839  0.43883  1.0000
  F   F228      1.0  0.24301  0.64324  0.92748  1.0000
  F   F229      1.0  0.49103  0.13330  0.42252  1.0000
  F   F230      1.0  0.49136  0.14036  0.92280  1.0000
  F   F231      1.0  0.49209  0.64728  0.42536  1.0000
  F   F232      1.0  0.49419  0.63913  0.93057  1.0000
  F   F233      1.0  0.74587  0.14237  0.42375  1.0000
  F   F234      1.0  0.74254  0.13908  0.93039  1.0000
  F   F235      1.0  0.74298  0.63371  0.42862  1.0000
  F   F236      1.0  0.74238  0.62883  0.91864  1.0000
  F   F237      1.0  0.99263  0.14239  0.42898  1.0000
  F   F238      1.0  0.99111  0.12987  0.92782  1.0000
  F   F239      1.0  0.99060  0.63033  0.44142  1.0000
  F   F240      1.0  0.99187  0.62639  0.94255  1.0000
  F   F241      1.0  0.18394  0.02698  0.30972  1.0000
  F   F242      1.0  0.17928  0.01227  0.83151  1.0000
  F   F243      1.0  0.18581  0.51501  0.31494  1.0000
  F   F244      1.0  0.18329  0.51100  0.81997  1.0000
  F   F245      1.0  0.43524  0.01171  0.31339  1.0000
  F   F246      1.0  0.42877  0.02077  0.82440  1.0000
  F   F247      1.0  0.42724  0.50895  0.32910  1.0000
  F   F248      1.0  0.43017  0.51354  0.81554  1.0000
  F   F249      1.0  0.67908  0.01912  0.32239  1.0000
  F   F250      1.0  0.67992  0.02091  0.81963  1.0000
  F   F251      1.0  0.68501  0.53416  0.31254  1.0000
  F   F252      1.0  0.67550  0.52362  0.82132  1.0000
  F   F253      1.0  0.93206  0.01266  0.32669  1.0000
  F   F254      1.0  0.93054  0.01829  0.82639  1.0000
  F   F255      1.0  0.92898  0.52395  0.32453  1.0000
  F   F256      1.0  0.93193  0.50186  0.83800  1.0000
  F   F257      1.0  0.00141  0.26277  0.97600  1.0000
  F   F258      1.0  0.00051  0.25650  0.49350  1.0000
  F   F259      1.0  0.00395  0.76007  0.99367  1.0000
  F   F260      1.0  0.99880  0.74624  0.49969  1.0000
  F   F261      1.0  0.24160  0.23523  0.01239  1.0000
  F   F262      1.0  0.24639  0.23991  0.51727  1.0000
  F   F263      1.0  0.25577  0.75692  0.99333  1.0000
  F   F264      1.0  0.24748  0.74131  0.50898  1.0000
  F   F265      1.0  0.49905  0.23547  0.01947  1.0000
  F   F266      1.0  0.50277  0.26363  0.48570  1.0000
  F   F267      1.0  0.49633  0.75319  0.00469  1.0000
  F   F268      1.0  0.50308  0.75499  0.50125  1.0000
  F   F269      1.0  0.74983  0.26234  0.98892  1.0000
  F   F270      1.0  0.75466  0.26084  0.49302  1.0000
  F   F271      1.0  0.74959  0.74705  0.99869  1.0000
  F   F272      1.0  0.74900  0.74245  0.50628  1.0000
  F   F273      1.0  0.12560  0.99061  0.25040  1.0000
  F   F274      1.0  0.13217  0.99977  0.73025  1.0000
  F   F275      1.0  0.12722  0.50566  0.24885  1.0000
  F   F276      1.0  0.12224  0.49741  0.76429  1.0000
  F   F277      1.0  0.37573  0.00011  0.25449  1.0000
  F   F278      1.0  0.36954  0.98772  0.76021  1.0000
  F   F279      1.0  0.36099  0.48994  0.26640  1.0000
  F   F280      1.0  0.37111  0.49760  0.75678  1.0000
  F   F281      1.0  0.62749  0.00690  0.24844  1.0000
  F   F282      1.0  0.61643  0.00192  0.75423  1.0000
  F   F283      1.0  0.63113  0.51458  0.23674  1.0000
  F   F284      1.0  0.61938  0.49292  0.76003  1.0000
  F   F285      1.0  0.87438  0.00206  0.25863  1.0000
  F   F286      1.0  0.88162  0.01405  0.74217  1.0000
  F   F287      1.0  0.87450  0.50694  0.24427  1.0000
  F   F288      1.0  0.87416  0.50670  0.75213  1.0000
  F   F289      1.0  0.03076  0.02585  0.04080  1.0000
  F   F290      1.0  0.04161  0.03213  0.51564  1.0000
  F   F291      1.0  0.05056  0.52583  0.02923  1.0000
  F   F292      1.0  0.04596  0.52668  0.52278  1.0000
  F   F293      1.0  0.28967  0.03507  0.02863  1.0000
  F   F294      1.0  0.29608  0.02128  0.52897  1.0000
  F   F295      1.0  0.29056  0.51655  0.04145  1.0000
  F   F296      1.0  0.29427  0.52036  0.52607  1.0000
  F   F297      1.0  0.54317  0.03693  0.01909  1.0000
  F   F298      1.0  0.53928  0.03798  0.52351  1.0000
  F   F299      1.0  0.54102  0.52997  0.02742  1.0000
  F   F300      1.0  0.53621  0.53392  0.53639  1.0000
  F   F301      1.0  0.79547  0.03196  0.01922  1.0000
  F   F302      1.0  0.79769  0.03088  0.51163  1.0000
  F   F303      1.0  0.79659  0.53250  0.02127  1.0000
  F   F304      1.0  0.79630  0.53294  0.52202  1.0000
  F   F305      1.0  0.23546  0.40805  0.23109  1.0000
  F   F306      1.0  0.23875  0.40522  0.72533  1.0000
  F   F307      1.0  0.23204  0.90669  0.23747  1.0000
  F   F308      1.0  0.23141  0.90258  0.72939  1.0000
  F   F309      1.0  0.48463  0.41540  0.22929  1.0000
  F   F310      1.0  0.48263  0.42118  0.72775  1.0000
  F   F311      1.0  0.48763  0.90812  0.23100  1.0000
  F   F312      1.0  0.48907  0.90430  0.73033  1.0000
  F   F313      1.0  0.73416  0.42790  0.21890  1.0000
  F   F314      1.0  0.73322  0.42862  0.71059  1.0000
  F   F315      1.0  0.73869  0.91954  0.21504  1.0000
  F   F316      1.0  0.74101  0.92899  0.72087  1.0000
  F   F317      1.0  0.98310  0.40945  0.24177  1.0000
  F   F318      1.0  0.98961  0.40253  0.73886  1.0000
  F   F319      1.0  0.98540  0.90453  0.23869  1.0000
  F   F320      1.0  0.98437  0.90953  0.72393  1.0000
  F   F321      1.0  0.19937  0.47344  0.48441  1.0000
  F   F322      1.0  0.20917  0.46966  0.97801  1.0000
  F   F323      1.0  0.20691  0.96226  0.47053  1.0000
  F   F324      1.0  0.20630  0.97830  0.98021  1.0000
  F   F325      1.0  0.45974  0.46599  0.47491  1.0000
  F   F326      1.0  0.46086  0.47156  0.96158  1.0000
  F   F327      1.0  0.46333  0.96734  0.47356  1.0000
  F   F328      1.0  0.44460  0.96886  0.98893  1.0000
  F   F329      1.0  0.70353  0.46462  0.47893  1.0000
  F   F330      1.0  0.69680  0.47466  0.99305  1.0000
  F   F331      1.0  0.70412  0.97483  0.48735  1.0000
  F   F332      1.0  0.70712  0.96936  0.97361  1.0000
  F   F333      1.0  0.95272  0.46962  0.48109  1.0000
  F   F334      1.0  0.96014  0.47192  0.98172  1.0000
  F   F335      1.0  0.96131  0.96197  0.47066  1.0000
  F   F336      1.0  0.96012  0.97444  0.96687  1.0000
  F   F337      1.0  0.01253  0.08688  0.27621  1.0000
  F   F338      1.0  0.01848  0.09812  0.76443  1.0000
  F   F339      1.0  0.01662  0.60527  0.27704  1.0000
  F   F340      1.0  0.01692  0.58482  0.77714  1.0000
  F   F341      1.0  0.27005  0.08409  0.28011  1.0000
  F   F342      1.0  0.25879  0.08358  0.78899  1.0000
  F   F343      1.0  0.26616  0.58204  0.26981  1.0000
  F   F344      1.0  0.26912  0.57530  0.78407  1.0000
  F   F345      1.0  0.51272  0.09270  0.25873  1.0000
  F   F346      1.0  0.51746  0.08904  0.77489  1.0000
  F   F347      1.0  0.51345  0.57947  0.27319  1.0000
  F   F348      1.0  0.51735  0.58423  0.77601  1.0000
  F   F349      1.0  0.76228  0.07902  0.27888  1.0000
  F   F350      1.0  0.77092  0.09106  0.77545  1.0000
  F   F351      1.0  0.76247  0.58913  0.27029  1.0000
  F   F352      1.0  0.76121  0.58535  0.77197  1.0000
  F   F353      1.0  0.09504  0.40694  0.46483  1.0000
  F   F354      1.0  0.10200  0.39579  0.96742  1.0000
  F   F355      1.0  0.10188  0.90765  0.45323  1.0000
  F   F356      1.0  0.09872  0.91340  0.95932  1.0000
  F   F357      1.0  0.34720  0.38997  0.46853  1.0000
  F   F358      1.0  0.35281  0.39837  0.96834  1.0000
  F   F359      1.0  0.34728  0.90385  0.45616  1.0000
  F   F360      1.0  0.34736  0.90259  0.96737  1.0000
  F   F361      1.0  0.60047  0.42208  0.46208  1.0000
  F   F362      1.0  0.59901  0.41516  0.96838  1.0000
  F   F363      1.0  0.60483  0.92931  0.45931  1.0000
  F   F364      1.0  0.59840  0.91407  0.96227  1.0000
  F   F365      1.0  0.84989  0.41905  0.45689  1.0000
  F   F366      1.0  0.85127  0.40442  0.95814  1.0000
  F   F367      1.0  0.84870  0.90453  0.46486  1.0000
  F   F368      1.0  0.85580  0.91533  0.95436  1.0000
  F   F369      1.0  0.04473  0.28854  0.28955  1.0000
  F   F370      1.0  0.05734  0.29275  0.77738  1.0000
  F   F371      1.0  0.04983  0.79118  0.28733  1.0000
  F   F372      1.0  0.04257  0.79321  0.78610  1.0000
  F   F373      1.0  0.28854  0.29250  0.30319  1.0000
  F   F374      1.0  0.29748  0.30112  0.79764  1.0000
  F   F375      1.0  0.28889  0.78890  0.29856  1.0000
  F   F376      1.0  0.29379  0.79931  0.79325  1.0000
  F   F377      1.0  0.54592  0.29464  0.28441  1.0000
  F   F378      1.0  0.54722  0.29908  0.79408  1.0000
  F   F379      1.0  0.55265  0.79672  0.28816  1.0000
  F   F380      1.0  0.54509  0.80820  0.79065  1.0000
  F   F381      1.0  0.79891  0.30875  0.29060  1.0000
  F   F382      1.0  0.79509  0.30320  0.77950  1.0000
  F   F383      1.0  0.79623  0.79135  0.28824  1.0000
  F   F384      1.0  0.79334  0.79419  0.78859  1.0000
