data_image0
_chemical_formula_structural       Ti96I384
_chemical_formula_sum              "Ti96 I384"
_cell_length_a       67.1039
_cell_length_b       67.1187
_cell_length_c       32.8218
_cell_angle_alpha    88.7757
_cell_angle_beta     88.7757
_cell_angle_gamma    62.1586

_space_group_name_H-M_alt    "P 1"
_space_group_IT_number       1

loop_
  _space_group_symop_operation_xyz
  'x, y, z'

loop_
  _atom_site_type_symbol
  _atom_site_label
  _atom_site_symmetry_multiplicity
  _atom_site_fract_x
  _atom_site_fract_y
  _atom_site_fract_z
  _atom_site_occupancy
  Ti  Ti1       1.0  0.10628  0.76853  0.07784  1.0000
  Ti  Ti2       1.0  0.59590  0.99797  0.99058  1.0000
  Ti  Ti3       1.0  0.67095  0.92548  0.40522  1.0000
  Ti  Ti4       1.0  0.92020  0.10375  0.17964  1.0000
  Ti  Ti5       1.0  0.70749  0.74863  0.35189  1.0000
  Ti  Ti6       1.0  0.01191  0.59847  0.83897  1.0000
  Ti  Ti7       1.0  0.83498  0.29899  0.52739  1.0000
  Ti  Ti8       1.0  0.27030  0.05463  0.40565  1.0000
  Ti  Ti9       1.0  0.28000  0.84769  0.10937  1.0000
  Ti  Ti10      1.0  0.85934  0.93753  0.21733  1.0000
  Ti  Ti11      1.0  0.08640  0.15965  0.51994  1.0000
  Ti  Ti12      1.0  0.14326  0.58835  0.52711  1.0000
  Ti  Ti13      1.0  0.15811  0.07387  0.06615  1.0000
  Ti  Ti14      1.0  0.01579  0.08528  0.46947  1.0000
  Ti  Ti15      1.0  0.68620  0.05086  0.57254  1.0000
  Ti  Ti16      1.0  0.81713  0.96811  0.31884  1.0000
  Ti  Ti17      1.0  0.29867  0.01879  0.82503  1.0000
  Ti  Ti18      1.0  0.92937  0.70340  0.11432  1.0000
  Ti  Ti19      1.0  0.55662  0.43740  0.94449  1.0000
  Ti  Ti20      1.0  0.20904  0.97053  0.65139  1.0000
  Ti  Ti21      1.0  0.28044  0.02691  0.52524  1.0000
  Ti  Ti22      1.0  0.75772  0.76048  0.60655  1.0000
  Ti  Ti23      1.0  0.51840  0.01880  0.70934  1.0000
  Ti  Ti24      1.0  0.35394  0.72572  0.78906  1.0000
  Ti  Ti25      1.0  0.55920  0.87155  0.71696  1.0000
  Ti  Ti26      1.0  0.33131  0.86678  0.32719  1.0000
  Ti  Ti27      1.0  0.79689  0.08233  0.57264  1.0000
  Ti  Ti28      1.0  0.64325  0.53610  0.64562  1.0000
  Ti  Ti29      1.0  0.95765  0.91874  0.00063  1.0000
  Ti  Ti30      1.0  0.41948  0.08492  0.13587  1.0000
  Ti  Ti31      1.0  0.10032  0.74650  0.81382  1.0000
  Ti  Ti32      1.0  0.84322  0.35624  0.10985  1.0000
  Ti  Ti33      1.0  0.11781  0.86957  0.30238  1.0000
  Ti  Ti34      1.0  0.41857  0.45645  0.82390  1.0000
  Ti  Ti35      1.0  0.63335  0.65530  0.91917  1.0000
  Ti  Ti36      1.0  0.79381  0.03917  0.90428  1.0000
  Ti  Ti37      1.0  0.13874  0.46999  0.37199  1.0000
  Ti  Ti38      1.0  0.54769  0.33432  0.03390  1.0000
  Ti  Ti39      1.0  0.92799  0.56175  0.18243  1.0000
  Ti  Ti40      1.0  0.25483  0.39429  0.01834  1.0000
  Ti  Ti41      1.0  0.46209  0.69143  0.66892  1.0000
  Ti  Ti42      1.0  0.93736  0.41320  0.33447  1.0000
  Ti  Ti43      1.0  0.57460  0.16859  0.38392  1.0000
  Ti  Ti44      1.0  0.85494  0.48825  0.60811  1.0000
  Ti  Ti45      1.0  0.36623  0.61419  0.70140  1.0000
  Ti  Ti46      1.0  0.54609  0.43649  0.37829  1.0000
  Ti  Ti47      1.0  0.23584  0.50103  0.15453  1.0000
  Ti  Ti48      1.0  0.63106  0.22153  0.77366  1.0000
  Ti  Ti49      1.0  0.85040  0.54369  0.39911  1.0000
  Ti  Ti50      1.0  0.99657  0.31584  0.79344  1.0000
  Ti  Ti51      1.0  0.62576  0.00761  0.93633  1.0000
  Ti  Ti52      1.0  0.89068  0.13431  0.29502  1.0000
  Ti  Ti53      1.0  0.43823  0.67293  0.03127  1.0000
  Ti  Ti54      1.0  0.02621  0.55093  0.90576  1.0000
  Ti  Ti55      1.0  0.83409  0.28240  0.42352  1.0000
  Ti  Ti56      1.0  0.22297  0.47303  0.75621  1.0000
  Ti  Ti57      1.0  0.29872  0.90813  0.12847  1.0000
  Ti  Ti58      1.0  0.59358  0.19664  0.35859  1.0000
  Ti  Ti59      1.0  0.19129  0.30586  0.01098  1.0000
  Ti  Ti60      1.0  0.20154  0.57854  0.53878  1.0000
  Ti  Ti61      1.0  0.67013  0.01329  0.64063  1.0000
  Ti  Ti62      1.0  0.13919  0.03867  0.06928  1.0000
  Ti  Ti63      1.0  0.95102  0.15413  0.48273  1.0000
  Ti  Ti64      1.0  0.94693  0.74187  0.14483  1.0000
  Ti  Ti65      1.0  0.85419  0.69435  0.71543  1.0000
  Ti  Ti66      1.0  0.55130  0.24357  0.05092  1.0000
  Ti  Ti67      1.0  0.57199  0.44748  0.02569  1.0000
  Ti  Ti68      1.0  0.97310  0.50878  0.98298  1.0000
  Ti  Ti69      1.0  0.46004  0.81420  0.86905  1.0000
  Ti  Ti70      1.0  0.61398  0.73469  0.59283  1.0000
  Ti  Ti71      1.0  0.51939  0.01536  0.60163  1.0000
  Ti  Ti72      1.0  0.01335  0.16190  0.17184  1.0000
  Ti  Ti73      1.0  0.81849  0.11404  0.63743  1.0000
  Ti  Ti74      1.0  0.62761  0.84632  0.73553  1.0000
  Ti  Ti75      1.0  0.37648  0.81409  0.33782  1.0000
  Ti  Ti76      1.0  0.39984  0.03806  0.13895  1.0000
  Ti  Ti77      1.0  0.66122  0.49278  0.57868  1.0000
  Ti  Ti78      1.0  0.93357  0.87501  0.06480  1.0000
  Ti  Ti79      1.0  0.66075  0.32129  0.63657  1.0000
  Ti  Ti80      1.0  0.73908  0.26156  0.22789  1.0000
  Ti  Ti81      1.0  0.86927  0.31362  0.02362  1.0000
  Ti  Ti82      1.0  0.40131  0.45000  0.75894  1.0000
  Ti  Ti83      1.0  0.64328  0.61441  0.97478  1.0000
  Ti  Ti84      1.0  0.78595  0.98342  0.89593  1.0000
  Ti  Ti85      1.0  0.16395  0.40878  0.45206  1.0000
  Ti  Ti86      1.0  0.58321  0.27662  0.11695  1.0000
  Ti  Ti87      1.0  0.85937  0.61451  0.15411  1.0000
  Ti  Ti88      1.0  0.54894  0.58902  0.30851  1.0000
  Ti  Ti89      1.0  0.49014  0.65421  0.58072  1.0000
  Ti  Ti90      1.0  0.91914  0.40600  0.23850  1.0000
  Ti  Ti91      1.0  0.30321  0.60822  0.71992  1.0000
  Ti  Ti92      1.0  0.20334  0.62030  0.83131  1.0000
  Ti  Ti93      1.0  0.91076  0.45069  0.65387  1.0000
  Ti  Ti94      1.0  0.64932  0.22955  0.89451  1.0000
  Ti  Ti95      1.0  0.56878  0.37384  0.33672  1.0000
  Ti  Ti96      1.0  0.29552  0.48875  0.15783  1.0000
  I   I1        1.0  0.29171  0.47478  0.08556  1.0000
  I   I2        1.0  0.58998  0.97928  0.92445  1.0000
  I   I3        1.0  0.82645  0.57526  0.34902  1.0000
  I   I4        1.0  0.41867  0.71123  0.07096  1.0000
  I   I5        1.0  0.04348  0.58115  0.90608  1.0000
  I   I6        1.0  0.02944  0.54560  0.98274  1.0000
  I   I7        1.0  0.23132  0.09316  0.40574  1.0000
  I   I8        1.0  0.21052  0.46805  0.68747  1.0000
  I   I9        1.0  0.28597  0.87581  0.17632  1.0000
  I   I10       1.0  0.82213  0.95693  0.39931  1.0000
  I   I11       1.0  0.09355  0.15030  0.44588  1.0000
  I   I12       1.0  0.69655  0.75774  0.43081  1.0000
  I   I13       1.0  0.13053  0.08828  0.13299  1.0000
  I   I14       1.0  0.98403  0.12129  0.52282  1.0000
  I   I15       1.0  0.68179  0.08846  0.61525  1.0000
  I   I16       1.0  0.78545  0.95051  0.31975  1.0000
  I   I17       1.0  0.51345  0.24122  0.03432  1.0000
  I   I18       1.0  0.90803  0.77092  0.12229  1.0000
  I   I19       1.0  0.23608  0.98918  0.65360  1.0000
  I   I20       1.0  0.05121  0.16344  0.55716  1.0000
  I   I21       1.0  0.25030  0.05719  0.57395  1.0000
  I   I22       1.0  0.55845  0.98718  0.69212  1.0000
  I   I23       1.0  0.50763  0.05494  0.64076  1.0000
  I   I24       1.0  0.63174  0.71056  0.52898  1.0000
  I   I25       1.0  0.65459  0.80338  0.75668  1.0000
  I   I26       1.0  0.35660  0.80529  0.39959  1.0000
  I   I27       1.0  0.85285  0.07811  0.66372  1.0000
  I   I28       1.0  0.67254  0.44936  0.60717  1.0000
  I   I29       1.0  0.96026  0.89617  0.07568  1.0000
  I   I30       1.0  0.41751  0.09261  0.21346  1.0000
  I   I31       1.0  0.73611  0.24250  0.29324  1.0000
  I   I32       1.0  0.91150  0.28209  0.01152  1.0000
  I   I33       1.0  0.70139  0.31461  0.62055  1.0000
  I   I34       1.0  0.66824  0.57075  0.96895  1.0000
  I   I35       1.0  0.82225  0.04536  0.94947  1.0000
  I   I36       1.0  0.38499  0.48041  0.87836  1.0000
  I   I37       1.0  0.17917  0.36568  0.44018  1.0000
  I   I38       1.0  0.81492  0.62739  0.18367  1.0000
  I   I39       1.0  0.14817  0.46352  0.45715  1.0000
  I   I40       1.0  0.50825  0.65894  0.64706  1.0000
  I   I41       1.0  0.88232  0.43207  0.19800  1.0000
  I   I42       1.0  0.26686  0.42490  0.04265  1.0000
  I   I43       1.0  0.61544  0.21451  0.39999  1.0000
  I   I44       1.0  0.86367  0.44572  0.62543  1.0000
  I   I45       1.0  0.34602  0.60283  0.76322  1.0000
  I   I46       1.0  0.59269  0.32992  0.34678  1.0000
  I   I47       1.0  0.20676  0.51346  0.20862  1.0000
  I   I48       1.0  0.58932  0.23062  0.75564  1.0000
  I   I49       1.0  0.85094  0.50968  0.36151  1.0000
  I   I50       1.0  0.55207  0.02732  0.99711  1.0000
  I   I51       1.0  0.61710  0.03007  0.00795  1.0000
  I   I52       1.0  0.95808  0.09691  0.13312  1.0000
  I   I53       1.0  0.44939  0.68521  0.96405  1.0000
  I   I54       1.0  0.05245  0.50904  0.89184  1.0000
  I   I55       1.0  0.81429  0.34074  0.54978  1.0000
  I   I56       1.0  0.25557  0.04696  0.34129  1.0000
  I   I57       1.0  0.23826  0.86648  0.13854  1.0000
  I   I58       1.0  0.85431  0.95098  0.14299  1.0000
  I   I59       1.0  0.17653  0.34956  0.00326  1.0000
  I   I60       1.0  0.22196  0.53562  0.50622  1.0000
  I   I61       1.0  0.09638  0.06431  0.05559  1.0000
  I   I62       1.0  0.15058  0.10787  0.02423  1.0000
  I   I63       1.0  0.02416  0.05975  0.40554  1.0000
  I   I64       1.0  0.85345  0.92483  0.30954  1.0000
  I   I65       1.0  0.84136  0.67708  0.65424  1.0000
  I   I66       1.0  0.57190  0.20633  0.08606  1.0000
  I   I67       1.0  0.54063  0.48352  0.96355  1.0000
  I   I68       1.0  0.18263  0.97504  0.71579  1.0000
  I   I69       1.0  0.45879  0.79700  0.94137  1.0000
  I   I70       1.0  0.60658  0.71262  0.66046  1.0000
  I   I71       1.0  0.51785  0.98941  0.75933  1.0000
  I   I72       1.0  0.97318  0.19292  0.16003  1.0000
  I   I73       1.0  0.82574  0.15042  0.62867  1.0000
  I   I74       1.0  0.29617  0.88447  0.37326  1.0000
  I   I75       1.0  0.36946  0.85265  0.38476  1.0000
  I   I76       1.0  0.62265  0.50585  0.63560  1.0000
  I   I77       1.0  0.62976  0.49904  0.52617  1.0000
  I   I78       1.0  0.89748  0.86799  0.06073  1.0000
  I   I79       1.0  0.09257  0.90965  0.32451  1.0000
  I   I80       1.0  0.10402  0.73655  0.89095  1.0000
  I   I81       1.0  0.85354  0.31930  0.94593  1.0000
  I   I82       1.0  0.40902  0.41560  0.70795  1.0000
  I   I83       1.0  0.65355  0.65108  0.84529  1.0000
  I   I84       1.0  0.77358  0.96103  0.94985  1.0000
  I   I85       1.0  0.12125  0.43193  0.44559  1.0000
  I   I86       1.0  0.54701  0.29174  0.04948  1.0000
  I   I87       1.0  0.96796  0.55539  0.16651  1.0000
  I   I88       1.0  0.21945  0.41514  0.97442  1.0000
  I   I89       1.0  0.49400  0.61515  0.60899  1.0000
  I   I90       1.0  0.91591  0.36798  0.22352  1.0000
  I   I91       1.0  0.30386  0.58311  0.78718  1.0000
  I   I92       1.0  0.18981  0.60938  0.76161  1.0000
  I   I93       1.0  0.81609  0.50682  0.64172  1.0000
  I   I94       1.0  0.64515  0.24899  0.74820  1.0000
  I   I95       1.0  0.57827  0.44656  0.38591  1.0000
  I   I96       1.0  0.33433  0.45622  0.18456  1.0000
  I   I97       1.0  0.64075  0.93281  0.45967  1.0000
  I   I98       1.0  0.06519  0.78821  0.10703  1.0000
  I   I99       1.0  0.64954  0.96756  0.95885  1.0000
  I   I100      1.0  0.93367  0.10354  0.26268  1.0000
  I   I101      1.0  0.92352  0.12776  0.35248  1.0000
  I   I102      1.0  0.69366  0.72742  0.30908  1.0000
  I   I103      1.0  0.87017  0.25296  0.37272  1.0000
  I   I104      1.0  0.82236  0.27785  0.58161  1.0000
  I   I105      1.0  0.33312  0.88851  0.17412  1.0000
  I   I106      1.0  0.14093  0.56356  0.47005  1.0000
  I   I107      1.0  0.89253  0.89658  0.21431  1.0000
  I   I108      1.0  0.11427  0.63018  0.49138  1.0000
  I   I109      1.0  0.69500  0.04929  0.49690  1.0000
  I   I110      1.0  0.14165  0.05802  0.99485  1.0000
  I   I111      1.0  0.92168  0.13805  0.47812  1.0000
  I   I112      1.0  0.93713  0.72518  0.05339  1.0000
  I   I113      1.0  0.86597  0.72736  0.71377  1.0000
  I   I114      1.0  0.29531  0.05714  0.83487  1.0000
  I   I115      1.0  0.60078  0.42320  0.95469  1.0000
  I   I116      1.0  0.52604  0.42686  0.92870  1.0000
  I   I117      1.0  0.97129  0.54163  0.02169  1.0000
  I   I118      1.0  0.75031  0.73368  0.65294  1.0000
  I   I119      1.0  0.65060  0.73632  0.62076  1.0000
  I   I120      1.0  0.02084  0.11973  0.15112  1.0000
  I   I121      1.0  0.81524  0.10880  0.55818  1.0000
  I   I122      1.0  0.54931  0.88753  0.64009  1.0000
  I   I123      1.0  0.36955  0.84266  0.27274  1.0000
  I   I124      1.0  0.45076  0.03273  0.13801  1.0000
  I   I125      1.0  0.65149  0.55921  0.70092  1.0000
  I   I126      1.0  0.93432  0.89318  0.98466  1.0000
  I   I127      1.0  0.12778  0.88025  0.23224  1.0000
  I   I128      1.0  0.74500  0.29663  0.23471  1.0000
  I   I129      1.0  0.85307  0.28572  0.04512  1.0000
  I   I130      1.0  0.75868  0.06530  0.95246  1.0000
  I   I131      1.0  0.39577  0.49172  0.75868  1.0000
  I   I132      1.0  0.67841  0.61317  0.92750  1.0000
  I   I133      1.0  0.91534  0.59175  0.23503  1.0000
  I   I134      1.0  0.57701  0.34705  0.01612  1.0000
  I   I135      1.0  0.60906  0.29025  0.06623  1.0000
  I   I136      1.0  0.90911  0.43611  0.38945  1.0000
  I   I137      1.0  0.57124  0.57563  0.37405  1.0000
  I   I138      1.0  0.42617  0.73197  0.67159  1.0000
  I   I139      1.0  0.38689  0.57393  0.67061  1.0000
  I   I140      1.0  0.24222  0.58854  0.85097  1.0000
  I   I141      1.0  0.90849  0.45770  0.57252  1.0000
  I   I142      1.0  0.63523  0.27142  0.85938  1.0000
  I   I143      1.0  0.53824  0.36448  0.37157  1.0000
  I   I144      1.0  0.22080  0.47403  0.12568  1.0000
  I   I145      1.0  0.12990  0.73367  0.12662  1.0000
  I   I146      1.0  0.59298  0.97328  0.04542  1.0000
  I   I147      1.0  0.67306  0.96397  0.41198  1.0000
  I   I148      1.0  0.87890  0.13252  0.20717  1.0000
  I   I149      1.0  0.74569  0.71535  0.36783  1.0000
  I   I150      1.0  0.01367  0.62203  0.77339  1.0000
  I   I151      1.0  0.80602  0.27177  0.38267  1.0000
  I   I152      1.0  0.30037  0.06279  0.36198  1.0000
  I   I153      1.0  0.26268  0.93776  0.16157  1.0000
  I   I154      1.0  0.57923  0.15780  0.46428  1.0000
  I   I155      1.0  0.11893  0.13356  0.56346  1.0000
  I   I156      1.0  0.22093  0.55536  0.60385  1.0000
  I   I157      1.0  0.68155  0.04207  0.67189  1.0000
  I   I158      1.0  0.93445  0.17738  0.54783  1.0000
  I   I159      1.0  0.69743  0.97324  0.65819  1.0000
  I   I160      1.0  0.97500  0.69799  0.13303  1.0000
  I   I161      1.0  0.32955  0.98902  0.87306  1.0000
  I   I162      1.0  0.95654  0.74321  0.22102  1.0000
  I   I163      1.0  0.53982  0.42946  0.03346  1.0000
  I   I164      1.0  0.94622  0.52415  0.91927  1.0000
  I   I165      1.0  0.28449  0.98808  0.54701  1.0000
  I   I166      1.0  0.74607  0.80323  0.61338  1.0000
  I   I167      1.0  0.48250  0.01817  0.66352  1.0000
  I   I168      1.0  0.32166  0.71226  0.79090  1.0000
  I   I169      1.0  0.59414  0.84360  0.78616  1.0000
  I   I170      1.0  0.59626  0.83962  0.67624  1.0000
  I   I171      1.0  0.76403  0.10051  0.52177  1.0000
  I   I172      1.0  0.42339  0.99428  0.12573  1.0000
  I   I173      1.0  0.00301  0.89064  0.99446  1.0000
  I   I174      1.0  0.39584  0.12604  0.11485  1.0000
  I   I175      1.0  0.13631  0.74116  0.77972  1.0000
  I   I176      1.0  0.80977  0.34593  0.09675  1.0000
  I   I177      1.0  0.66267  0.30802  0.56050  1.0000
  I   I178      1.0  0.38413  0.44100  0.83029  1.0000
  I   I179      1.0  0.61257  0.65612  0.99402  1.0000
  I   I180      1.0  0.80833  0.93603  0.87801  1.0000
  I   I181      1.0  0.18444  0.40530  0.51788  1.0000
  I   I182      1.0  0.60996  0.23942  0.08031  1.0000
  I   I183      1.0  0.86476  0.63807  0.20987  1.0000
  I   I184      1.0  0.55212  0.62596  0.28445  1.0000
  I   I185      1.0  0.43862  0.66910  0.65349  1.0000
  I   I186      1.0  0.90301  0.39737  0.32162  1.0000
  I   I187      1.0  0.20939  0.65574  0.82479  1.0000
  I   I188      1.0  0.84327  0.48969  0.52967  1.0000
  I   I189      1.0  0.32490  0.61701  0.65772  1.0000
  I   I190      1.0  0.56318  0.38522  0.26222  1.0000
  I   I191      1.0  0.03772  0.28120  0.77394  1.0000
  I   I192      1.0  0.65504  0.19483  0.83346  1.0000
  I   I193      1.0  0.11324  0.80409  0.06625  1.0000
  I   I194      1.0  0.99830  0.28932  0.85551  1.0000
  I   I195      1.0  0.65881  0.91825  0.33687  1.0000
  I   I196      1.0  0.94328  0.06119  0.20028  1.0000
  I   I197      1.0  0.61928  0.15432  0.38212  1.0000
  I   I198      1.0  0.97066  0.60498  0.82576  1.0000
  I   I199      1.0  0.79682  0.31668  0.45935  1.0000
  I   I200      1.0  0.21081  0.47931  0.83166  1.0000
  I   I201      1.0  0.28911  0.81058  0.14381  1.0000
  I   I202      1.0  0.20028  0.29712  0.08721  1.0000
  I   I203      1.0  0.41780  0.83408  0.85069  1.0000
  I   I204      1.0  0.11391  0.59355  0.58816  1.0000
  I   I205      1.0  0.18794  0.02788  0.06628  1.0000
  I   I206      1.0  0.94503  0.18412  0.42823  1.0000
  I   I207      1.0  0.63048  0.03045  0.68347  1.0000
  I   I208      1.0  0.78680  0.01035  0.31252  1.0000
  I   I209      1.0  0.32141  0.01795  0.75137  1.0000
  I   I210      1.0  0.94705  0.66289  0.09558  1.0000
  I   I211      1.0  0.54925  0.46806  0.09481  1.0000
  I   I212      1.0  0.22008  0.92843  0.63052  1.0000
  I   I213      1.0  0.48078  0.83979  0.88850  1.0000
  I   I214      1.0  0.80067  0.73872  0.59825  1.0000
  I   I215      1.0  0.55124  0.02505  0.55758  1.0000
  I   I216      1.0  0.37047  0.71994  0.71536  1.0000
  I   I217      1.0  0.56441  0.90357  0.74004  1.0000
  I   I218      1.0  0.37554  0.78197  0.30252  1.0000
  I   I219      1.0  0.81490  0.05425  0.50902  1.0000
  I   I220      1.0  0.60214  0.56695  0.66284  1.0000
  I   I221      1.0  0.92956  0.96087  0.01248  1.0000
  I   I222      1.0  0.40274  0.06639  0.07774  1.0000
  I   I223      1.0  0.08877  0.71639  0.79203  1.0000
  I   I224      1.0  0.83791  0.34213  0.18488  1.0000
  I   I225      1.0  0.13116  0.85420  0.37724  1.0000
  I   I226      1.0  0.36172  0.47046  0.71260  1.0000
  I   I227      1.0  0.64838  0.61952  0.04974  1.0000
  I   I228      1.0  0.78949  0.06492  0.84594  1.0000
  I   I229      1.0  0.15747  0.49222  0.33767  1.0000
  I   I230      1.0  0.54775  0.31922  0.95743  1.0000
  I   I231      1.0  0.84413  0.64190  0.09053  1.0000
  I   I232      1.0  0.02792  0.04859  0.52445  1.0000
  I   I233      1.0  0.46586  0.69400  0.74489  1.0000
  I   I234      1.0  0.94540  0.39966  0.17918  1.0000
  I   I235      1.0  0.56206  0.19153  0.30201  1.0000
  I   I236      1.0  0.93774  0.40809  0.66169  1.0000
  I   I237      1.0  0.27367  0.64782  0.73286  1.0000
  I   I238      1.0  0.53179  0.43567  0.45268  1.0000
  I   I239      1.0  0.27157  0.46393  0.18905  1.0000
  I   I240      1.0  0.60946  0.24025  0.85316  1.0000
  I   I241      1.0  0.89440  0.53463  0.38269  1.0000
  I   I242      1.0  0.64269  0.98947  0.85891  1.0000
  I   I243      1.0  0.71358  0.89507  0.40250  1.0000
  I   I244      1.0  0.85274  0.17567  0.28962  1.0000
  I   I245      1.0  0.45779  0.64506  0.09524  1.0000
  I   I246      1.0  0.98316  0.56170  0.90536  1.0000
  I   I247      1.0  0.84947  0.25272  0.48313  1.0000
  I   I248      1.0  0.27561  0.01709  0.44146  1.0000
  I   I249      1.0  0.31122  0.87382  0.06932  1.0000
  I   I250      1.0  0.15658  0.29703  0.01259  1.0000
  I   I251      1.0  0.08723  0.19624  0.52519  1.0000
  I   I252      1.0  0.22046  0.60484  0.54857  1.0000
  I   I253      1.0  0.14264  0.02746  0.14856  1.0000
  I   I254      1.0  0.99004  0.12154  0.42521  1.0000
  I   I255      1.0  0.65607  0.99453  0.58558  1.0000
  I   I256      1.0  0.89303  0.66554  0.74266  1.0000
  I   I257      1.0  0.25720  0.02140  0.83016  1.0000
  I   I258      1.0  0.93238  0.69261  0.19606  1.0000
  I   I259      1.0  0.60826  0.41669  0.07009  1.0000
  I   I260      1.0  0.96005  0.48795  0.03355  1.0000
  I   I261      1.0  0.31862  0.01805  0.55210  1.0000
  I   I262      1.0  0.74626  0.75427  0.53576  1.0000
  I   I263      1.0  0.48940  0.04943  0.55497  1.0000
  I   I264      1.0  0.38804  0.69473  0.83011  1.0000
  I   I265      1.0  0.52225  0.86982  0.75219  1.0000
  I   I266      1.0  0.31231  0.90812  0.28886  1.0000
  I   I267      1.0  0.81966  0.13084  0.71227  1.0000
  I   I268      1.0  0.65375  0.54330  0.56532  1.0000
  I   I269      1.0  0.94967  0.86051  0.14132  1.0000
  I   I270      1.0  0.36377  0.03843  0.14977  1.0000
  I   I271      1.0  0.07308  0.79021  0.79983  1.0000
  I   I272      1.0  0.83904  0.36081  0.02177  1.0000
  I   I273      1.0  0.10272  0.84403  0.26135  1.0000
  I   I274      1.0  0.44759  0.43972  0.75219  1.0000
  I   I275      1.0  0.59251  0.68334  0.90832  1.0000
  I   I276      1.0  0.80615  0.99555  0.95407  1.0000
  I   I277      1.0  0.13887  0.43996  0.32573  1.0000
  I   I278      1.0  0.55951  0.32238  0.12656  1.0000
  I   I279      1.0  0.93747  0.53248  0.23990  1.0000
  I   I280      1.0  0.57192  0.55856  0.25406  1.0000
  I   I281      1.0  0.52566  0.65273  0.53821  1.0000
  I   I282      1.0  0.96935  0.41741  0.37818  1.0000
  I   I283      1.0  0.54226  0.15513  0.39257  1.0000
  I   I284      1.0  0.93702  0.46645  0.69378  1.0000
  I   I285      1.0  0.35403  0.64254  0.63017  1.0000
  I   I286      1.0  0.58678  0.38964  0.39066  1.0000
  I   I287      1.0  0.31550  0.51390  0.15773  1.0000
  I   I288      1.0  0.64016  0.18634  0.71958  1.0000
  I   I289      1.0  0.83450  0.54360  0.47101  1.0000
  I   I290      1.0  0.99250  0.35188  0.82662  1.0000
  I   I291      1.0  0.63896  0.04096  0.92004  1.0000
  I   I292      1.0  0.87646  0.11007  0.33088  1.0000
  I   I293      1.0  0.41072  0.65729  0.01508  1.0000
  I   I294      1.0  0.04338  0.55448  0.80084  1.0000
  I   I295      1.0  0.87712  0.28630  0.51974  1.0000
  I   I296      1.0  0.26287  0.43614  0.76011  1.0000
  I   I297      1.0  0.31042  0.93232  0.08032  1.0000
  I   I298      1.0  0.61353  0.19059  0.28594  1.0000
  I   I299      1.0  0.82122  0.93775  0.21992  1.0000
  I   I300      1.0  0.16237  0.60254  0.59173  1.0000
  I   I301      1.0  0.71018  0.00770  0.58382  1.0000
  I   I302      1.0  0.18986  0.07790  0.11250  1.0000
  I   I303      1.0  0.28102  0.36963  0.96194  1.0000
  I   I304      1.0  0.88781  0.71961  0.09607  1.0000
  I   I305      1.0  0.85082  0.97620  0.26451  1.0000
  I   I306      1.0  0.54497  0.26513  0.12376  1.0000
  I   I307      1.0  0.56850  0.44770  0.86698  1.0000
  I   I308      1.0  0.17718  0.98916  0.59921  1.0000
  I   I309      1.0  0.28708  0.06320  0.47305  1.0000
  I   I310      1.0  0.58136  0.75535  0.54234  1.0000
  I   I311      1.0  0.51502  0.05254  0.75507  1.0000
  I   I312      1.0  0.03493  0.18667  0.15711  1.0000
  I   I313      1.0  0.79292  0.05066  0.61588  1.0000
  I   I314      1.0  0.64313  0.85647  0.66725  1.0000
  I   I315      1.0  0.41683  0.79626  0.36494  1.0000
  I   I316      1.0  0.40009  0.05256  0.20944  1.0000
  I   I317      1.0  0.69281  0.50459  0.64796  1.0000
  I   I318      1.0  0.96109  0.91928  0.92071  1.0000
  I   I319      1.0  0.67977  0.28048  0.67242  1.0000
  I   I320      1.0  0.69752  0.27549  0.20644  1.0000
  I   I321      1.0  0.82671  0.39676  0.14274  1.0000
  I   I322      1.0  0.43683  0.48307  0.83650  1.0000
  I   I323      1.0  0.61919  0.60934  0.91596  1.0000
  I   I324      1.0  0.81339  0.99550  0.84772  1.0000
  I   I325      1.0  0.19410  0.41114  0.39919  1.0000
  I   I326      1.0  0.60548  0.26822  0.18407  1.0000
  I   I327      1.0  0.87908  0.56755  0.18433  1.0000
  I   I328      1.0  0.24721  0.37438  0.08837  1.0000
  I   I329      1.0  0.46836  0.70401  0.58410  1.0000
  I   I330      1.0  0.91334  0.44586  0.27870  1.0000
  I   I331      1.0  0.39397  0.61697  0.75321  1.0000
  I   I332      1.0  0.55185  0.21935  0.39601  1.0000
  I   I333      1.0  0.88011  0.50893  0.62212  1.0000
  I   I334      1.0  0.63546  0.22662  0.96683  1.0000
  I   I335      1.0  0.51995  0.47608  0.35927  1.0000
  I   I336      1.0  0.26002  0.51784  0.20317  1.0000
  I   I337      1.0  0.09072  0.75774  0.01114  1.0000
  I   I338      1.0  0.97806  0.32229  0.71583  1.0000
  I   I339      1.0  0.58859  0.03164  0.90457  1.0000
  I   I340      1.0  0.90400  0.09873  0.10511  1.0000
  I   I341      1.0  0.71589  0.77923  0.31629  1.0000
  I   I342      1.0  0.01663  0.63429  0.87462  1.0000
  I   I343      1.0  0.85257  0.30829  0.40497  1.0000
  I   I344      1.0  0.24202  0.50021  0.76054  1.0000
  I   I345      1.0  0.27330  0.84011  0.03986  1.0000
  I   I346      1.0  0.57535  0.13724  0.32390  1.0000
  I   I347      1.0  0.22538  0.28564  0.96482  1.0000
  I   I348      1.0  0.17274  0.59438  0.46115  1.0000
  I   I349      1.0  0.64093  0.06789  0.56986  1.0000
  I   I350      1.0  0.14211  0.00347  0.03213  1.0000
  I   I351      1.0  0.05806  0.08100  0.48500  1.0000
  I   I352      1.0  0.96513  0.76567  0.11260  1.0000
  I   I353      1.0  0.82093  0.70833  0.76822  1.0000
  I   I354      1.0  0.57166  0.23501  0.98353  1.0000
  I   I355      1.0  0.59454  0.47064  0.02963  1.0000
  I   I356      1.0  0.01141  0.48053  0.95627  1.0000
  I   I357      1.0  0.48702  0.77592  0.83358  1.0000
  I   I358      1.0  0.34263  0.76466  0.81071  1.0000
  I   I359      1.0  0.52460  0.98107  0.55891  1.0000
  I   I360      1.0  0.01000  0.16354  0.25429  1.0000
  I   I361      1.0  0.77279  0.12487  0.62774  1.0000
  I   I362      1.0  0.63299  0.86503  0.79958  1.0000
  I   I363      1.0  0.31248  0.84876  0.28285  1.0000
  I   I364      1.0  0.45864  0.07899  0.10889  1.0000
  I   I365      1.0  0.69911  0.48088  0.54155  1.0000
  I   I366      1.0  0.95337  0.83863  0.02215  1.0000
  I   I367      1.0  0.65373  0.34602  0.70033  1.0000
  I   I368      1.0  0.75669  0.23143  0.16790  1.0000
  I   I369      1.0  0.88693  0.33060  0.09532  1.0000
  I   I370      1.0  0.43904  0.42795  0.88390  1.0000
  I   I371      1.0  0.65152  0.67617  0.95452  1.0000
  I   I372      1.0  0.74941  0.01998  0.86412  1.0000
  I   I373      1.0  0.10149  0.50897  0.38978  1.0000
  I   I374      1.0  0.50982  0.37109  0.03540  1.0000
  I   I375      1.0  0.90223  0.59567  0.12248  1.0000
  I   I376      1.0  0.50597  0.61056  0.30505  1.0000
  I   I377      1.0  0.45984  0.65851  0.53233  1.0000
  I   I378      1.0  0.97161  0.37720  0.29678  1.0000
  I   I379      1.0  0.27817  0.60360  0.66782  1.0000
  I   I380      1.0  0.17821  0.61241  0.88453  1.0000
  I   I381      1.0  0.87580  0.46969  0.71203  1.0000
  I   I382      1.0  0.69329  0.20717  0.89677  1.0000
  I   I383      1.0  0.52151  0.42064  0.34305  1.0000
  I   I384      1.0  0.22319  0.53518  0.09759  1.0000
