data_image0
_chemical_formula_structural       Ti96I384
_chemical_formula_sum              "Ti96 I384"
_cell_length_a       74.8021
_cell_length_b       74.727
_cell_length_c       36.6219
_cell_angle_alpha    88.7757
_cell_angle_beta     88.7757
_cell_angle_gamma    62.1586

_space_group_name_H-M_alt    "P 1"
_space_group_IT_number       1

loop_
  _space_group_symop_operation_xyz
  'x, y, z'

loop_
  _atom_site_type_symbol
  _atom_site_label
  _atom_site_symmetry_multiplicity
  _atom_site_fract_x
  _atom_site_fract_y
  _atom_site_fract_z
  _atom_site_occupancy
  Ti  Ti1       1.0  0.79561  0.17301  0.88130  1.0000
  Ti  Ti2       1.0  0.47426  0.68567  0.52038  1.0000
  Ti  Ti3       1.0  0.11128  0.99207  0.28299  1.0000
  Ti  Ti4       1.0  0.10622  0.28744  0.04254  1.0000
  Ti  Ti5       1.0  0.21603  0.05646  0.75300  1.0000
  Ti  Ti6       1.0  0.43972  0.36440  0.31784  1.0000
  Ti  Ti7       1.0  0.65717  0.14721  0.91235  1.0000
  Ti  Ti8       1.0  0.32404  0.72340  0.12629  1.0000
  Ti  Ti9       1.0  0.22191  0.39520  0.58602  1.0000
  Ti  Ti10      1.0  0.59664  0.79288  0.30649  1.0000
  Ti  Ti11      1.0  0.31922  0.06943  0.59574  1.0000
  Ti  Ti12      1.0  0.93725  0.14437  0.54439  1.0000
  Ti  Ti13      1.0  0.74990  0.75850  0.44102  1.0000
  Ti  Ti14      1.0  0.08575  0.33466  0.11990  1.0000
  Ti  Ti15      1.0  0.84160  0.52025  0.68194  1.0000
  Ti  Ti16      1.0  0.18979  0.49437  0.39577  1.0000
  Ti  Ti17      1.0  0.05786  0.95902  0.59828  1.0000
  Ti  Ti18      1.0  0.27276  0.19649  0.15269  1.0000
  Ti  Ti19      1.0  0.88668  0.02141  0.86462  1.0000
  Ti  Ti20      1.0  0.18796  0.53546  0.02715  1.0000
  Ti  Ti21      1.0  0.27738  0.70674  0.09207  1.0000
  Ti  Ti22      1.0  0.84114  0.36360  0.65545  1.0000
  Ti  Ti23      1.0  0.06044  0.76728  0.67405  1.0000
  Ti  Ti24      1.0  0.74182  0.30331  0.07102  1.0000
  Ti  Ti25      1.0  0.72436  0.54213  0.37018  1.0000
  Ti  Ti26      1.0  0.84029  0.96049  0.91153  1.0000
  Ti  Ti27      1.0  0.44709  0.49639  0.08264  1.0000
  Ti  Ti28      1.0  0.42702  0.12389  0.73945  1.0000
  Ti  Ti29      1.0  0.33081  0.90453  0.42955  1.0000
  Ti  Ti30      1.0  0.40551  0.84148  0.94303  1.0000
  Ti  Ti31      1.0  0.43290  0.59270  0.37909  1.0000
  Ti  Ti32      1.0  0.53493  0.74565  0.09059  1.0000
  Ti  Ti33      1.0  0.51607  0.45901  0.42774  1.0000
  Ti  Ti34      1.0  0.74803  0.60052  0.94544  1.0000
  Ti  Ti35      1.0  0.79106  0.73086  0.12403  1.0000
  Ti  Ti36      1.0  0.41602  0.24781  0.55470  1.0000
  Ti  Ti37      1.0  0.88240  0.63229  0.62364  1.0000
  Ti  Ti38      1.0  0.24602  0.35068  0.04355  1.0000
  Ti  Ti39      1.0  0.88208  0.48273  0.91786  1.0000
  Ti  Ti40      1.0  0.60971  0.72613  0.31418  1.0000
  Ti  Ti41      1.0  0.91056  0.49824  0.30667  1.0000
  Ti  Ti42      1.0  0.99558  0.54018  0.22188  1.0000
  Ti  Ti43      1.0  0.98480  0.87836  0.72335  1.0000
  Ti  Ti44      1.0  0.92235  0.38752  0.24716  1.0000
  Ti  Ti45      1.0  0.39718  0.17333  0.22197  1.0000
  Ti  Ti46      1.0  0.67339  0.00514  0.05804  1.0000
  Ti  Ti47      1.0  0.13257  0.91422  0.83635  1.0000
  Ti  Ti48      1.0  0.05593  0.07155  0.81195  1.0000
  Ti  Ti49      1.0  0.01814  0.90676  0.67204  1.0000
  Ti  Ti50      1.0  0.04502  0.13939  0.48994  1.0000
  Ti  Ti51      1.0  0.43696  0.65779  0.51508  1.0000
  Ti  Ti52      1.0  0.65988  0.46126  0.75653  1.0000
  Ti  Ti53      1.0  0.18215  0.81744  0.57896  1.0000
  Ti  Ti54      1.0  0.49287  0.91383  0.34189  1.0000
  Ti  Ti55      1.0  0.56479  0.76877  0.06066  1.0000
  Ti  Ti56      1.0  0.56886  0.88248  0.13565  1.0000
  Ti  Ti57      1.0  0.18533  0.41315  0.54093  1.0000
  Ti  Ti58      1.0  0.34302  0.85305  0.69848  1.0000
  Ti  Ti59      1.0  0.47087  0.51560  0.86262  1.0000
  Ti  Ti60      1.0  0.98453  0.09183  0.52953  1.0000
  Ti  Ti61      1.0  0.76304  0.74792  0.93176  1.0000
  Ti  Ti62      1.0  0.80658  0.75847  0.46441  1.0000
  Ti  Ti63      1.0  0.14061  0.52118  0.06340  1.0000
  Ti  Ti64      1.0  0.28527  0.16239  0.18074  1.0000
  Ti  Ti65      1.0  0.12177  0.81939  0.02348  1.0000
  Ti  Ti66      1.0  0.32309  0.30791  0.33768  1.0000
  Ti  Ti67      1.0  0.17130  0.20757  0.37905  1.0000
  Ti  Ti68      1.0  0.46101  0.22327  0.24256  1.0000
  Ti  Ti69      1.0  0.86588  0.93652  0.97428  1.0000
  Ti  Ti70      1.0  0.17014  0.17291  0.31878  1.0000
  Ti  Ti71      1.0  0.84278  0.78639  0.14100  1.0000
  Ti  Ti72      1.0  0.16926  0.91073  0.77575  1.0000
  Ti  Ti73      1.0  0.49780  0.49042  0.11042  1.0000
  Ti  Ti74      1.0  0.70191  0.50988  0.44618  1.0000
  Ti  Ti75      1.0  0.41389  0.16295  0.90894  1.0000
  Ti  Ti76      1.0  0.38648  0.10625  0.71786  1.0000
  Ti  Ti77      1.0  0.80535  0.50945  0.61087  1.0000
  Ti  Ti78      1.0  0.29968  0.87913  0.41854  1.0000
  Ti  Ti79      1.0  0.33614  0.74361  0.77213  1.0000
  Ti  Ti80      1.0  0.29550  0.01210  0.03645  1.0000
  Ti  Ti81      1.0  0.80600  0.63948  0.86464  1.0000
  Ti  Ti82      1.0  0.79351  0.38159  0.33377  1.0000
  Ti  Ti83      1.0  0.02317  0.42659  0.77393  1.0000
  Ti  Ti84      1.0  0.45416  0.20741  0.59816  1.0000
  Ti  Ti85      1.0  0.91640  0.57857  0.65514  1.0000
  Ti  Ti86      1.0  0.65245  0.18600  0.93639  1.0000
  Ti  Ti87      1.0  0.40765  0.15739  0.11314  1.0000
  Ti  Ti88      1.0  0.60582  0.01462  0.42137  1.0000
  Ti  Ti89      1.0  0.32121  0.45636  0.12643  1.0000
  Ti  Ti90      1.0  0.07433  0.44514  0.12251  1.0000
  Ti  Ti91      1.0  0.22026  0.79757  0.22145  1.0000
  Ti  Ti92      1.0  0.86150  0.13574  0.57289  1.0000
  Ti  Ti93      1.0  0.68913  0.36578  0.50061  1.0000
  Ti  Ti94      1.0  0.01060  0.08368  0.82871  1.0000
  Ti  Ti95      1.0  0.91157  0.39947  0.68957  1.0000
  Ti  Ti96      1.0  0.85520  0.32160  0.73624  1.0000
  I   I1        1.0  0.17188  0.90401  0.85679  1.0000
  I   I2        1.0  0.50729  0.67690  0.47953  1.0000
  I   I3        1.0  0.02404  0.92441  0.72980  1.0000
  I   I4        1.0  0.18227  0.79318  0.53050  1.0000
  I   I5        1.0  0.47015  0.34672  0.35560  1.0000
  I   I6        1.0  0.45705  0.92001  0.32468  1.0000
  I   I7        1.0  0.34964  0.68391  0.10931  1.0000
  I   I8        1.0  0.55932  0.92219  0.13093  1.0000
  I   I9        1.0  0.15735  0.44095  0.58006  1.0000
  I   I10       1.0  0.57176  0.82485  0.34616  1.0000
  I   I11       1.0  0.28995  0.07756  0.64669  1.0000
  I   I12       1.0  0.20900  0.03564  0.80637  1.0000
  I   I13       1.0  0.76603  0.77725  0.49400  1.0000
  I   I14       1.0  0.12045  0.50211  0.06824  1.0000
  I   I15       1.0  0.82139  0.47946  0.56954  1.0000
  I   I16       1.0  0.59116  0.80833  0.23665  1.0000
  I   I17       1.0  0.28796  0.31024  0.32801  1.0000
  I   I18       1.0  0.24427  0.19614  0.20521  1.0000
  I   I19       1.0  0.19938  0.55422  0.08372  1.0000
  I   I20       1.0  0.31662  0.03715  0.58690  1.0000
  I   I21       1.0  0.34961  0.73203  0.08955  1.0000
  I   I22       1.0  0.02558  0.76887  0.68270  1.0000
  I   I23       1.0  0.87399  0.78246  0.17582  1.0000
  I   I24       1.0  0.15307  0.24809  0.41142  1.0000
  I   I25       1.0  0.74433  0.55434  0.41918  1.0000
  I   I26       1.0  0.44954  0.15808  0.88443  1.0000
  I   I27       1.0  0.45416  0.47865  0.14744  1.0000
  I   I28       1.0  0.44334  0.14004  0.68095  1.0000
  I   I29       1.0  0.26583  0.88827  0.36905  1.0000
  I   I30       1.0  0.39751  0.86931  0.99543  1.0000
  I   I31       1.0  0.29463  0.97997  0.01605  1.0000
  I   I32       1.0  0.82372  0.64632  0.80635  1.0000
  I   I33       1.0  0.30933  0.73681  0.73900  1.0000
  I   I34       1.0  0.77136  0.71243  0.14420  1.0000
  I   I35       1.0  0.47477  0.19675  0.65707  1.0000
  I   I36       1.0  0.75729  0.60546  0.01383  1.0000
  I   I37       1.0  0.95365  0.55384  0.64241  1.0000
  I   I38       1.0  0.84672  0.51735  0.91140  1.0000
  I   I39       1.0  0.90354  0.59146  0.58538  1.0000
  I   I40       1.0  0.90719  0.42310  0.21595  1.0000
  I   I41       1.0  0.03733  0.47310  0.12938  1.0000
  I   I42       1.0  0.64990  0.70014  0.30208  1.0000
  I   I43       1.0  0.30966  0.88120  0.72114  1.0000
  I   I44       1.0  0.96264  0.36567  0.23410  1.0000
  I   I45       1.0  0.40952  0.15066  0.28044  1.0000
  I   I46       1.0  0.90617  0.39522  0.61695  1.0000
  I   I47       1.0  0.13262  0.89613  0.90134  1.0000
  I   I48       1.0  0.02539  0.11243  0.81614  1.0000
  I   I49       1.0  0.99156  0.84128  0.74224  1.0000
  I   I50       1.0  0.48035  0.64634  0.52100  1.0000
  I   I51       1.0  0.48669  0.68718  0.58328  1.0000
  I   I52       1.0  0.28978  0.01310  0.10872  1.0000
  I   I53       1.0  0.22099  0.81288  0.58520  1.0000
  I   I54       1.0  0.50263  0.94292  0.33081  1.0000
  I   I55       1.0  0.62698  0.16594  0.96335  1.0000
  I   I56       1.0  0.30168  0.68930  0.03471  1.0000
  I   I57       1.0  0.90857  0.42224  0.76196  1.0000
  I   I58       1.0  0.62909  0.78556  0.34370  1.0000
  I   I59       1.0  0.50157  0.52469  0.85668  1.0000
  I   I60       1.0  0.00816  0.09772  0.57863  1.0000
  I   I61       1.0  0.75514  0.72995  0.48309  1.0000
  I   I62       1.0  0.82442  0.77527  0.41898  1.0000
  I   I63       1.0  0.12217  0.54326  0.11641  1.0000
  I   I64       1.0  0.15624  0.51495  0.43624  1.0000
  I   I65       1.0  0.11784  0.79748  0.07464  1.0000
  I   I66       1.0  0.33020  0.30379  0.40906  1.0000
  I   I67       1.0  0.88516  0.02382  0.93554  1.0000
  I   I68       1.0  0.22748  0.51617  0.00840  1.0000
  I   I69       1.0  0.90752  0.91181  0.95078  1.0000
  I   I70       1.0  0.14026  0.22624  0.33280  1.0000
  I   I71       1.0  0.06162  0.80443  0.67269  1.0000
  I   I72       1.0  0.15319  0.88177  0.79570  1.0000
  I   I73       1.0  0.47339  0.49121  0.03088  1.0000
  I   I74       1.0  0.81465  0.99219  0.87125  1.0000
  I   I75       1.0  0.83043  0.93714  0.88068  1.0000
  I   I76       1.0  0.79472  0.53658  0.56121  1.0000
  I   I77       1.0  0.83927  0.54859  0.72963  1.0000
  I   I78       1.0  0.77434  0.18239  0.93921  1.0000
  I   I79       1.0  0.48469  0.45070  0.42036  1.0000
  I   I80       1.0  0.40941  0.62101  0.33233  1.0000
  I   I81       1.0  0.49322  0.76431  0.10716  1.0000
  I   I82       1.0  0.81591  0.39515  0.36906  1.0000
  I   I83       1.0  0.99431  0.45099  0.81364  1.0000
  I   I84       1.0  0.44195  0.18059  0.60908  1.0000
  I   I85       1.0  0.87019  0.61291  0.66925  1.0000
  I   I86       1.0  0.35049  0.27480  0.30858  1.0000
  I   I87       1.0  0.87111  0.45854  0.94944  1.0000
  I   I88       1.0  0.61228  0.70380  0.37250  1.0000
  I   I89       1.0  0.90896  0.50013  0.23996  1.0000
  I   I90       1.0  0.09745  0.43993  0.18370  1.0000
  I   I91       1.0  0.21261  0.76852  0.24095  1.0000
  I   I92       1.0  0.86110  0.10263  0.59661  1.0000
  I   I93       1.0  0.91969  0.36122  0.20097  1.0000
  I   I94       1.0  0.01130  0.09082  0.90246  1.0000
  I   I95       1.0  0.68218  0.99143  0.13219  1.0000
  I   I96       1.0  0.87197  0.34525  0.71970  1.0000
  I   I97       1.0  0.07386  0.02496  0.28172  1.0000
  I   I98       1.0  0.79901  0.15606  0.81717  1.0000
  I   I99       1.0  0.40347  0.67446  0.47957  1.0000
  I   I100      1.0  0.08760  0.26853  0.02176  1.0000
  I   I101      1.0  0.56655  0.03841  0.42204  1.0000
  I   I102      1.0  0.18741  0.09319  0.77695  1.0000
  I   I103      1.0  0.61983  0.22074  0.97390  1.0000
  I   I104      1.0  0.55656  0.72196  0.14572  1.0000
  I   I105      1.0  0.24341  0.35735  0.62149  1.0000
  I   I106      1.0  0.92121  0.15216  0.48136  1.0000
  I   I107      1.0  0.60009  0.75733  0.25661  1.0000
  I   I108      1.0  0.94708  0.17248  0.54519  1.0000
  I   I109      1.0  0.87270  0.48852  0.70970  1.0000
  I   I110      1.0  0.79584  0.73796  0.40919  1.0000
  I   I111      1.0  0.18063  0.51435  0.09023  1.0000
  I   I112      1.0  0.30599  0.16825  0.11976  1.0000
  I   I113      1.0  0.16290  0.80791  0.01109  1.0000
  I   I114      1.0  0.03654  0.98825  0.64479  1.0000
  I   I115      1.0  0.16581  0.17456  0.40173  1.0000
  I   I116      1.0  0.20162  0.17686  0.34006  1.0000
  I   I117      1.0  0.42507  0.25405  0.23188  1.0000
  I   I118      1.0  0.87355  0.35408  0.60804  1.0000
  I   I119      1.0  0.13184  0.17919  0.32314  1.0000
  I   I120      1.0  0.20575  0.88750  0.77045  1.0000
  I   I121      1.0  0.49844  0.49545  0.17597  1.0000
  I   I122      1.0  0.74876  0.53414  0.31328  1.0000
  I   I123      1.0  0.41817  0.12708  0.92307  1.0000
  I   I124      1.0  0.44404  0.83081  0.94037  1.0000
  I   I125      1.0  0.42488  0.14503  0.79922  1.0000
  I   I126      1.0  0.29102  0.86144  0.47248  1.0000
  I   I127      1.0  0.51302  0.47718  0.36545  1.0000
  I   I128      1.0  0.06431  0.32676  0.06017  1.0000
  I   I129      1.0  0.80225  0.61254  0.82192  1.0000
  I   I130      1.0  0.44745  0.24891  0.57999  1.0000
  I   I131      1.0  0.76304  0.42020  0.33472  1.0000
  I   I132      1.0  0.77162  0.76675  0.15446  1.0000
  I   I133      1.0  0.90711  0.48184  0.96670  1.0000
  I   I134      1.0  0.26578  0.33887  0.10654  1.0000
  I   I135      1.0  0.32463  0.34254  0.32922  1.0000
  I   I136      1.0  0.98455  0.57857  0.21217  1.0000
  I   I137      1.0  0.62897  0.45809  0.78537  1.0000
  I   I138      1.0  0.31086  0.44481  0.19142  1.0000
  I   I139      1.0  0.18636  0.83034  0.23934  1.0000
  I   I140      1.0  0.83043  0.15670  0.52961  1.0000
  I   I141      1.0  0.65434  0.38840  0.51976  1.0000
  I   I142      1.0  0.02423  0.06637  0.75721  1.0000
  I   I143      1.0  0.10599  0.96288  0.25809  1.0000
  I   I144      1.0  0.82329  0.31401  0.73961  1.0000
  I   I145      1.0  0.83421  0.14734  0.91203  1.0000
  I   I146      1.0  0.46385  0.72203  0.50297  1.0000
  I   I147      1.0  0.13938  0.00251  0.28147  1.0000
  I   I148      1.0  0.68903  0.42657  0.77600  1.0000
  I   I149      1.0  0.20577  0.05963  0.68547  1.0000
  I   I150      1.0  0.40653  0.40270  0.33128  1.0000
  I   I151      1.0  0.54445  0.77412  0.13015  1.0000
  I   I152      1.0  0.32255  0.74004  0.19078  1.0000
  I   I153      1.0  0.21832  0.42134  0.53009  1.0000
  I   I154      1.0  0.05484  0.88336  0.65936  1.0000
  I   I155      1.0  0.35516  0.07013  0.60729  1.0000
  I   I156      1.0  0.00942  0.06736  0.47932  1.0000
  I   I157      1.0  0.82529  0.49092  0.67726  1.0000
  I   I158      1.0  0.11581  0.55007  0.02130  1.0000
  I   I159      1.0  0.74122  0.75476  0.99488  1.0000
  I   I160      1.0  0.26252  0.16034  0.12649  1.0000
  I   I161      1.0  0.03654  0.95508  0.55140  1.0000
  I   I162      1.0  0.30972  0.17306  0.21428  1.0000
  I   I163      1.0  0.86718  0.05964  0.85740  1.0000
  I   I164      1.0  0.46567  0.21790  0.31576  1.0000
  I   I165      1.0  0.25270  0.70220  0.04814  1.0000
  I   I166      1.0  0.88617  0.28502  0.72545  1.0000
  I   I167      1.0  0.07339  0.75391  0.60881  1.0000
  I   I168      1.0  0.77169  0.27365  0.10628  1.0000
  I   I169      1.0  0.70514  0.51793  0.36942  1.0000
  I   I170      1.0  0.71206  0.47171  0.44195  1.0000
  I   I171      1.0  0.44195  0.46380  0.07436  1.0000
  I   I172      1.0  0.38437  0.14435  0.71442  1.0000
  I   I173      1.0  0.32105  0.85714  0.36356  1.0000
  I   I174      1.0  0.39811  0.81330  0.95837  1.0000
  I   I175      1.0  0.43292  0.55661  0.37139  1.0000
  I   I176      1.0  0.53440  0.71441  0.06491  1.0000
  I   I177      1.0  0.30884  0.76462  0.82812  1.0000
  I   I178      1.0  0.78626  0.35965  0.38524  1.0000
  I   I179      1.0  0.06125  0.39833  0.79039  1.0000
  I   I180      1.0  0.43217  0.21155  0.51532  1.0000
  I   I181      1.0  0.91801  0.55627  0.71247  1.0000
  I   I182      1.0  0.63290  0.18529  0.87898  1.0000
  I   I183      1.0  0.42601  0.16590  0.17271  1.0000
  I   I184      1.0  0.61675  0.02910  0.47309  1.0000
  I   I185      1.0  0.33160  0.48474  0.13004  1.0000
  I   I186      1.0  0.97230  0.55206  0.27657  1.0000
  I   I187      1.0  0.85302  0.16421  0.61777  1.0000
  I   I188      1.0  0.89664  0.39676  0.29956  1.0000
  I   I189      1.0  0.38751  0.21179  0.24695  1.0000
  I   I190      1.0  0.68828  0.03055  0.04217  1.0000
  I   I191      1.0  0.01121  0.17098  0.51103  1.0000
  I   I192      1.0  0.14009  0.96338  0.32142  1.0000
  I   I193      1.0  0.31891  0.90356  0.36443  1.0000
  I   I194      1.0  0.04851  0.11733  0.54648  1.0000
  I   I195      1.0  0.11295  0.00654  0.20557  1.0000
  I   I196      1.0  0.14373  0.26661  0.06248  1.0000
  I   I197      1.0  0.37400  0.85133  0.72675  1.0000
  I   I198      1.0  0.45337  0.37369  0.25546  1.0000
  I   I199      1.0  0.57717  0.73089  0.06480  1.0000
  I   I200      1.0  0.54371  0.88304  0.19164  1.0000
  I   I201      1.0  0.23980  0.41113  0.62369  1.0000
  I   I202      1.0  0.44558  0.55291  0.84794  1.0000
  I   I203      1.0  0.86699  0.97221  0.96072  1.0000
  I   I204      1.0  0.90657  0.16461  0.59533  1.0000
  I   I205      1.0  0.82069  0.72074  0.49091  1.0000
  I   I206      1.0  0.06167  0.33918  0.17453  1.0000
  I   I207      1.0  0.77144  0.50962  0.61961  1.0000
  I   I208      1.0  0.20680  0.51574  0.38837  1.0000
  I   I209      1.0  0.06738  0.92813  0.64401  1.0000
  I   I210      1.0  0.32839  0.76852  0.70972  1.0000
  I   I211      1.0  0.16010  0.17729  0.24789  1.0000
  I   I212      1.0  0.17394  0.55912  0.97414  1.0000
  I   I213      1.0  0.86376  0.93512  0.05015  1.0000
  I   I214      1.0  0.80955  0.39242  0.62011  1.0000
  I   I215      1.0  0.09802  0.74769  0.69583  1.0000
  I   I216      1.0  0.69400  0.33399  0.53800  1.0000
  I   I217      1.0  0.69691  0.57466  0.33968  1.0000
  I   I218      1.0  0.37824  0.17988  0.88232  1.0000
  I   I219      1.0  0.46271  0.52499  0.11098  1.0000
  I   I220      1.0  0.80018  0.54265  0.66812  1.0000
  I   I221      1.0  0.33861  0.93315  0.46305  1.0000
  I   I222      1.0  0.39369  0.09400  0.64434  1.0000
  I   I223      1.0  0.46405  0.58267  0.34233  1.0000
  I   I224      1.0  0.52867  0.78371  0.01982  1.0000
  I   I225      1.0  0.50134  0.48755  0.48224  1.0000
  I   I226      1.0  0.75880  0.38724  0.28887  1.0000
  I   I227      1.0  0.79363  0.72749  0.05230  1.0000
  I   I228      1.0  0.37740  0.27324  0.54869  1.0000
  I   I229      1.0  0.09201  0.94303  0.56676  1.0000
  I   I230      1.0  0.23951  0.38161  0.00578  1.0000
  I   I231      1.0  0.89071  0.47334  0.84747  1.0000
  I   I232      1.0  0.10985  0.34747  0.13909  1.0000
  I   I233      1.0  0.94078  0.45818  0.32513  1.0000
  I   I234      1.0  0.07209  0.41121  0.13053  1.0000
  I   I235      1.0  0.96960  0.92857  0.70010  1.0000
  I   I236      1.0  0.71480  0.37758  0.51603  1.0000
  I   I237      1.0  0.21272  0.80210  0.15451  1.0000
  I   I238      1.0  0.94299  0.40609  0.65890  1.0000
  I   I239      1.0  0.82020  0.37627  0.72336  1.0000
  I   I240      1.0  0.08455  0.06077  0.86208  1.0000
  I   I241      1.0  0.79272  0.20713  0.86316  1.0000
  I   I242      1.0  0.43536  0.69671  0.48319  1.0000
  I   I243      1.0  0.69124  0.97293  0.02232  1.0000
  I   I244      1.0  0.61546  0.03436  0.36934  1.0000
  I   I245      1.0  0.14621  0.85201  0.56508  1.0000
  I   I246      1.0  0.42617  0.33572  0.32449  1.0000
  I   I247      1.0  0.69135  0.14609  0.89408  1.0000
  I   I248      1.0  0.29495  0.74214  0.08621  1.0000
  I   I249      1.0  0.19388  0.40120  0.63820  1.0000
  I   I250      1.0  0.47421  0.50264  0.79774  1.0000
  I   I251      1.0  0.32411  0.07143  0.52675  1.0000
  I   I252      1.0  0.97631  0.12768  0.49674  1.0000
  I   I253      1.0  0.71454  0.78574  0.45934  1.0000
  I   I254      1.0  0.05787  0.36798  0.09431  1.0000
  I   I255      1.0  0.77977  0.77019  0.93943  1.0000
  I   I256      1.0  0.08834  0.85586  0.02026  1.0000
  I   I257      1.0  0.92288  0.61020  0.66466  1.0000
  I   I258      1.0  0.26897  0.22706  0.19283  1.0000
  I   I259      1.0  0.19289  0.22693  0.35472  1.0000
  I   I260      1.0  0.48275  0.24077  0.22125  1.0000
  I   I261      1.0  0.24778  0.74053  0.12676  1.0000
  I   I262      1.0  0.84182  0.32748  0.64954  1.0000
  I   I263      1.0  0.84877  0.75410  0.10071  1.0000
  I   I264      1.0  0.41472  0.23720  0.62123  1.0000
  I   I265      1.0  0.69786  0.55044  0.44387  1.0000
  I   I266      1.0  0.82072  0.97081  0.97334  1.0000
  I   I267      1.0  0.50527  0.45429  0.09596  1.0000
  I   I268      1.0  0.38854  0.11619  0.78628  1.0000
  I   I269      1.0  0.28919  0.91700  0.45255  1.0000
  I   I270      1.0  0.43265  0.09253  0.70008  1.0000
  I   I271      1.0  0.41078  0.60516  0.43584  1.0000
  I   I272      1.0  0.82869  0.64361  0.91541  1.0000
  I   I273      1.0  0.54450  0.42446  0.41391  1.0000
  I   I274      1.0  0.70928  0.61800  0.95721  1.0000
  I   I275      1.0  0.82704  0.70948  0.14922  1.0000
  I   I276      1.0  0.48159  0.19345  0.53789  1.0000
  I   I277      1.0  0.81518  0.37565  0.27595  1.0000
  I   I278      1.0  0.20987  0.35993  0.07487  1.0000
  I   I279      1.0  0.35499  0.19165  0.21203  1.0000
  I   I280      1.0  0.64374  0.47293  0.69316  1.0000
  I   I281      1.0  0.87780  0.49251  0.32015  1.0000
  I   I282      1.0  0.02883  0.52453  0.25842  1.0000
  I   I283      1.0  0.94626  0.90190  0.72207  1.0000
  I   I284      1.0  0.73095  0.28025  0.03008  1.0000
  I   I285      1.0  0.43838  0.14019  0.06970  1.0000
  I   I286      1.0  0.93511  0.36431  0.71535  1.0000
  I   I287      1.0  0.09828  0.91850  0.81970  1.0000
  I   I288      1.0  0.07102  0.06542  0.74477  1.0000
  I   I289      1.0  0.99847  0.88414  0.65127  1.0000
  I   I290      1.0  0.04317  0.11801  0.43919  1.0000
  I   I291      1.0  0.42283  0.66317  0.58539  1.0000
  I   I292      1.0  0.66151  0.48935  0.79510  1.0000
  I   I293      1.0  0.16629  0.81199  0.63740  1.0000
  I   I294      1.0  0.51559  0.87781  0.31628  1.0000
  I   I295      1.0  0.66560  0.11339  0.94458  1.0000
  I   I296      1.0  0.56607  0.86963  0.07210  1.0000
  I   I297      1.0  0.20483  0.37429  0.54358  1.0000
  I   I298      1.0  0.34773  0.86144  0.63086  1.0000
  I   I299      1.0  0.20627  0.46369  0.44477  1.0000
  I   I300      1.0  0.71737  0.34069  0.44192  1.0000
  I   I301      1.0  0.75395  0.75437  0.85344  1.0000
  I   I302      1.0  0.73831  0.74825  0.38480  1.0000
  I   I303      1.0  0.59320  0.75915  0.36419  1.0000
  I   I304      1.0  0.25203  0.21428  0.09466  1.0000
  I   I305      1.0  0.16921  0.48759  0.34357  1.0000
  I   I306      1.0  0.64284  0.13504  0.85526  1.0000
  I   I307      1.0  0.92276  0.01149  0.84655  1.0000
  I   I308      1.0  0.17086  0.50690  0.01239  1.0000
  I   I309      1.0  0.30413  0.69226  0.14497  1.0000
  I   I310      1.0  0.01190  0.88199  0.76048  1.0000
  I   I311      1.0  0.82084  0.78308  0.19896  1.0000
  I   I312      1.0  0.15229  0.91893  0.71034  1.0000
  I   I313      1.0  0.52755  0.49369  0.07507  1.0000
  I   I314      1.0  0.72366  0.51337  0.49518  1.0000
  I   I315      1.0  0.41151  0.17584  0.97386  1.0000
  I   I316      1.0  0.34869  0.11608  0.72119  1.0000
  I   I317      1.0  0.46521  0.09646  0.75268  1.0000
  I   I318      1.0  0.33852  0.87060  0.45257  1.0000
  I   I319      1.0  0.34379  0.70732  0.79405  1.0000
  I   I320      1.0  0.10093  0.28922  0.11547  1.0000
  I   I321      1.0  0.59727  0.77345  0.08942  1.0000
  I   I322      1.0  0.75695  0.56372  0.94252  1.0000
  I   I323      1.0  0.03182  0.45335  0.74067  1.0000
  I   I324      1.0  0.42195  0.25962  0.48760  1.0000
  I   I325      1.0  0.85702  0.64401  0.57267  1.0000
  I   I326      1.0  0.66837  0.17465  0.00465  1.0000
  I   I327      1.0  0.40112  0.13480  0.16629  1.0000
  I   I328      1.0  0.59442  0.70772  0.27173  1.0000
  I   I329      1.0  0.28434  0.47614  0.10592  1.0000
  I   I330      1.0  0.09801  0.44169  0.06624  1.0000
  I   I331      1.0  0.39003  0.14167  0.06729  1.0000
  I   I332      1.0  0.33441  0.82237  0.70333  1.0000
  I   I333      1.0  0.90399  0.52133  0.36327  1.0000
  I   I334      1.0  0.97608  0.11468  0.80907  1.0000
  I   I335      1.0  0.63965  0.03266  0.02492  1.0000
  I   I336      1.0  0.85236  0.32685  0.80310  1.0000
  I   I337      1.0  0.00821  0.94011  0.62646  1.0000
  I   I338      1.0  0.07474  0.14460  0.50781  1.0000
  I   I339      1.0  0.44290  0.62118  0.52591  1.0000
  I   I340      1.0  0.32710  0.01681  0.03348  1.0000
  I   I341      1.0  0.25237  0.05162  0.76295  1.0000
  I   I342      1.0  0.49491  0.90813  0.41099  1.0000
  I   I343      1.0  0.58538  0.77781  0.00937  1.0000
  I   I344      1.0  0.60624  0.85904  0.14820  1.0000
  I   I345      1.0  0.16957  0.42790  0.47632  1.0000
  I   I346      1.0  0.19185  0.13214  0.31563  1.0000
  I   I347      1.0  0.45929  0.49928  0.90975  1.0000
  I   I348      1.0  0.96458  0.06842  0.54070  1.0000
  I   I349      1.0  0.79541  0.71401  0.91555  1.0000
  I   I350      1.0  0.81949  0.76400  0.52344  1.0000
  I   I351      1.0  0.10833  0.29541  0.97111  1.0000
  I   I352      1.0  0.26702  0.14089  0.21913  1.0000
  I   I353      1.0  0.10933  0.80946  0.96532  1.0000
  I   I354      1.0  0.66905  0.20163  0.88654  1.0000
  I   I355      1.0  0.87350  0.99403  0.85497  1.0000
  I   I356      1.0  0.46414  0.19036  0.20780  1.0000
  I   I357      1.0  0.87523  0.94808  0.87471  1.0000
  I   I358      1.0  0.71394  0.32627  0.11942  1.0000
  I   I359      1.0  0.82823  0.82101  0.09926  1.0000
  I   I360      1.0  0.17474  0.94059  0.78703  1.0000
  I   I361      1.0  0.41470  0.53340  0.06512  1.0000
  I   I362      1.0  0.67061  0.51804  0.48205  1.0000
  I   I363      1.0  0.86941  0.90026  0.97109  1.0000
  I   I364      1.0  0.39090  0.86404  0.88466  1.0000
  I   I365      1.0  0.84416  0.51276  0.60290  1.0000
  I   I366      1.0  0.36717  0.89284  0.40445  1.0000
  I   I367      1.0  0.37324  0.74492  0.77704  1.0000
  I   I368      1.0  0.26409  0.04590  0.02058  1.0000
  I   I369      1.0  0.76977  0.66022  0.89197  1.0000
  I   I370      1.0  0.74523  0.61360  0.88013  1.0000
  I   I371      1.0  0.01618  0.41421  0.71097  1.0000
  I   I372      1.0  0.73170  0.32393  0.00890  1.0000
  I   I373      1.0  0.86596  0.66511  0.66226  1.0000
  I   I374      1.0  0.22316  0.33902  0.99378  1.0000
  I   I375      1.0  0.38740  0.19551  0.08239  1.0000
  I   I376      1.0  0.62304  0.97498  0.41827  1.0000
  I   I377      1.0  0.33677  0.43158  0.07085  1.0000
  I   I378      1.0  0.98269  0.52611  0.16139  1.0000
  I   I379      1.0  0.26072  0.78689  0.21147  1.0000
  I   I380      1.0  0.90411  0.11549  0.56675  1.0000
  I   I381      1.0  0.96283  0.12031  0.59149  1.0000
  I   I382      1.0  0.04411  0.04792  0.84577  1.0000
  I   I383      1.0  0.87643  0.41226  0.72252  1.0000
  I   I384      1.0  0.12510  0.94903  0.80411  1.0000
