data_image0
_chemical_formula_structural       Ti96I384
_chemical_formula_sum              "Ti96 I384"
_cell_length_a       56.8969
_cell_length_b       57.6036
_cell_length_c       27.8003
_cell_angle_alpha    88.7757
_cell_angle_beta     88.7757
_cell_angle_gamma    62.1586

_space_group_name_H-M_alt    "P 1"
_space_group_IT_number       1

loop_
  _space_group_symop_operation_xyz
  'x, y, z'

loop_
  _atom_site_type_symbol
  _atom_site_label
  _atom_site_symmetry_multiplicity
  _atom_site_fract_x
  _atom_site_fract_y
  _atom_site_fract_z
  _atom_site_occupancy
  Ti  Ti1       1.0  0.88948  0.70058  0.01570  1.0000
  Ti  Ti2       1.0  0.84338  0.93518  0.06161  1.0000
  Ti  Ti3       1.0  0.88440  0.72241  0.42748  1.0000
  Ti  Ti4       1.0  0.35126  0.15924  0.26045  1.0000
  Ti  Ti5       1.0  0.13143  0.96734  0.86803  1.0000
  Ti  Ti6       1.0  0.11722  0.08932  0.36633  1.0000
  Ti  Ti7       1.0  0.95916  0.77868  0.74787  1.0000
  Ti  Ti8       1.0  0.10909  0.95522  0.53659  1.0000
  Ti  Ti9       1.0  0.72471  0.13808  0.76128  1.0000
  Ti  Ti10      1.0  0.43155  0.96067  0.24363  1.0000
  Ti  Ti11      1.0  0.16694  0.59269  0.83992  1.0000
  Ti  Ti12      1.0  0.77842  0.81544  0.73960  1.0000
  Ti  Ti13      1.0  0.43307  0.25811  0.89203  1.0000
  Ti  Ti14      1.0  0.21077  0.30812  0.37073  1.0000
  Ti  Ti15      1.0  0.26481  0.04452  0.77847  1.0000
  Ti  Ti16      1.0  0.01853  0.85326  0.35647  1.0000
  Ti  Ti17      1.0  0.15120  0.65929  0.11947  1.0000
  Ti  Ti18      1.0  0.00179  0.37322  0.26144  1.0000
  Ti  Ti19      1.0  0.70563  0.68706  0.21448  1.0000
  Ti  Ti20      1.0  0.71252  0.80051  0.33757  1.0000
  Ti  Ti21      1.0  0.38207  0.36738  0.12578  1.0000
  Ti  Ti22      1.0  0.46903  0.94521  0.52508  1.0000
  Ti  Ti23      1.0  0.58092  0.80140  0.81254  1.0000
  Ti  Ti24      1.0  0.57194  0.96941  0.57244  1.0000
  Ti  Ti25      1.0  0.24293  0.18406  0.63894  1.0000
  Ti  Ti26      1.0  0.17173  0.39715  0.80801  1.0000
  Ti  Ti27      1.0  0.27261  0.56208  0.46581  1.0000
  Ti  Ti28      1.0  0.51552  0.74635  0.50250  1.0000
  Ti  Ti29      1.0  0.76280  0.42163  0.50050  1.0000
  Ti  Ti30      1.0  0.83560  0.48148  0.55717  1.0000
  Ti  Ti31      1.0  0.69311  0.49119  0.07872  1.0000
  Ti  Ti32      1.0  0.98438  0.05095  0.38970  1.0000
  Ti  Ti33      1.0  0.93829  0.22229  0.70381  1.0000
  Ti  Ti34      1.0  0.94673  0.77127  0.24315  1.0000
  Ti  Ti35      1.0  0.71307  0.65467  0.93324  1.0000
  Ti  Ti36      1.0  0.97118  0.62659  0.75334  1.0000
  Ti  Ti37      1.0  0.79880  0.25561  0.26566  1.0000
  Ti  Ti38      1.0  0.61837  0.28545  0.38028  1.0000
  Ti  Ti39      1.0  0.32941  0.90195  0.42294  1.0000
  Ti  Ti40      1.0  0.37189  0.72681  0.95974  1.0000
  Ti  Ti41      1.0  0.67236  0.39448  0.69014  1.0000
  Ti  Ti42      1.0  0.50249  0.73988  0.18545  1.0000
  Ti  Ti43      1.0  0.90003  0.04428  0.86381  1.0000
  Ti  Ti44      1.0  0.92594  0.53170  0.37103  1.0000
  Ti  Ti45      1.0  0.06510  0.46313  0.08416  1.0000
  Ti  Ti46      1.0  0.56504  0.13082  0.55379  1.0000
  Ti  Ti47      1.0  0.37222  0.30961  0.42675  1.0000
  Ti  Ti48      1.0  0.51795  0.41459  0.10915  1.0000
  Ti  Ti49      1.0  0.87019  0.65190  0.91825  1.0000
  Ti  Ti50      1.0  0.83308  0.97967  0.15944  1.0000
  Ti  Ti51      1.0  0.86258  0.90222  0.93887  1.0000
  Ti  Ti52      1.0  0.29202  0.15941  0.30539  1.0000
  Ti  Ti53      1.0  0.15361  0.02714  0.93291  1.0000
  Ti  Ti54      1.0  0.16369  0.06369  0.23214  1.0000
  Ti  Ti55      1.0  0.96128  0.75034  0.86429  1.0000
  Ti  Ti56      1.0  0.13674  0.89587  0.58950  1.0000
  Ti  Ti57      1.0  0.71483  0.10446  0.85999  1.0000
  Ti  Ti58      1.0  0.09627  0.91710  0.94152  1.0000
  Ti  Ti59      1.0  0.45570  0.91211  0.15377  1.0000
  Ti  Ti60      1.0  0.73375  0.89729  0.74454  1.0000
  Ti  Ti61      1.0  0.23194  0.09112  0.91552  1.0000
  Ti  Ti62      1.0  0.42490  0.19980  0.98388  1.0000
  Ti  Ti63      1.0  0.23292  0.37077  0.32101  1.0000
  Ti  Ti64      1.0  0.96331  0.32967  0.16009  1.0000
  Ti  Ti65      1.0  0.02790  0.89677  0.26832  1.0000
  Ti  Ti66      1.0  0.27550  0.73465  0.71133  1.0000
  Ti  Ti67      1.0  0.77081  0.69524  0.12445  1.0000
  Ti  Ti68      1.0  0.72905  0.85379  0.42661  1.0000
  Ti  Ti69      1.0  0.35698  0.44193  0.06124  1.0000
  Ti  Ti70      1.0  0.53412  0.94755  0.48361  1.0000
  Ti  Ti71      1.0  0.54227  0.86324  0.91633  1.0000
  Ti  Ti72      1.0  0.51714  0.78434  0.74346  1.0000
  Ti  Ti73      1.0  0.26159  0.52254  0.53277  1.0000
  Ti  Ti74      1.0  0.32228  0.14702  0.68773  1.0000
  Ti  Ti75      1.0  0.13497  0.35690  0.74960  1.0000
  Ti  Ti76      1.0  0.81061  0.56424  0.60566  1.0000
  Ti  Ti77      1.0  0.52495  0.69052  0.47469  1.0000
  Ti  Ti78      1.0  0.75146  0.49461  0.54001  1.0000
  Ti  Ti79      1.0  0.01796  0.18431  0.69980  1.0000
  Ti  Ti80      1.0  0.69734  0.43385  0.01922  1.0000
  Ti  Ti81      1.0  0.93746  0.04177  0.28335  1.0000
  Ti  Ti82      1.0  0.01124  0.74951  0.21766  1.0000
  Ti  Ti83      1.0  0.70315  0.60835  0.89602  1.0000
  Ti  Ti84      1.0  0.93077  0.61475  0.64898  1.0000
  Ti  Ti85      1.0  0.76425  0.27291  0.13787  1.0000
  Ti  Ti86      1.0  0.54045  0.29166  0.38402  1.0000
  Ti  Ti87      1.0  0.28029  0.97234  0.40290  1.0000
  Ti  Ti88      1.0  0.31871  0.80355  0.93082  1.0000
  Ti  Ti89      1.0  0.66605  0.41375  0.79243  1.0000
  Ti  Ti90      1.0  0.51950  0.71695  0.03453  1.0000
  Ti  Ti91      1.0  0.02986  0.44865  0.95396  1.0000
  Ti  Ti92      1.0  0.83311  0.15233  0.56696  1.0000
  Ti  Ti93      1.0  0.99065  0.51808  0.36407  1.0000
  Ti  Ti94      1.0  0.56674  0.38958  0.02211  1.0000
  Ti  Ti95      1.0  0.55384  0.11479  0.64689  1.0000
  Ti  Ti96      1.0  0.41003  0.27024  0.52046  1.0000
  I   I1        1.0  0.87180  0.94663  0.21824  1.0000
  I   I2        1.0  0.84523  0.95805  0.97917  1.0000
  I   I3        1.0  0.91539  0.68664  0.09520  1.0000
  I   I4        1.0  0.16425  0.97039  0.79604  1.0000
  I   I5        1.0  0.15240  0.08795  0.42848  1.0000
  I   I6        1.0  0.17873  0.01000  0.22100  1.0000
  I   I7        1.0  0.12765  0.86745  0.51939  1.0000
  I   I8        1.0  0.12651  0.88282  0.67269  1.0000
  I   I9        1.0  0.73469  0.11893  0.67614  1.0000
  I   I10       1.0  0.45262  0.99293  0.21679  1.0000
  I   I11       1.0  0.13431  0.59750  0.77169  1.0000
  I   I12       1.0  0.14271  0.91773  0.87423  1.0000
  I   I13       1.0  0.43533  0.24278  0.98812  1.0000
  I   I14       1.0  0.24516  0.39566  0.38777  1.0000
  I   I15       1.0  0.30028  0.99686  0.77001  1.0000
  I   I16       1.0  0.03219  0.84411  0.25683  1.0000
  I   I17       1.0  0.22903  0.77699  0.71049  1.0000
  I   I18       1.0  0.97614  0.31023  0.07299  1.0000
  I   I19       1.0  0.73750  0.85474  0.51505  1.0000
  I   I20       1.0  0.42500  0.34798  0.17798  1.0000
  I   I21       1.0  0.37042  0.41711  0.15783  1.0000
  I   I22       1.0  0.53223  0.91434  0.91166  1.0000
  I   I23       1.0  0.60651  0.80197  0.73002  1.0000
  I   I24       1.0  0.54900  0.99113  0.47882  1.0000
  I   I25       1.0  0.28123  0.19874  0.66424  1.0000
  I   I26       1.0  0.17180  0.34435  0.80701  1.0000
  I   I27       1.0  0.25646  0.60573  0.50333  1.0000
  I   I28       1.0  0.54127  0.76374  0.55502  1.0000
  I   I29       1.0  0.72747  0.45805  0.57149  1.0000
  I   I30       1.0  0.81229  0.51746  0.64019  1.0000
  I   I31       1.0  0.66127  0.41820  0.00477  1.0000
  I   I32       1.0  0.89232  0.03945  0.30337  1.0000
  I   I33       1.0  0.97628  0.17446  0.74691  1.0000
  I   I34       1.0  0.69268  0.70684  0.93811  1.0000
  I   I35       1.0  0.92169  0.66380  0.62915  1.0000
  I   I36       1.0  0.04773  0.73457  0.15738  1.0000
  I   I37       1.0  0.75174  0.25519  0.23250  1.0000
  I   I38       1.0  0.30078  0.93791  0.48648  1.0000
  I   I39       1.0  0.78203  0.29616  0.07453  1.0000
  I   I40       1.0  0.64348  0.46735  0.77838  1.0000
  I   I41       1.0  0.56958  0.69079  0.00021  1.0000
  I   I42       1.0  0.36993  0.77634  0.91601  1.0000
  I   I43       1.0  0.88738  0.07387  0.77738  1.0000
  I   I44       1.0  0.94217  0.56836  0.35309  1.0000
  I   I45       1.0  0.05998  0.50686  0.11482  1.0000
  I   I46       1.0  0.56193  0.18052  0.54373  1.0000
  I   I47       1.0  0.33416  0.32691  0.36957  1.0000
  I   I48       1.0  0.48036  0.44796  0.05235  1.0000
  I   I49       1.0  0.87998  0.74773  0.01413  1.0000
  I   I50       1.0  0.79703  0.97721  0.09856  1.0000
  I   I51       1.0  0.90485  0.90427  0.90477  1.0000
  I   I52       1.0  0.30043  0.11253  0.29208  1.0000
  I   I53       1.0  0.11424  0.02019  0.89197  1.0000
  I   I54       1.0  0.12875  0.08996  0.16316  1.0000
  I   I55       1.0  0.91585  0.80902  0.70613  1.0000
  I   I56       1.0  0.07031  0.94630  0.57544  1.0000
  I   I57       1.0  0.73959  0.08086  0.77187  1.0000
  I   I58       1.0  0.42704  0.91316  0.24144  1.0000
  I   I59       1.0  0.38188  0.98908  0.25866  1.0000
  I   I60       1.0  0.72236  0.85574  0.74898  1.0000
  I   I61       1.0  0.46319  0.16115  0.03431  1.0000
  I   I62       1.0  0.39165  0.18397  0.95548  1.0000
  I   I63       1.0  0.16155  0.32697  0.36740  1.0000
  I   I64       1.0  0.97795  0.84481  0.35548  1.0000
  I   I65       1.0  0.02040  0.94266  0.29418  1.0000
  I   I66       1.0  0.28379  0.71420  0.79858  1.0000
  I   I67       1.0  0.80610  0.70452  0.16671  1.0000
  I   I68       1.0  0.73646  0.78411  0.25509  1.0000
  I   I69       1.0  0.40690  0.40573  0.04799  1.0000
  I   I70       1.0  0.52245  0.90708  0.49700  1.0000
  I   I71       1.0  0.58283  0.84383  0.85256  1.0000
  I   I72       1.0  0.49910  0.77536  0.81826  1.0000
  I   I73       1.0  0.31294  0.56574  0.41719  1.0000
  I   I74       1.0  0.17158  0.44354  0.78765  1.0000
  I   I75       1.0  0.14631  0.31065  0.71549  1.0000
  I   I76       1.0  0.52716  0.74859  0.40598  1.0000
  I   I77       1.0  0.52591  0.67829  0.37930  1.0000
  I   I78       1.0  0.77894  0.52501  0.51792  1.0000
  I   I79       1.0  0.04754  0.13397  0.70839  1.0000
  I   I80       1.0  0.74343  0.44619  0.04812  1.0000
  I   I81       1.0  0.96014  0.09668  0.34221  1.0000
  I   I82       1.0  0.98735  0.79793  0.19572  1.0000
  I   I83       1.0  0.71236  0.64278  0.83048  1.0000
  I   I84       1.0  0.94468  0.60066  0.56405  1.0000
  I   I85       1.0  0.73807  0.25068  0.10179  1.0000
  I   I86       1.0  0.49993  0.33843  0.38377  1.0000
  I   I87       1.0  0.37232  0.88706  0.47162  1.0000
  I   I88       1.0  0.40590  0.69798  0.89652  1.0000
  I   I89       1.0  0.69776  0.35901  0.78211  1.0000
  I   I90       1.0  0.46221  0.78701  0.17897  1.0000
  I   I91       1.0  0.02970  0.46214  0.86138  1.0000
  I   I92       1.0  0.82815  0.18168  0.63817  1.0000
  I   I93       1.0  0.99805  0.53503  0.27517  1.0000
  I   I94       1.0  0.53260  0.39952  0.95048  1.0000
  I   I95       1.0  0.52149  0.12507  0.72407  1.0000
  I   I96       1.0  0.38338  0.32820  0.52000  1.0000
  I   I97       1.0  0.92910  0.70568  0.38650  1.0000
  I   I98       1.0  0.83633  0.72477  0.01406  1.0000
  I   I99       1.0  0.82147  0.90395  0.01103  1.0000
  I   I100      1.0  0.35179  0.14439  0.35580  1.0000
  I   I101      1.0  0.31483  0.16495  0.19018  1.0000
  I   I102      1.0  0.17303  0.97034  0.94641  1.0000
  I   I103      1.0  0.00009  0.73276  0.92470  1.0000
  I   I104      1.0  0.97795  0.81193  0.72038  1.0000
  I   I105      1.0  0.68606  0.14234  0.91131  1.0000
  I   I106      1.0  0.76247  0.79708  0.67732  1.0000
  I   I107      1.0  0.49253  0.90999  0.21488  1.0000
  I   I108      1.0  0.68912  0.93679  0.77685  1.0000
  I   I109      1.0  0.18415  0.11273  0.96067  1.0000
  I   I110      1.0  0.43460  0.20841  0.88492  1.0000
  I   I111      1.0  0.20641  0.35921  0.40030  1.0000
  I   I112      1.0  0.04462  0.38122  0.24981  1.0000
  I   I113      1.0  0.99115  0.91489  0.20001  1.0000
  I   I114      1.0  0.11157  0.65742  0.16356  1.0000
  I   I115      1.0  0.71767  0.69908  0.11036  1.0000
  I   I116      1.0  0.79780  0.64523  0.09793  1.0000
  I   I117      1.0  0.76203  0.87084  0.40872  1.0000
  I   I118      1.0  0.53991  0.94006  0.39128  1.0000
  I   I119      1.0  0.43853  0.93146  0.48142  1.0000
  I   I120      1.0  0.52528  0.83035  0.76639  1.0000
  I   I121      1.0  0.23596  0.56992  0.39668  1.0000
  I   I122      1.0  0.34713  0.15773  0.75771  1.0000
  I   I123      1.0  0.17148  0.40010  0.89769  1.0000
  I   I124      1.0  0.84933  0.51891  0.53461  1.0000
  I   I125      1.0  0.57251  0.69305  0.48077  1.0000
  I   I126      1.0  0.75911  0.46924  0.45215  1.0000
  I   I127      1.0  0.92782  0.25607  0.63388  1.0000
  I   I128      1.0  0.72546  0.51387  0.09188  1.0000
  I   I129      1.0  0.99041  0.03419  0.28312  1.0000
  I   I130      1.0  0.99773  0.65258  0.73439  1.0000
  I   I131      1.0  0.91746  0.74939  0.27010  1.0000
  I   I132      1.0  0.68161  0.58711  0.95069  1.0000
  I   I133      1.0  0.29329  0.00683  0.43298  1.0000
  I   I134      1.0  0.57421  0.30587  0.32265  1.0000
  I   I135      1.0  0.66036  0.23897  0.39833  1.0000
  I   I136      1.0  0.53015  0.74898  0.25347  1.0000
  I   I137      1.0  0.31159  0.80742  0.84035  1.0000
  I   I138      1.0  0.71808  0.39671  0.68450  1.0000
  I   I139      1.0  0.03940  0.48997  0.98945  1.0000
  I   I140      1.0  0.78443  0.17026  0.54019  1.0000
  I   I141      1.0  0.02469  0.53482  0.39084  1.0000
  I   I142      1.0  0.58189  0.37196  0.10707  1.0000
  I   I143      1.0  0.61660  0.10757  0.53145  1.0000
  I   I144      1.0  0.41350  0.27651  0.61214  1.0000
  I   I145      1.0  0.88303  0.64906  0.01638  1.0000
  I   I146      1.0  0.87893  0.95344  0.07997  1.0000
  I   I147      1.0  0.86477  0.76965  0.45462  1.0000
  I   I148      1.0  0.24570  0.18751  0.26906  1.0000
  I   I149      1.0  0.14036  0.06955  0.88883  1.0000
  I   I150      1.0  0.08895  0.08348  0.43945  1.0000
  I   I151      1.0  0.92116  0.76544  0.91889  1.0000
  I   I152      1.0  0.08287  0.00447  0.54495  1.0000
  I   I153      1.0  0.74947  0.13316  0.85203  1.0000
  I   I154      1.0  0.08626  0.89987  0.85646  1.0000
  I   I155      1.0  0.16313  0.63339  0.88304  1.0000
  I   I156      1.0  0.83278  0.78979  0.74803  1.0000
  I   I157      1.0  0.25538  0.06528  0.99616  1.0000
  I   I158      1.0  0.20169  0.40497  0.25605  1.0000
  I   I159      1.0  0.22454  0.10011  0.81068  1.0000
  I   I160      1.0  0.99462  0.36095  0.16231  1.0000
  I   I161      1.0  0.13233  0.66407  0.03343  1.0000
  I   I162      1.0  0.96832  0.42075  0.24354  1.0000
  I   I163      1.0  0.70874  0.67180  0.30111  1.0000
  I   I164      1.0  0.66793  0.83832  0.31079  1.0000
  I   I165      1.0  0.39905  0.32292  0.07343  1.0000
  I   I166      1.0  0.47674  0.97613  0.45074  1.0000
  I   I167      1.0  0.62967  0.76788  0.84971  1.0000
  I   I168      1.0  0.57503  0.95064  0.66073  1.0000
  I   I169      1.0  0.25066  0.19324  0.55061  1.0000
  I   I170      1.0  0.27323  0.14425  0.70070  1.0000
  I   I171      1.0  0.29177  0.50684  0.44922  1.0000
  I   I172      1.0  0.85781  0.56231  0.64178  1.0000
  I   I173      1.0  0.77331  0.38389  0.56296  1.0000
  I   I174      1.0  0.80297  0.45860  0.58991  1.0000
  I   I175      1.0  0.69457  0.47378  0.96542  1.0000
  I   I176      1.0  0.91690  0.08734  0.23312  1.0000
  I   I177      1.0  0.91413  0.19790  0.66211  1.0000
  I   I178      1.0  0.96192  0.74614  0.15519  1.0000
  I   I179      1.0  0.70661  0.63332  0.01101  1.0000
  I   I180      1.0  0.93066  0.66286  0.79431  1.0000
  I   I181      1.0  0.81876  0.23816  0.17968  1.0000
  I   I182      1.0  0.53379  0.28598  0.47526  1.0000
  I   I183      1.0  0.34306  0.85069  0.38546  1.0000
  I   I184      1.0  0.39616  0.70817  0.03733  1.0000
  I   I185      1.0  0.67810  0.36437  0.61638  1.0000
  I   I186      1.0  0.48116  0.75319  0.98322  1.0000
  I   I187      1.0  0.84911  0.17036  0.49715  1.0000
  I   I188      1.0  0.87989  0.55176  0.32717  1.0000
  I   I189      1.0  0.07670  0.43490  0.16406  1.0000
  I   I190      1.0  0.50396  0.14863  0.60025  1.0000
  I   I191      1.0  0.40839  0.26611  0.37997  1.0000
  I   I192      1.0  0.48605  0.42192  0.18268  1.0000
  I   I193      1.0  0.85846  0.67827  0.83643  1.0000
  I   I194      1.0  0.83675  0.91160  0.13927  1.0000
  I   I195      1.0  0.84662  0.73243  0.36916  1.0000
  I   I196      1.0  0.39358  0.16315  0.25623  1.0000
  I   I197      1.0  0.10298  0.96023  0.94961  1.0000
  I   I198      1.0  0.14596  0.10628  0.30120  1.0000
  I   I199      1.0  0.97924  0.74515  0.68108  1.0000
  I   I200      1.0  0.18869  0.86465  0.60271  1.0000
  I   I201      1.0  0.71866  0.18455  0.75149  1.0000
  I   I202      1.0  0.41997  0.96448  0.13461  1.0000
  I   I203      1.0  0.14719  0.57739  0.91037  1.0000
  I   I204      1.0  0.77965  0.85709  0.69050  1.0000
  I   I205      1.0  0.47930  0.25356  0.87817  1.0000
  I   I206      1.0  0.23474  0.31910  0.29369  1.0000
  I   I207      1.0  0.24947  0.04442  0.87681  1.0000
  I   I208      1.0  0.05808  0.80512  0.39759  1.0000
  I   I209      1.0  0.14589  0.70340  0.14292  1.0000
  I   I210      1.0  0.99650  0.37438  0.35224  1.0000
  I   I211      1.0  0.76092  0.68345  0.21549  1.0000
  I   I212      1.0  0.69343  0.76801  0.35702  1.0000
  I   I213      1.0  0.32683  0.48407  0.10176  1.0000
  I   I214      1.0  0.43861  0.99229  0.55790  1.0000
  I   I215      1.0  0.53872  0.81365  0.89015  1.0000
  I   I216      1.0  0.62140  0.95196  0.54958  1.0000
  I   I217      1.0  0.20933  0.16735  0.62140  1.0000
  I   I218      1.0  0.22400  0.36230  0.79817  1.0000
  I   I219      1.0  0.22520  0.56857  0.58973  1.0000
  I   I220      1.0  0.52170  0.70726  0.57027  1.0000
  I   I221      1.0  0.73831  0.40966  0.43799  1.0000
  I   I222      1.0  0.86868  0.45206  0.49349  1.0000
  I   I223      1.0  0.64695  0.53665  0.07966  1.0000
  I   I224      1.0  0.03413  0.03393  0.39780  1.0000
  I   I225      1.0  0.90640  0.24975  0.77075  1.0000
  I   I226      1.0  0.96321  0.78182  0.32271  1.0000
  I   I227      1.0  0.76402  0.63754  0.95033  1.0000
  I   I228      1.0  0.98861  0.60283  0.66326  1.0000
  I   I229      1.0  0.84465  0.25355  0.29157  1.0000
  I   I230      1.0  0.59053  0.31848  0.44986  1.0000
  I   I231      1.0  0.23251  0.99068  0.42989  1.0000
  I   I232      1.0  0.33166  0.71654  0.96292  1.0000
  I   I233      1.0  0.63235  0.38405  0.72165  1.0000
  I   I234      1.0  0.51259  0.67718  0.99390  1.0000
  I   I235      1.0  0.91718  0.06824  0.92222  1.0000
  I   I236      1.0  0.96664  0.49292  0.41789  1.0000
  I   I237      1.0  0.02861  0.44816  0.06244  1.0000
  I   I238      1.0  0.54745  0.13963  0.46345  1.0000
  I   I239      1.0  0.38798  0.34142  0.38816  1.0000
  I   I240      1.0  0.54121  0.43678  0.16081  1.0000
  I   I241      1.0  0.90531  0.67844  0.93053  1.0000
  I   I242      1.0  0.89191  0.88765  0.02321  1.0000
  I   I243      1.0  0.87357  0.70251  0.50176  1.0000
  I   I244      1.0  0.37388  0.10657  0.24176  1.0000
  I   I245      1.0  0.13198  0.04868  0.01227  1.0000
  I   I246      1.0  0.06953  0.12217  0.33249  1.0000
  I   I247      1.0  0.00465  0.73590  0.79753  1.0000
  I   I248      1.0  0.11753  0.96548  0.44278  1.0000
  I   I249      1.0  0.67306  0.14949  0.78320  1.0000
  I   I250      1.0  0.43691  0.95867  0.34240  1.0000
  I   I251      1.0  0.21211  0.55225  0.82712  1.0000
  I   I252      1.0  0.77327  0.78146  0.79998  1.0000
  I   I253      1.0  0.40130  0.30944  0.92886  1.0000
  I   I254      1.0  0.22254  0.25959  0.34423  1.0000
  I   I255      1.0  0.23228  0.13614  0.93682  1.0000
  I   I256      1.0  0.05484  0.87166  0.36317  1.0000
  I   I257      1.0  0.18933  0.61173  0.13220  1.0000
  I   I258      1.0  0.94619  0.30008  0.19575  1.0000
  I   I259      1.0  0.69557  0.65096  0.18095  1.0000
  I   I260      1.0  0.72707  0.80471  0.43553  1.0000
  I   I261      1.0  0.35351  0.35811  0.19032  1.0000
  I   I262      1.0  0.48188  0.91841  0.61149  1.0000
  I   I263      1.0  0.57365  0.76347  0.77896  1.0000
  I   I264      1.0  0.55681  0.01431  0.60067  1.0000
  I   I265      1.0  0.21035  0.22032  0.70226  1.0000
  I   I266      1.0  0.11822  0.40600  0.80595  1.0000
  I   I267      1.0  0.30612  0.52975  0.53924  1.0000
  I   I268      1.0  0.47662  0.73584  0.45805  1.0000
  I   I269      1.0  0.80761  0.39348  0.45359  1.0000
  I   I270      1.0  0.86978  0.44997  0.62625  1.0000
  I   I271      1.0  0.70198  0.48653  0.16901  1.0000
  I   I272      1.0  0.98001  0.07121  0.47740  1.0000
  I   I273      1.0  0.99070  0.23477  0.73563  1.0000
  I   I274      1.0  0.91134  0.81898  0.23592  1.0000
  I   I275      1.0  0.75416  0.57874  0.89838  1.0000
  I   I276      1.0  0.99685  0.60284  0.82966  1.0000
  I   I277      1.0  0.78154  0.30767  0.24326  1.0000
  I   I278      1.0  0.64909  0.30663  0.35960  1.0000
  I   I279      1.0  0.26642  0.99007  0.31722  1.0000
  I   I280      1.0  0.26928  0.82102  0.97617  1.0000
  I   I281      1.0  0.69887  0.40904  0.86246  1.0000
  I   I282      1.0  0.49295  0.70751  0.24091  1.0000
  I   I283      1.0  0.93466  0.99662  0.86919  1.0000
  I   I284      1.0  0.90068  0.55486  0.45879  1.0000
  I   I285      1.0  0.11250  0.43126  0.04997  1.0000
  I   I286      1.0  0.56471  0.15049  0.66157  1.0000
  I   I287      1.0  0.45287  0.26654  0.47589  1.0000
  I   I288      1.0  0.57450  0.43009  0.00866  1.0000
  I   I289      1.0  0.90530  0.60800  0.88882  1.0000
  I   I290      1.0  0.82893  0.02694  0.15699  1.0000
  I   I291      1.0  0.84004  0.90733  0.86214  1.0000
  I   I292      1.0  0.30518  0.19973  0.30625  1.0000
  I   I293      1.0  0.20317  0.01477  0.92954  1.0000
  I   I294      1.0  0.20718  0.06694  0.20058  1.0000
  I   I295      1.0  0.93846  0.73387  0.80213  1.0000
  I   I296      1.0  0.13662  0.94544  0.62045  1.0000
  I   I297      1.0  0.73754  0.06548  0.92428  1.0000
  I   I298      1.0  0.05964  0.91245  0.98864  1.0000
  I   I299      1.0  0.48970  0.90564  0.08088  1.0000
  I   I300      1.0  0.75808  0.88503  0.82680  1.0000
  I   I301      1.0  0.25397  0.06243  0.69304  1.0000
  I   I302      1.0  0.41691  0.26552  0.80399  1.0000
  I   I303      1.0  0.22310  0.29135  0.47187  1.0000
  I   I304      1.0  0.92074  0.37549  0.15331  1.0000
  I   I305      1.0  0.07553  0.87156  0.22316  1.0000
  I   I306      1.0  0.31229  0.74518  0.68065  1.0000
  I   I307      1.0  0.65643  0.72716  0.21145  1.0000
  I   I308      1.0  0.72818  0.84159  0.31792  1.0000
  I   I309      1.0  0.35217  0.45130  0.97159  1.0000
  I   I310      1.0  0.52365  0.95910  0.58052  1.0000
  I   I311      1.0  0.49591  0.87922  0.95221  1.0000
  I   I312      1.0  0.53982  0.74229  0.68927  1.0000
  I   I313      1.0  0.27085  0.48608  0.59986  1.0000
  I   I314      1.0  0.35333  0.14157  0.61623  1.0000
  I   I315      1.0  0.15298  0.37671  0.67763  1.0000
  I   I316      1.0  0.78140  0.59302  0.66733  1.0000
  I   I317      1.0  0.52486  0.64337  0.48410  1.0000
  I   I318      1.0  0.73549  0.51708  0.61788  1.0000
  I   I319      1.0  0.99121  0.18728  0.62515  1.0000
  I   I320      1.0  0.65333  0.47227  0.07702  1.0000
  I   I321      1.0  0.94505  0.03970  0.38297  1.0000
  I   I322      1.0  0.03792  0.74694  0.29513  1.0000
  I   I323      1.0  0.68798  0.59410  0.82014  1.0000
  I   I324      1.0  0.88506  0.62072  0.66232  1.0000
  I   I325      1.0  0.71835  0.31903  0.14914  1.0000
  I   I326      1.0  0.59373  0.24904  0.39981  1.0000
  I   I327      1.0  0.28062  0.92126  0.36945  1.0000
  I   I328      1.0  0.31833  0.84752  0.94340  1.0000
  I   I329      1.0  0.64441  0.43961  0.65376  1.0000
  I   I330      1.0  0.48647  0.72089  0.10826  1.0000
  I   I331      1.0  0.98461  0.44817  0.95164  1.0000
  I   I332      1.0  0.85232  0.05177  0.88711  1.0000
  I   I333      1.0  0.95809  0.50045  0.29377  1.0000
  I   I334      1.0  0.61212  0.36020  0.98161  1.0000
  I   I335      1.0  0.59909  0.08094  0.68539  1.0000
  I   I336      1.0  0.35693  0.28190  0.49299  1.0000
  I   I337      1.0  0.83065  0.64154  0.93751  1.0000
  I   I338      1.0  0.79090  0.99850  0.21327  1.0000
  I   I339      1.0  0.87982  0.85144  0.93434  1.0000
  I   I340      1.0  0.28410  0.15724  0.39466  1.0000
  I   I341      1.0  0.09678  0.98171  0.79306  1.0000
  I   I342      1.0  0.13850  0.04397  0.31718  1.0000
  I   I343      1.0  0.93834  0.80417  0.84243  1.0000
  I   I344      1.0  0.15584  0.90943  0.50361  1.0000
  I   I345      1.0  0.67878  0.08603  0.87992  1.0000
  I   I346      1.0  0.13705  0.88592  0.99190  1.0000
  I   I347      1.0  0.45392  0.86809  0.14928  1.0000
  I   I348      1.0  0.74936  0.92975  0.70440  1.0000
  I   I349      1.0  0.30152  0.05632  0.80522  1.0000
  I   I350      1.0  0.39466  0.22303  0.05601  1.0000
  I   I351      1.0  0.27388  0.35350  0.26651  1.0000
  I   I352      1.0  0.96958  0.34787  0.26364  1.0000
  I   I353      1.0  0.98335  0.90499  0.33851  1.0000
  I   I354      1.0  0.28066  0.69967  0.65076  1.0000
  I   I355      1.0  0.75685  0.72271  0.04264  1.0000
  I   I356      1.0  0.68413  0.89690  0.41647  1.0000
  I   I357      1.0  0.33524  0.41082  0.05583  1.0000
  I   I358      1.0  0.58471  0.90993  0.50442  1.0000
  I   I359      1.0  0.57051  0.84776  0.99323  1.0000
  I   I360      1.0  0.48246  0.81525  0.67264  1.0000
  I   I361      1.0  0.22521  0.51186  0.49106  1.0000
  I   I362      1.0  0.35239  0.09851  0.72308  1.0000
  I   I363      1.0  0.08119  0.37312  0.74655  1.0000
  I   I364      1.0  0.79185  0.59366  0.52946  1.0000
  I   I365      1.0  0.47158  0.78720  0.52492  1.0000
  I   I366      1.0  0.70758  0.53458  0.49381  1.0000
  I   I367      1.0  0.05235  0.19797  0.65644  1.0000
  I   I368      1.0  0.72711  0.39362  0.06749  1.0000
  I   I369      1.0  0.95157  0.01056  0.20781  1.0000
  I   I370      1.0  0.99419  0.71494  0.26204  1.0000
  I   I371      1.0  0.66439  0.66082  0.90406  1.0000
  I   I372      1.0  0.93716  0.59747  0.75194  1.0000
  I   I373      1.0  0.79060  0.24661  0.35690  1.0000
  I   I374      1.0  0.51708  0.26880  0.33997  1.0000
  I   I375      1.0  0.33594  0.92953  0.34375  1.0000
  I   I376      1.0  0.33462  0.77038  0.02038  1.0000
  I   I377      1.0  0.63067  0.41347  0.85004  1.0000
  I   I378      1.0  0.53552  0.74116  0.10240  1.0000
  I   I379      1.0  0.06458  0.40134  0.94716  1.0000
  I   I380      1.0  0.86356  0.10470  0.58450  1.0000
  I   I381      1.0  0.02765  0.47334  0.33741  1.0000
  I   I382      1.0  0.52239  0.37250  0.05935  1.0000
  I   I383      1.0  0.56941  0.08482  0.55461  1.0000
  I   I384      1.0  0.42020  0.22192  0.52605  1.0000
