data_image0
_chemical_formula_structural       Ti96I384
_chemical_formula_sum              "Ti96 I384"
_cell_length_a       60.9656
_cell_length_b       61.0329
_cell_length_c       29.6058
_cell_angle_alpha    88.7757
_cell_angle_beta     88.7757
_cell_angle_gamma    62.1586

_space_group_name_H-M_alt    "P 1"
_space_group_IT_number       1

loop_
  _space_group_symop_operation_xyz
  'x, y, z'

loop_
  _atom_site_type_symbol
  _atom_site_label
  _atom_site_symmetry_multiplicity
  _atom_site_fract_x
  _atom_site_fract_y
  _atom_site_fract_z
  _atom_site_occupancy
  Ti  Ti1       1.0  0.78320  0.96387  0.51716  1.0000
  Ti  Ti2       1.0  0.50424  0.13162  0.56373  1.0000
  Ti  Ti3       1.0  0.93622  0.75680  0.86011  1.0000
  Ti  Ti4       1.0  0.41553  0.51464  0.37656  1.0000
  Ti  Ti5       1.0  0.11190  0.76825  0.20381  1.0000
  Ti  Ti6       1.0  0.47083  0.01118  0.03973  1.0000
  Ti  Ti7       1.0  0.02298  0.98579  0.10262  1.0000
  Ti  Ti8       1.0  0.10237  0.61157  0.15399  1.0000
  Ti  Ti9       1.0  0.98784  0.03012  0.55356  1.0000
  Ti  Ti10      1.0  0.88755  0.93526  0.05234  1.0000
  Ti  Ti11      1.0  0.30191  0.42205  0.83451  1.0000
  Ti  Ti12      1.0  0.20271  0.70784  0.60775  1.0000
  Ti  Ti13      1.0  0.36316  0.38568  0.48021  1.0000
  Ti  Ti14      1.0  0.25772  0.07715  0.66839  1.0000
  Ti  Ti15      1.0  0.50823  0.74144  0.97024  1.0000
  Ti  Ti16      1.0  0.86523  0.34274  0.74235  1.0000
  Ti  Ti17      1.0  0.25559  0.23259  0.55984  1.0000
  Ti  Ti18      1.0  0.71645  0.60178  0.59514  1.0000
  Ti  Ti19      1.0  0.67888  0.91320  0.19461  1.0000
  Ti  Ti20      1.0  0.39501  0.11828  0.70808  1.0000
  Ti  Ti21      1.0  0.48804  0.35996  0.14906  1.0000
  Ti  Ti22      1.0  0.49758  0.00061  0.50554  1.0000
  Ti  Ti23      1.0  0.59670  0.84404  0.00086  1.0000
  Ti  Ti24      1.0  0.39710  0.96022  0.49151  1.0000
  Ti  Ti25      1.0  0.14747  0.28851  0.09507  1.0000
  Ti  Ti26      1.0  0.87814  0.39117  0.35360  1.0000
  Ti  Ti27      1.0  0.36710  0.56318  0.76424  1.0000
  Ti  Ti28      1.0  0.72012  0.58491  0.96115  1.0000
  Ti  Ti29      1.0  0.03336  0.16749  0.20561  1.0000
  Ti  Ti30      1.0  0.90757  0.53086  0.09974  1.0000
  Ti  Ti31      1.0  0.69963  0.33980  0.43091  1.0000
  Ti  Ti32      1.0  0.70727  0.92842  0.80011  1.0000
  Ti  Ti33      1.0  0.50059  0.73254  0.25410  1.0000
  Ti  Ti34      1.0  0.71196  0.74969  0.60651  1.0000
  Ti  Ti35      1.0  0.83752  0.36497  0.13358  1.0000
  Ti  Ti36      1.0  0.04799  0.49845  0.92631  1.0000
  Ti  Ti37      1.0  0.14042  0.19729  0.37308  1.0000
  Ti  Ti38      1.0  0.56448  0.31059  0.55295  1.0000
  Ti  Ti39      1.0  0.45684  0.23050  0.02345  1.0000
  Ti  Ti40      1.0  0.84952  0.75049  0.35176  1.0000
  Ti  Ti41      1.0  0.68899  0.60216  0.29627  1.0000
  Ti  Ti42      1.0  0.96768  0.85663  0.61838  1.0000
  Ti  Ti43      1.0  0.27535  0.02936  0.97742  1.0000
  Ti  Ti44      1.0  0.79255  0.67260  0.15803  1.0000
  Ti  Ti45      1.0  0.58071  0.52835  0.73121  1.0000
  Ti  Ti46      1.0  0.14012  0.01654  0.85147  1.0000
  Ti  Ti47      1.0  0.81223  0.14130  0.03043  1.0000
  Ti  Ti48      1.0  0.36646  0.55814  0.13574  1.0000
  Ti  Ti49      1.0  0.83996  0.98865  0.55268  1.0000
  Ti  Ti50      1.0  0.69390  0.15550  0.11922  1.0000
  Ti  Ti51      1.0  0.54611  0.09921  0.65865  1.0000
  Ti  Ti52      1.0  0.39700  0.55873  0.45330  1.0000
  Ti  Ti53      1.0  0.06497  0.79661  0.13679  1.0000
  Ti  Ti54      1.0  0.43073  0.06271  0.03973  1.0000
  Ti  Ti55      1.0  0.08275  0.95248  0.08818  1.0000
  Ti  Ti56      1.0  0.13235  0.58141  0.06054  1.0000
  Ti  Ti57      1.0  0.04480  0.02630  0.54378  1.0000
  Ti  Ti58      1.0  0.28064  0.01624  0.09529  1.0000
  Ti  Ti59      1.0  0.91658  0.90756  0.19494  1.0000
  Ti  Ti60      1.0  0.24310  0.72697  0.55461  1.0000
  Ti  Ti61      1.0  0.46687  0.80405  0.96302  1.0000
  Ti  Ti62      1.0  0.35209  0.39240  0.35362  1.0000
  Ti  Ti63      1.0  0.18072  0.10889  0.75819  1.0000
  Ti  Ti64      1.0  0.70783  0.58558  0.68156  1.0000
  Ti  Ti65      1.0  0.92325  0.35199  0.66166  1.0000
  Ti  Ti66      1.0  0.68075  0.22339  0.64384  1.0000
  Ti  Ti67      1.0  0.66698  0.96941  0.07307  1.0000
  Ti  Ti68      1.0  0.43744  0.06023  0.74227  1.0000
  Ti  Ti69      1.0  0.48138  0.38732  0.02978  1.0000
  Ti  Ti70      1.0  0.46326  0.95253  0.54706  1.0000
  Ti  Ti71      1.0  0.60342  0.85447  0.12381  1.0000
  Ti  Ti72      1.0  0.81346  0.80147  0.14494  1.0000
  Ti  Ti73      1.0  0.35873  0.61442  0.77693  1.0000
  Ti  Ti74      1.0  0.13318  0.23983  0.11549  1.0000
  Ti  Ti75      1.0  0.82737  0.44821  0.35601  1.0000
  Ti  Ti76      1.0  0.88580  0.50118  0.00824  1.0000
  Ti  Ti77      1.0  0.65579  0.63135  0.96970  1.0000
  Ti  Ti78      1.0  0.06688  0.16663  0.12773  1.0000
  Ti  Ti79      1.0  0.46211  0.77611  0.34587  1.0000
  Ti  Ti80      1.0  0.63996  0.37911  0.52974  1.0000
  Ti  Ti81      1.0  0.76012  0.87548  0.83879  1.0000
  Ti  Ti82      1.0  0.75955  0.77373  0.65415  1.0000
  Ti  Ti83      1.0  0.83239  0.31906  0.02808  1.0000
  Ti  Ti84      1.0  0.01202  0.58312  0.94691  1.0000
  Ti  Ti85      1.0  0.17497  0.13763  0.39614  1.0000
  Ti  Ti86      1.0  0.60859  0.22822  0.60178  1.0000
  Ti  Ti87      1.0  0.53289  0.21196  0.98222  1.0000
  Ti  Ti88      1.0  0.83554  0.73415  0.47665  1.0000
  Ti  Ti89      1.0  0.64237  0.64386  0.31617  1.0000
  Ti  Ti90      1.0  0.95313  0.81495  0.64389  1.0000
  Ti  Ti91      1.0  0.51099  0.57528  0.72735  1.0000
  Ti  Ti92      1.0  0.97307  0.17102  0.98559  1.0000
  Ti  Ti93      1.0  0.74029  0.70619  0.15161  1.0000
  Ti  Ti94      1.0  0.39378  0.58321  0.19909  1.0000
  Ti  Ti95      1.0  0.10613  0.98358  0.80385  1.0000
  Ti  Ti96      1.0  0.77954  0.10380  0.09936  1.0000
  I   I1        1.0  0.80097  0.07187  0.16710  1.0000
  I   I2        1.0  0.57232  0.12392  0.66097  1.0000
  I   I3        1.0  0.77820  0.93181  0.58185  1.0000
  I   I4        1.0  0.05395  0.83354  0.07681  1.0000
  I   I5        1.0  0.51734  0.97935  0.04058  1.0000
  I   I6        1.0  0.38656  0.08143  0.00485  1.0000
  I   I7        1.0  0.10067  0.59084  0.99219  1.0000
  I   I8        1.0  0.15277  0.53296  0.06763  1.0000
  I   I9        1.0  0.95956  0.02427  0.49988  1.0000
  I   I10       1.0  0.87686  0.98161  0.06328  1.0000
  I   I11       1.0  0.28644  0.39131  0.86446  1.0000
  I   I12       1.0  0.06387  0.76583  0.19853  1.0000
  I   I13       1.0  0.33024  0.43021  0.41846  1.0000
  I   I14       1.0  0.22386  0.06305  0.69137  1.0000
  I   I15       1.0  0.46649  0.75872  0.02901  1.0000
  I   I16       1.0  0.96066  0.35070  0.69987  1.0000
  I   I17       1.0  0.71970  0.18270  0.67344  1.0000
  I   I18       1.0  0.75855  0.56675  0.63456  1.0000
  I   I19       1.0  0.48128  0.01923  0.73908  1.0000
  I   I20       1.0  0.26440  0.46789  0.84507  1.0000
  I   I21       1.0  0.51777  0.39608  0.98793  1.0000
  I   I22       1.0  0.55012  0.86033  0.99541  1.0000
  I   I23       1.0  0.62387  0.88198  0.14916  1.0000
  I   I24       1.0  0.48310  0.90845  0.57035  1.0000
  I   I25       1.0  0.09696  0.23211  0.08835  1.0000
  I   I26       1.0  0.84277  0.40641  0.42418  1.0000
  I   I27       1.0  0.40530  0.57039  0.80084  1.0000
  I   I28       1.0  0.62718  0.64020  0.90142  1.0000
  I   I29       1.0  0.04788  0.13124  0.12804  1.0000
  I   I30       1.0  0.93645  0.48050  0.04262  1.0000
  I   I31       1.0  0.63786  0.34205  0.56959  1.0000
  I   I32       1.0  0.75614  0.91906  0.80907  1.0000
  I   I33       1.0  0.41786  0.78631  0.36543  1.0000
  I   I34       1.0  0.86254  0.38550  0.09794  1.0000
  I   I35       1.0  0.02973  0.60579  0.98933  1.0000
  I   I36       1.0  0.70973  0.71180  0.64458  1.0000
  I   I37       1.0  0.12127  0.21142  0.29294  1.0000
  I   I38       1.0  0.54630  0.20698  0.90112  1.0000
  I   I39       1.0  0.22265  0.11630  0.38978  1.0000
  I   I40       1.0  0.72627  0.59457  0.24036  1.0000
  I   I41       1.0  0.91924  0.85586  0.59447  1.0000
  I   I42       1.0  0.87012  0.71520  0.53816  1.0000
  I   I43       1.0  0.31801  0.97043  0.06740  1.0000
  I   I44       1.0  0.70242  0.75430  0.14267  1.0000
  I   I45       1.0  0.52119  0.60884  0.75909  1.0000
  I   I46       1.0  0.18879  0.99291  0.82277  1.0000
  I   I47       1.0  0.81236  0.12338  0.11986  1.0000
  I   I48       1.0  0.32177  0.56739  0.12534  1.0000
  I   I49       1.0  0.86610  0.99437  0.49099  1.0000
  I   I50       1.0  0.50085  0.17546  0.52546  1.0000
  I   I51       1.0  0.46382  0.12889  0.53964  1.0000
  I   I52       1.0  0.42847  0.51217  0.28701  1.0000
  I   I53       1.0  0.15427  0.72562  0.19145  1.0000
  I   I54       1.0  0.42363  0.10567  0.06465  1.0000
  I   I55       1.0  0.99527  0.02799  0.14310  1.0000
  I   I56       1.0  0.11247  0.63494  0.21943  1.0000
  I   I57       1.0  0.00561  0.07060  0.52038  1.0000
  I   I58       1.0  0.89904  0.92495  0.96438  1.0000
  I   I59       1.0  0.89295  0.89331  0.11384  1.0000
  I   I60       1.0  0.21475  0.67429  0.67074  1.0000
  I   I61       1.0  0.37486  0.34865  0.30666  1.0000
  I   I62       1.0  0.32340  0.42270  0.29085  1.0000
  I   I63       1.0  0.30133  0.04891  0.70663  1.0000
  I   I64       1.0  0.82189  0.37652  0.73748  1.0000
  I   I65       1.0  0.91526  0.39090  0.61076  1.0000
  I   I66       1.0  0.68105  0.25307  0.70559  1.0000
  I   I67       1.0  0.67084  0.01038  0.08235  1.0000
  I   I68       1.0  0.36476  0.10291  0.68469  1.0000
  I   I69       1.0  0.50378  0.35925  0.22389  1.0000
  I   I70       1.0  0.44665  0.00673  0.52298  1.0000
  I   I71       1.0  0.60437  0.87548  0.95078  1.0000
  I   I72       1.0  0.78410  0.83828  0.19390  1.0000
  I   I73       1.0  0.33508  0.65767  0.73355  1.0000
  I   I74       1.0  0.79487  0.46967  0.42071  1.0000
  I   I75       1.0  0.87258  0.43832  0.37747  1.0000
  I   I76       1.0  0.74786  0.57302  0.89412  1.0000
  I   I77       1.0  0.69556  0.62957  0.91208  1.0000
  I   I78       1.0  0.09238  0.16373  0.05703  1.0000
  I   I79       1.0  0.44940  0.82187  0.32229  1.0000
  I   I80       1.0  0.64564  0.35026  0.44215  1.0000
  I   I81       1.0  0.72289  0.90128  0.89730  1.0000
  I   I82       1.0  0.76446  0.72284  0.65288  1.0000
  I   I83       1.0  0.85893  0.35258  0.21048  1.0000
  I   I84       1.0  0.00955  0.59567  0.86145  1.0000
  I   I85       1.0  0.18456  0.15457  0.31013  1.0000
  I   I86       1.0  0.56555  0.26611  0.61577  1.0000
  I   I87       1.0  0.50384  0.19992  0.05794  1.0000
  I   I88       1.0  0.81505  0.79380  0.31028  1.0000
  I   I89       1.0  0.60533  0.63460  0.33727  1.0000
  I   I90       1.0  0.00541  0.84647  0.66422  1.0000
  I   I91       1.0  0.55815  0.54345  0.80705  1.0000
  I   I92       1.0  0.94273  0.16762  0.93017  1.0000
  I   I93       1.0  0.75335  0.68240  0.07492  1.0000
  I   I94       1.0  0.42241  0.54336  0.14037  1.0000
  I   I95       1.0  0.10132  0.00691  0.88297  1.0000
  I   I96       1.0  0.80182  0.06158  0.05653  1.0000
  I   I97       1.0  0.94451  0.78384  0.79846  1.0000
  I   I98       1.0  0.81377  0.02873  0.59695  1.0000
  I   I99       1.0  0.52650  0.10641  0.49625  1.0000
  I   I100      1.0  0.44806  0.48698  0.43737  1.0000
  I   I101      1.0  0.41517  0.55746  0.53086  1.0000
  I   I102      1.0  0.12010  0.76314  0.28856  1.0000
  I   I103      1.0  0.02530  0.96606  0.18397  1.0000
  I   I104      1.0  0.10451  0.90509  0.10269  1.0000
  I   I105      1.0  0.01733  0.02676  0.62619  1.0000
  I   I106      1.0  0.26066  0.75503  0.59289  1.0000
  I   I107      1.0  0.93841  0.86140  0.21283  1.0000
  I   I108      1.0  0.27400  0.69168  0.50186  1.0000
  I   I109      1.0  0.46311  0.76600  0.91413  1.0000
  I   I110      1.0  0.32722  0.40352  0.53547  1.0000
  I   I111      1.0  0.21922  0.11664  0.77511  1.0000
  I   I112      1.0  0.72799  0.55875  0.76083  1.0000
  I   I113      1.0  0.87684  0.37925  0.70937  1.0000
  I   I114      1.0  0.27569  0.26370  0.55542  1.0000
  I   I115      1.0  0.70678  0.89951  0.26574  1.0000
  I   I116      1.0  0.64653  0.97528  0.99471  1.0000
  I   I117      1.0  0.43754  0.10787  0.76280  1.0000
  I   I118      1.0  0.49164  0.96141  0.47966  1.0000
  I   I119      1.0  0.48779  0.02630  0.42722  1.0000
  I   I120      1.0  0.80626  0.76687  0.18794  1.0000
  I   I121      1.0  0.39204  0.52728  0.70134  1.0000
  I   I122      1.0  0.09890  0.29562  0.08302  1.0000
  I   I123      1.0  0.87673  0.34854  0.34905  1.0000
  I   I124      1.0  0.88547  0.54966  0.00855  1.0000
  I   I125      1.0  0.64795  0.60944  0.04528  1.0000
  I   I126      1.0  0.10658  0.12803  0.16450  1.0000
  I   I127      1.0  0.52928  0.68845  0.27890  1.0000
  I   I128      1.0  0.73118  0.35904  0.42037  1.0000
  I   I129      1.0  0.78829  0.87573  0.91074  1.0000
  I   I130      1.0  0.04735  0.47356  0.00652  1.0000
  I   I131      1.0  0.66706  0.77690  0.58548  1.0000
  I   I132      1.0  0.83873  0.27448  0.05180  1.0000
  I   I133      1.0  0.43918  0.20810  0.08245  1.0000
  I   I134      1.0  0.53037  0.33833  0.61294  1.0000
  I   I135      1.0  0.59947  0.21550  0.52658  1.0000
  I   I136      1.0  0.94724  0.89909  0.65166  1.0000
  I   I137      1.0  0.80176  0.76437  0.41055  1.0000
  I   I138      1.0  0.67424  0.65097  0.24789  1.0000
  I   I139      1.0  0.55171  0.56761  0.68247  1.0000
  I   I140      1.0  0.95288  0.16209  0.05425  1.0000
  I   I141      1.0  0.77276  0.71212  0.22423  1.0000
  I   I142      1.0  0.40796  0.60699  0.14067  1.0000
  I   I143      1.0  0.08777  0.95735  0.85607  1.0000
  I   I144      1.0  0.79117  0.18503  0.06248  1.0000
  I   I145      1.0  0.82257  0.95377  0.57473  1.0000
  I   I146      1.0  0.55398  0.07645  0.73657  1.0000
  I   I147      1.0  0.89127  0.76696  0.85472  1.0000
  I   I148      1.0  0.43151  0.55953  0.39570  1.0000
  I   I149      1.0  0.03382  0.78058  0.11060  1.0000
  I   I150      1.0  0.45526  0.05478  0.95760  1.0000
  I   I151      1.0  0.12021  0.95213  0.04748  1.0000
  I   I152      1.0  0.15518  0.57740  0.16047  1.0000
  I   I153      1.0  0.94749  0.06613  0.59694  1.0000
  I   I154      1.0  0.31664  0.00228  0.92415  1.0000
  I   I155      1.0  0.34829  0.38943  0.84889  1.0000
  I   I156      1.0  0.15415  0.73147  0.60681  1.0000
  I   I157      1.0  0.52839  0.76699  0.94938  1.0000
  I   I158      1.0  0.15856  0.08522  0.72791  1.0000
  I   I159      1.0  0.47018  0.82477  0.88048  1.0000
  I   I160      1.0  0.71763  0.62188  0.70278  1.0000
  I   I161      1.0  0.23982  0.22865  0.47720  1.0000
  I   I162      1.0  0.74090  0.62577  0.56908  1.0000
  I   I163      1.0  0.71204  0.93638  0.05222  1.0000
  I   I164      1.0  0.41412  0.05852  0.81710  1.0000
  I   I165      1.0  0.48087  0.36598  0.95883  1.0000
  I   I166      1.0  0.47860  0.96333  0.62042  1.0000
  I   I167      1.0  0.61379  0.80831  0.94387  1.0000
  I   I168      1.0  0.37916  0.96649  0.40818  1.0000
  I   I169      1.0  0.11847  0.33178  0.13195  1.0000
  I   I170      1.0  0.17936  0.26778  0.15445  1.0000
  I   I171      1.0  0.33951  0.53901  0.80051  1.0000
  I   I172      1.0  0.89392  0.47310  0.93983  1.0000
  I   I173      1.0  0.06248  0.20457  0.17751  1.0000
  I   I174      1.0  0.93355  0.55459  0.09448  1.0000
  I   I175      1.0  0.72923  0.29403  0.43126  1.0000
  I   I176      1.0  0.80065  0.82822  0.82821  1.0000
  I   I177      1.0  0.47524  0.78593  0.41861  1.0000
  I   I178      1.0  0.80760  0.75605  0.63836  1.0000
  I   I179      1.0  0.83409  0.32425  0.13830  1.0000
  I   I180      1.0  0.01760  0.53686  0.99928  1.0000
  I   I181      1.0  0.17626  0.21117  0.35821  1.0000
  I   I182      1.0  0.60203  0.19201  0.63900  1.0000
  I   I183      1.0  0.42326  0.27483  0.05212  1.0000
  I   I184      1.0  0.87620  0.76402  0.39615  1.0000
  I   I185      1.0  0.70966  0.60568  0.36965  1.0000
  I   I186      1.0  0.98953  0.76967  0.67211  1.0000
  I   I187      1.0  0.01946  0.14766  0.95881  1.0000
  I   I188      1.0  0.78161  0.71623  0.10957  1.0000
  I   I189      1.0  0.62329  0.52946  0.74427  1.0000
  I   I190      1.0  0.12843  0.06295  0.85159  1.0000
  I   I191      1.0  0.74150  0.14916  0.14894  1.0000
  I   I192      1.0  0.36400  0.55742  0.22620  1.0000
  I   I193      1.0  0.80031  0.99681  0.48422  1.0000
  I   I194      1.0  0.65640  0.19925  0.13231  1.0000
  I   I195      1.0  0.96470  0.71250  0.83296  1.0000
  I   I196      1.0  0.40148  0.48165  0.35449  1.0000
  I   I197      1.0  0.25600  0.98942  0.11802  1.0000
  I   I198      1.0  0.47509  0.04284  0.10010  1.0000
  I   I199      1.0  0.04593  0.94014  0.04566  1.0000
  I   I200      1.0  0.17188  0.58492  0.03977  1.0000
  I   I201      1.0  0.98792  0.99070  0.60189  1.0000
  I   I202      1.0  0.87411  0.93194  0.23388  1.0000
  I   I203      1.0  0.48929  0.40380  0.11580  1.0000
  I   I204      1.0  0.19544  0.75661  0.59990  1.0000
  I   I205      1.0  0.34656  0.35829  0.41783  1.0000
  I   I206      1.0  0.16733  0.10711  0.83967  1.0000
  I   I207      1.0  0.41811  0.82723  0.96134  1.0000
  I   I208      1.0  0.86700  0.31314  0.67505  1.0000
  I   I209      1.0  0.24800  0.23430  0.64610  1.0000
  I   I210      1.0  0.66357  0.62788  0.60350  1.0000
  I   I211      1.0  0.64762  0.93955  0.11582  1.0000
  I   I212      1.0  0.40269  0.14459  0.64736  1.0000
  I   I213      1.0  0.49269  0.31359  0.14558  1.0000
  I   I214      1.0  0.54151  0.96511  0.52421  1.0000
  I   I215      1.0  0.63718  0.84358  0.05579  1.0000
  I   I216      1.0  0.40537  0.91504  0.52125  1.0000
  I   I217      1.0  0.17429  0.29703  0.02500  1.0000
  I   I218      1.0  0.88443  0.39523  0.26237  1.0000
  I   I219      1.0  0.38418  0.59630  0.70376  1.0000
  I   I220      1.0  0.68198  0.57810  0.93198  1.0000
  I   I221      1.0  0.01651  0.19327  0.11834  1.0000
  I   I222      1.0  0.86587  0.54959  0.14171  1.0000
  I   I223      1.0  0.69048  0.35314  0.52921  1.0000
  I   I224      1.0  0.68715  0.97219  0.83443  1.0000
  I   I225      1.0  0.45216  0.76699  0.24945  1.0000
  I   I226      1.0  0.76319  0.77911  0.74094  1.0000
  I   I227      1.0  0.79926  0.40843  0.16089  1.0000
  I   I228      1.0  0.00663  0.50805  0.89274  1.0000
  I   I229      1.0  0.17360  0.17111  0.44872  1.0000
  I   I230      1.0  0.56545  0.34707  0.50537  1.0000
  I   I231      1.0  0.55424  0.23488  0.01965  1.0000
  I   I232      1.0  0.87947  0.72306  0.28722  1.0000
  I   I233      1.0  0.64622  0.60344  0.25141  1.0000
  I   I234      1.0  0.99088  0.80429  0.57574  1.0000
  I   I235      1.0  0.25128  0.00467  0.94369  1.0000
  I   I236      1.0  0.82335  0.65539  0.22927  1.0000
  I   I237      1.0  0.60549  0.48069  0.74421  1.0000
  I   I238      1.0  0.15185  0.00440  0.93103  1.0000
  I   I239      1.0  0.77941  0.12165  0.01180  1.0000
  I   I240      1.0  0.35201  0.61637  0.22889  1.0000
  I   I241      1.0  0.73534  0.99253  0.50701  1.0000
  I   I242      1.0  0.50862  0.15256  0.63922  1.0000
  I   I243      1.0  0.95480  0.75906  0.93460  1.0000
  I   I244      1.0  0.37904  0.55603  0.35253  1.0000
  I   I245      1.0  0.13052  0.79789  0.19188  1.0000
  I   I246      1.0  0.47585  0.97149  0.10138  1.0000
  I   I247      1.0  0.04253  0.99853  0.03335  1.0000
  I   I248      1.0  0.05577  0.64599  0.16033  1.0000
  I   I249      1.0  0.03139  0.99642  0.49436  1.0000
  I   I250      1.0  0.93156  0.92145  0.11184  1.0000
  I   I251      1.0  0.30793  0.41991  0.74857  1.0000
  I   I252      1.0  0.20726  0.74989  0.49299  1.0000
  I   I253      1.0  0.39253  0.33766  0.51152  1.0000
  I   I254      1.0  0.26637  0.06681  0.58122  1.0000
  I   I255      1.0  0.48064  0.82156  0.02948  1.0000
  I   I256      1.0  0.94410  0.32092  0.59154  1.0000
  I   I257      1.0  0.29958  0.19492  0.56309  1.0000
  I   I258      1.0  0.66697  0.60473  0.72883  1.0000
  I   I259      1.0  0.63549  0.92687  0.22045  1.0000
  I   I260      1.0  0.41421  0.03391  0.71084  1.0000
  I   I261      1.0  0.45178  0.36750  0.08454  1.0000
  I   I262      1.0  0.48888  0.03996  0.55799  1.0000
  I   I263      1.0  0.58968  0.82038  0.08210  1.0000
  I   I264      1.0  0.35004  0.98500  0.52555  1.0000
  I   I265      1.0  0.16345  0.24392  0.04755  1.0000
  I   I266      1.0  0.80539  0.42849  0.29584  1.0000
  I   I267      1.0  0.32224  0.59451  0.72750  1.0000
  I   I268      1.0  0.74460  0.53819  0.00305  1.0000
  I   I269      1.0  0.06638  0.13512  0.26177  1.0000
  I   I270      1.0  0.87640  0.47816  0.07927  1.0000
  I   I271      1.0  0.63409  0.40636  0.60305  1.0000
  I   I272      1.0  0.70437  0.93625  0.71341  1.0000
  I   I273      1.0  0.51640  0.75934  0.29573  1.0000
  I   I274      1.0  0.74869  0.81364  0.60026  1.0000
  I   I275      1.0  0.79400  0.31965  0.99358  1.0000
  I   I276      1.0  0.08680  0.45933  0.90364  1.0000
  I   I277      1.0  0.10540  0.22483  0.43280  1.0000
  I   I278      1.0  0.61117  0.27949  0.54452  1.0000
  I   I279      1.0  0.48240  0.24554  0.95552  1.0000
  I   I280      1.0  0.81142  0.71297  0.52243  1.0000
  I   I281      1.0  0.68569  0.56403  0.33183  1.0000
  I   I282      1.0  0.97565  0.87556  0.54384  1.0000
  I   I283      1.0  0.25224  0.06549  0.92674  1.0000
  I   I284      1.0  0.75637  0.65995  0.19375  1.0000
  I   I285      1.0  0.53342  0.52256  0.72026  1.0000
  I   I286      1.0  0.12004  0.01908  0.77011  1.0000
  I   I287      1.0  0.73863  0.09695  0.11344  1.0000
  I   I288      1.0  0.38878  0.54133  0.05346  1.0000
  I   I289      1.0  0.79615  0.94058  0.43930  1.0000
  I   I290      1.0  0.66320  0.13659  0.10938  1.0000
  I   I291      1.0  0.50275  0.09947  0.63412  1.0000
  I   I292      1.0  0.37705  0.52402  0.46786  1.0000
  I   I293      1.0  0.11089  0.76990  0.10442  1.0000
  I   I294      1.0  0.44978  0.00404  0.96899  1.0000
  I   I295      1.0  0.98351  0.98350  0.07100  1.0000
  I   I296      1.0  0.08599  0.58263  0.12013  1.0000
  I   I297      1.0  0.05905  0.04581  0.60905  1.0000
  I   I298      1.0  0.23400  0.04193  0.05438  1.0000
  I   I299      1.0  0.84271  0.93989  0.05439  1.0000
  I   I300      1.0  0.21653  0.67413  0.55290  1.0000
  I   I301      1.0  0.51458  0.69782  0.93387  1.0000
  I   I302      1.0  0.39367  0.39335  0.35432  1.0000
  I   I303      1.0  0.26843  0.11069  0.68128  1.0000
  I   I304      1.0  0.70772  0.55625  0.61347  1.0000
  I   I305      1.0  0.87142  0.31648  0.81860  1.0000
  I   I306      1.0  0.62877  0.24599  0.67508  1.0000
  I   I307      1.0  0.69333  0.87304  0.15105  1.0000
  I   I308      1.0  0.36153  0.14845  0.76314  1.0000
  I   I309      1.0  0.52486  0.34320  0.07600  1.0000
  I   I310      1.0  0.41041  0.97059  0.57344  1.0000
  I   I311      1.0  0.59885  0.83309  0.19565  1.0000
  I   I312      1.0  0.79390  0.81827  0.06665  1.0000
  I   I313      1.0  0.38369  0.63284  0.82716  1.0000
  I   I314      1.0  0.15507  0.19746  0.15471  1.0000
  I   I315      1.0  0.92339  0.36731  0.38041  1.0000
  I   I316      1.0  0.93083  0.50591  0.17762  1.0000
  I   I317      1.0  0.72629  0.61423  0.01866  1.0000
  I   I318      1.0  0.01574  0.20446  0.26460  1.0000
  I   I319      1.0  0.50809  0.71861  0.16713  1.0000
  I   I320      1.0  0.68198  0.33832  0.34770  1.0000
  I   I321      1.0  0.66709  0.92516  0.79979  1.0000
  I   I322      1.0  0.73328  0.73377  0.53067  1.0000
  I   I323      1.0  0.81323  0.36847  0.04661  1.0000
  I   I324      1.0  0.96591  0.60112  0.98808  1.0000
  I   I325      1.0  0.15972  0.10702  0.44534  1.0000
  I   I326      1.0  0.65845  0.21109  0.56620  1.0000
  I   I327      1.0  0.56883  0.16721  0.00994  1.0000
  I   I328      1.0  0.81297  0.78291  0.51204  1.0000
  I   I329      1.0  0.64423  0.66014  0.39481  1.0000
  I   I330      1.0  0.94669  0.84555  0.71561  1.0000
  I   I331      1.0  0.47861  0.57354  0.78997  1.0000
  I   I332      1.0  0.29542  0.04982  0.04964  1.0000
  I   I333      1.0  0.69674  0.70863  0.19175  1.0000
  I   I334      1.0  0.42144  0.57730  0.26812  1.0000
  I   I335      1.0  0.06814  0.00442  0.74662  1.0000
  I   I336      1.0  0.85873  0.13193  0.01593  1.0000
  I   I337      1.0  0.87920  0.96151  0.60017  1.0000
  I   I338      1.0  0.70873  0.15324  0.03827  1.0000
  I   I339      1.0  0.57427  0.06373  0.60617  1.0000
  I   I340      1.0  0.35316  0.60078  0.45481  1.0000
  I   I341      1.0  0.05028  0.82865  0.21717  1.0000
  I   I342      1.0  0.42675  0.03076  0.09772  1.0000
  I   I343      1.0  0.08243  0.97079  0.16816  1.0000
  I   I344      1.0  0.11371  0.63556  0.08689  1.0000
  I   I345      1.0  0.07771  0.02078  0.48308  1.0000
  I   I346      1.0  0.28837  0.02255  0.17794  1.0000
  I   I347      1.0  0.93059  0.91853  0.26644  1.0000
  I   I348      1.0  0.25645  0.69829  0.63162  1.0000
  I   I349      1.0  0.54770  0.71113  0.02472  1.0000
  I   I350      1.0  0.39006  0.40159  0.52398  1.0000
  I   I351      1.0  0.15407  0.15468  0.73856  1.0000
  I   I352      1.0  0.72814  0.58111  0.51241  1.0000
  I   I353      1.0  0.92153  0.31651  0.71589  1.0000
  I   I354      1.0  0.70202  0.24064  0.58276  1.0000
  I   I355      1.0  0.68240  0.95773  0.16940  1.0000
  I   I356      1.0  0.43637  0.07524  0.65563  1.0000
  I   I357      1.0  0.43769  0.42936  0.01260  1.0000
  I   I358      1.0  0.44394  0.93525  0.46097  1.0000
  I   I359      1.0  0.55715  0.89054  0.11634  1.0000
  I   I360      1.0  0.85485  0.79303  0.17333  1.0000
  I   I361      1.0  0.34440  0.59937  0.85049  1.0000
  I   I362      1.0  0.11789  0.26601  0.18877  1.0000
  I   I363      1.0  0.81856  0.48764  0.29699  1.0000
  I   I364      1.0  0.84100  0.53260  0.98998  1.0000
  I   I365      1.0  0.63962  0.67657  0.99110  1.0000
  I   I366      1.0  0.00270  0.15176  0.22170  1.0000
  I   I367      1.0  0.48092  0.72644  0.34552  1.0000
  I   I368      1.0  0.59312  0.40971  0.51373  1.0000
  I   I369      1.0  0.73223  0.86751  0.78606  1.0000
  I   I370      1.0  0.70552  0.78938  0.66278  1.0000
  I   I371      1.0  0.86827  0.30699  0.96934  1.0000
  I   I372      1.0  0.06021  0.53907  0.91181  1.0000
  I   I373      1.0  0.12606  0.15677  0.34838  1.0000
  I   I374      1.0  0.54419  0.29069  0.50163  1.0000
  I   I375      1.0  0.45127  0.20708  0.95282  1.0000
  I   I376      1.0  0.86529  0.70753  0.40882  1.0000
  I   I377      1.0  0.61229  0.68746  0.27833  1.0000
  I   I378      1.0  0.92176  0.79447  0.65388  1.0000
  I   I379      1.0  0.48001  0.59089  0.66032  1.0000
  I   I380      1.0  0.96445  0.21583  0.99027  1.0000
  I   I381      1.0  0.82801  0.63751  0.11401  1.0000
  I   I382      1.0  0.35656  0.60163  0.09425  1.0000
  I   I383      1.0  0.15189  0.95456  0.83073  1.0000
  I   I384      1.0  0.79735  0.16546  0.94950  1.0000
