data_image0
_chemical_formula_structural       Ti96I384
_chemical_formula_sum              "Ti96 I384"
_cell_length_a       46.7888
_cell_length_b       46.4487
_cell_length_c       23.0434
_cell_angle_alpha    88.7757
_cell_angle_beta     88.7757
_cell_angle_gamma    62.1586

_space_group_name_H-M_alt    "P 1"
_space_group_IT_number       1

loop_
  _space_group_symop_operation_xyz
  'x, y, z'

loop_
  _atom_site_type_symbol
  _atom_site_label
  _atom_site_symmetry_multiplicity
  _atom_site_fract_x
  _atom_site_fract_y
  _atom_site_fract_z
  _atom_site_occupancy
  Ti  Ti1       1.0  0.39273  0.98848  0.58670  1.0000
  Ti  Ti2       1.0  0.22413  0.99457  0.02374  1.0000
  Ti  Ti3       1.0  0.31710  0.97393  0.27660  1.0000
  Ti  Ti4       1.0  0.19556  0.24736  0.27796  1.0000
  Ti  Ti5       1.0  0.20346  0.23575  0.68038  1.0000
  Ti  Ti6       1.0  0.19800  0.23607  0.99859  1.0000
  Ti  Ti7       1.0  0.03009  0.61558  0.49396  1.0000
  Ti  Ti8       1.0  0.88483  0.78787  0.73025  1.0000
  Ti  Ti9       1.0  0.97405  0.71332  0.20271  1.0000
  Ti  Ti10      1.0  0.01055  0.91607  0.25517  1.0000
  Ti  Ti11      1.0  0.14595  0.89451  0.59315  1.0000
  Ti  Ti12      1.0  0.19742  0.78830  0.85583  1.0000
  Ti  Ti13      1.0  0.37966  0.28538  0.16781  1.0000
  Ti  Ti14      1.0  0.47247  0.10289  0.58116  1.0000
  Ti  Ti15      1.0  0.40680  0.16913  0.92092  1.0000
  Ti  Ti16      1.0  0.32240  0.47822  0.04057  1.0000
  Ti  Ti17      1.0  0.17631  0.49927  0.20876  1.0000
  Ti  Ti18      1.0  0.45355  0.45386  0.79211  1.0000
  Ti  Ti19      1.0  0.34489  0.77371  0.16499  1.0000
  Ti  Ti20      1.0  0.42792  0.67965  0.88075  1.0000
  Ti  Ti21      1.0  0.27027  0.69523  0.33337  1.0000
  Ti  Ti22      1.0  0.30409  0.88835  0.73327  1.0000
  Ti  Ti23      1.0  0.46421  0.88345  0.08781  1.0000
  Ti  Ti24      1.0  0.47021  0.75138  0.59065  1.0000
  Ti  Ti25      1.0  0.63088  0.18982  0.48027  1.0000
  Ti  Ti26      1.0  0.64018  0.20337  0.82450  1.0000
  Ti  Ti27      1.0  0.63647  0.20119  0.14861  1.0000
  Ti  Ti28      1.0  0.64042  0.38592  0.19560  1.0000
  Ti  Ti29      1.0  0.71065  0.42453  0.52504  1.0000
  Ti  Ti30      1.0  0.68843  0.40345  0.82089  1.0000
  Ti  Ti31      1.0  0.64122  0.61045  0.30304  1.0000
  Ti  Ti32      1.0  0.74901  0.58574  0.69587  1.0000
  Ti  Ti33      1.0  0.70015  0.59102  0.01035  1.0000
  Ti  Ti34      1.0  0.79459  0.70272  0.09361  1.0000
  Ti  Ti35      1.0  0.77019  0.78267  0.40059  1.0000
  Ti  Ti36      1.0  0.75326  0.74444  0.77951  1.0000
  Ti  Ti37      1.0  0.81447  0.14466  0.06740  1.0000
  Ti  Ti38      1.0  0.82489  0.15232  0.40306  1.0000
  Ti  Ti39      1.0  0.80488  0.13846  0.74255  1.0000
  Ti  Ti40      1.0  0.90468  0.35459  0.04227  1.0000
  Ti  Ti41      1.0  0.98252  0.26353  0.43185  1.0000
  Ti  Ti42      1.0  0.11165  0.07803  0.54837  1.0000
  Ti  Ti43      1.0  0.94432  0.47956  0.26292  1.0000
  Ti  Ti44      1.0  0.92806  0.47063  0.62920  1.0000
  Ti  Ti45      1.0  0.97646  0.50286  0.92464  1.0000
  Ti  Ti46      1.0  0.77509  0.97971  0.33557  1.0000
  Ti  Ti47      1.0  0.76621  0.98317  0.63833  1.0000
  Ti  Ti48      1.0  0.67610  0.01804  0.91890  1.0000
  Ti  Ti49      1.0  0.32993  0.00520  0.46539  1.0000
  Ti  Ti50      1.0  0.19444  0.05005  0.88446  1.0000
  Ti  Ti51      1.0  0.21979  0.00812  0.20960  1.0000
  Ti  Ti52      1.0  0.15793  0.22759  0.16899  1.0000
  Ti  Ti53      1.0  0.11392  0.26044  0.59998  1.0000
  Ti  Ti54      1.0  0.13965  0.25742  0.84979  1.0000
  Ti  Ti55      1.0  0.97617  0.66573  0.36626  1.0000
  Ti  Ti56      1.0  0.96874  0.81764  0.76135  1.0000
  Ti  Ti57      1.0  0.91238  0.77569  0.09041  1.0000
  Ti  Ti58      1.0  0.95469  0.98247  0.13681  1.0000
  Ti  Ti59      1.0  0.96256  0.89358  0.35536  1.0000
  Ti  Ti60      1.0  0.20008  0.81573  0.68785  1.0000
  Ti  Ti61      1.0  0.36890  0.26910  0.96138  1.0000
  Ti  Ti62      1.0  0.34965  0.35837  0.27839  1.0000
  Ti  Ti63      1.0  0.44504  0.16011  0.71550  1.0000
  Ti  Ti64      1.0  0.38035  0.45073  0.86540  1.0000
  Ti  Ti65      1.0  0.21576  0.49830  0.03533  1.0000
  Ti  Ti66      1.0  0.13437  0.45202  0.28986  1.0000
  Ti  Ti67      1.0  0.23701  0.77561  0.19550  1.0000
  Ti  Ti68      1.0  0.42609  0.63459  0.00374  1.0000
  Ti  Ti69      1.0  0.23788  0.64260  0.38202  1.0000
  Ti  Ti70      1.0  0.36068  0.81659  0.62979  1.0000
  Ti  Ti71      1.0  0.42197  0.93743  0.94532  1.0000
  Ti  Ti72      1.0  0.49868  0.81163  0.21455  1.0000
  Ti  Ti73      1.0  0.57424  0.20563  0.30143  1.0000
  Ti  Ti74      1.0  0.58896  0.20074  0.66598  1.0000
  Ti  Ti75      1.0  0.58576  0.20311  0.99194  1.0000
  Ti  Ti76      1.0  0.63302  0.42046  0.00731  1.0000
  Ti  Ti77      1.0  0.54529  0.40508  0.21201  1.0000
  Ti  Ti78      1.0  0.64167  0.43661  0.65719  1.0000
  Ti  Ti79      1.0  0.61506  0.64140  0.11428  1.0000
  Ti  Ti80      1.0  0.58028  0.58430  0.39329  1.0000
  Ti  Ti81      1.0  0.68666  0.59522  0.82809  1.0000
  Ti  Ti82      1.0  0.72908  0.75831  0.95180  1.0000
  Ti  Ti83      1.0  0.67514  0.83102  0.31335  1.0000
  Ti  Ti84      1.0  0.66834  0.79451  0.66109  1.0000
  Ti  Ti85      1.0  0.79704  0.20689  0.90300  1.0000
  Ti  Ti86      1.0  0.79277  0.20814  0.23980  1.0000
  Ti  Ti87      1.0  0.77495  0.19936  0.57558  1.0000
  Ti  Ti88      1.0  0.82967  0.37099  0.97347  1.0000
  Ti  Ti89      1.0  0.89817  0.32137  0.47318  1.0000
  Ti  Ti90      1.0  0.02203  0.12803  0.42073  1.0000
  Ti  Ti91      1.0  0.04013  0.54753  0.99268  1.0000
  Ti  Ti92      1.0  0.91003  0.51315  0.44748  1.0000
  Ti  Ti93      1.0  0.97815  0.50948  0.73144  1.0000
  Ti  Ti94      1.0  0.65261  0.98886  0.06828  1.0000
  Ti  Ti95      1.0  0.78689  0.92525  0.50172  1.0000
  Ti  Ti96      1.0  0.70273  0.97062  0.74315  1.0000
  I   I1        1.0  0.19900  0.03700  0.77429  1.0000
  I   I2        1.0  0.18941  0.98710  0.11925  1.0000
  I   I3        1.0  0.31687  0.95783  0.39884  1.0000
  I   I4        1.0  0.09323  0.22410  0.56522  1.0000
  I   I5        1.0  0.14432  0.23393  0.72155  1.0000
  I   I6        1.0  0.17195  0.19937  0.05487  1.0000
  I   I7        1.0  0.99358  0.79148  0.85876  1.0000
  I   I8        1.0  0.82552  0.83029  0.75274  1.0000
  I   I9        1.0  0.99354  0.65116  0.23426  1.0000
  I   I10       1.0  0.99587  0.93109  0.36874  1.0000
  I   I11       1.0  0.23078  0.84009  0.63314  1.0000
  I   I12       1.0  0.93379  0.95989  0.05360  1.0000
  I   I13       1.0  0.31885  0.34689  0.15776  1.0000
  I   I14       1.0  0.40162  0.14786  0.65542  1.0000
  I   I15       1.0  0.35176  0.23018  0.90042  1.0000
  I   I16       1.0  0.28731  0.44877  0.99222  1.0000
  I   I17       1.0  0.14141  0.47047  0.17134  1.0000
  I   I18       1.0  0.43819  0.39575  0.83995  1.0000
  I   I19       1.0  0.43849  0.72563  0.92989  1.0000
  I   I20       1.0  0.17403  0.67359  0.41793  1.0000
  I   I21       1.0  0.21345  0.77890  0.30025  1.0000
  I   I22       1.0  0.38073  0.92568  0.88873  1.0000
  I   I23       1.0  0.39979  0.92224  0.06058  1.0000
  I   I24       1.0  0.33470  0.78144  0.57259  1.0000
  I   I25       1.0  0.59950  0.16328  0.57008  1.0000
  I   I26       1.0  0.60913  0.16792  0.88982  1.0000
  I   I27       1.0  0.60483  0.16384  0.21351  1.0000
  I   I28       1.0  0.60368  0.35307  0.16887  1.0000
  I   I29       1.0  0.66819  0.39853  0.55405  1.0000
  I   I30       1.0  0.64454  0.38657  0.88286  1.0000
  I   I31       1.0  0.57718  0.61694  0.28585  1.0000
  I   I32       1.0  0.72891  0.54053  0.75253  1.0000
  I   I33       1.0  0.63044  0.59922  0.01811  1.0000
  I   I34       1.0  0.65449  0.80317  0.23517  1.0000
  I   I35       1.0  0.64538  0.77029  0.58555  1.0000
  I   I36       1.0  0.69873  0.76216  0.84911  1.0000
  I   I37       1.0  0.76454  0.19745  0.13537  1.0000
  I   I38       1.0  0.76343  0.18384  0.45851  1.0000
  I   I39       1.0  0.76399  0.19478  0.82319  1.0000
  I   I40       1.0  0.88113  0.38368  0.46442  1.0000
  I   I41       1.0  0.00987  0.16726  0.33220  1.0000
  I   I42       1.0  0.83834  0.38819  0.09782  1.0000
  I   I43       1.0  0.85175  0.53905  0.41291  1.0000
  I   I44       1.0  0.92510  0.53085  0.65758  1.0000
  I   I45       1.0  0.98094  0.56956  0.93349  1.0000
  I   I46       1.0  0.83644  0.89605  0.43182  1.0000
  I   I47       1.0  0.74887  0.93126  0.67507  1.0000
  I   I48       1.0  0.68454  0.95512  0.96371  1.0000
  I   I49       1.0  0.37556  0.02441  0.46824  1.0000
  I   I50       1.0  0.17390  0.06702  0.00377  1.0000
  I   I51       1.0  0.24781  0.03502  0.28585  1.0000
  I   I52       1.0  0.13392  0.25805  0.27996  1.0000
  I   I53       1.0  0.14920  0.29382  0.63360  1.0000
  I   I54       1.0  0.13347  0.28521  0.95509  1.0000
  I   I55       1.0  0.96339  0.67749  0.48533  1.0000
  I   I56       1.0  0.92337  0.82474  0.68286  1.0000
  I   I57       1.0  0.91328  0.72049  0.17873  1.0000
  I   I58       1.0  0.06521  0.91713  0.26396  1.0000
  I   I59       1.0  0.91023  0.93861  0.40513  1.0000
  I   I60       1.0  0.15713  0.80690  0.75600  1.0000
  I   I61       1.0  0.39096  0.30097  0.03624  1.0000
  I   I62       1.0  0.38870  0.34381  0.36674  1.0000
  I   I63       1.0  0.49070  0.14998  0.78278  1.0000
  I   I64       1.0  0.33131  0.51076  0.90204  1.0000
  I   I65       1.0  0.15719  0.53502  0.09468  1.0000
  I   I66       1.0  0.13761  0.43615  0.39627  1.0000
  I   I67       1.0  0.31311  0.74675  0.11046  1.0000
  I   I68       1.0  0.37912  0.70648  0.81852  1.0000
  I   I69       1.0  0.22428  0.68561  0.27553  1.0000
  I   I70       1.0  0.38283  0.85052  0.70088  1.0000
  I   I71       1.0  0.48553  0.92725  0.06815  1.0000
  I   I72       1.0  0.51160  0.75519  0.17378  1.0000
  I   I73       1.0  0.57192  0.23076  0.41531  1.0000
  I   I74       1.0  0.57821  0.23217  0.78210  1.0000
  I   I75       1.0  0.57699  0.23652  0.09277  1.0000
  I   I76       1.0  0.60758  0.44422  0.11456  1.0000
  I   I77       1.0  0.52271  0.40449  0.11237  1.0000
  I   I78       1.0  0.63120  0.45975  0.78114  1.0000
  I   I79       1.0  0.62557  0.66650  0.23192  1.0000
  I   I80       1.0  0.60680  0.55589  0.48693  1.0000
  I   I81       1.0  0.67034  0.63496  0.91543  1.0000
  I   I82       1.0  0.75753  0.76805  0.05614  1.0000
  I   I83       1.0  0.72707  0.84696  0.34536  1.0000
  I   I84       1.0  0.71472  0.80419  0.72455  1.0000
  I   I85       1.0  0.83942  0.18021  0.99241  1.0000
  I   I86       1.0  0.81526  0.21950  0.33741  1.0000
  I   I87       1.0  0.80155  0.19499  0.68540  1.0000
  I   I88       1.0  0.83223  0.36001  0.86304  1.0000
  I   I89       1.0  0.93367  0.25836  0.50777  1.0000
  I   I90       1.0  0.04434  0.09345  0.54746  1.0000
  I   I91       1.0  0.05639  0.53199  0.10215  1.0000
  I   I92       1.0  0.96545  0.47925  0.53708  1.0000
  I   I93       1.0  0.02147  0.48556  0.82191  1.0000
  I   I94       1.0  0.60872  0.97120  0.07453  1.0000
  I   I95       1.0  0.73067  0.98812  0.53375  1.0000
  I   I96       1.0  0.64939  0.01696  0.81082  1.0000
  I   I97       1.0  0.32916  0.02133  0.34205  1.0000
  I   I98       1.0  0.39880  0.03481  0.62740  1.0000
  I   I99       1.0  0.24015  0.02846  0.10800  1.0000
  I   I100      1.0  0.17718  0.27501  0.11680  1.0000
  I   I101      1.0  0.21669  0.21120  0.37147  1.0000
  I   I102      1.0  0.19172  0.26188  0.79084  1.0000
  I   I103      1.0  0.95016  0.72888  0.33417  1.0000
  I   I104      1.0  0.01643  0.59370  0.58913  1.0000
  I   I105      1.0  0.85915  0.81608  0.15068  1.0000
  I   I106      1.0  0.14561  0.82341  0.91730  1.0000
  I   I107      1.0  0.02214  0.85517  0.30064  1.0000
  I   I108      1.0  0.15731  0.89428  0.70642  1.0000
  I   I109      1.0  0.43026  0.21403  0.95462  1.0000
  I   I110      1.0  0.39786  0.33666  0.19060  1.0000
  I   I111      1.0  0.47399  0.09032  0.69949  1.0000
  I   I112      1.0  0.41429  0.48534  0.88896  1.0000
  I   I113      1.0  0.25716  0.52644  0.07940  1.0000
  I   I114      1.0  0.13298  0.55130  0.25840  1.0000
  I   I115      1.0  0.29103  0.70885  0.23255  1.0000
  I   I116      1.0  0.38882  0.75807  0.08519  1.0000
  I   I117      1.0  0.41026  0.62749  0.88125  1.0000
  I   I118      1.0  0.41682  0.75628  0.65925  1.0000
  I   I119      1.0  0.29318  0.94749  0.73872  1.0000
  I   I120      1.0  0.47721  0.88206  0.20461  1.0000
  I   I121      1.0  0.61389  0.23579  0.25147  1.0000
  I   I122      1.0  0.61931  0.22705  0.57091  1.0000
  I   I123      1.0  0.62122  0.23386  0.93604  1.0000
  I   I124      1.0  0.67753  0.43496  0.95533  1.0000
  I   I125      1.0  0.59607  0.41510  0.27647  1.0000
  I   I126      1.0  0.69411  0.45326  0.64003  1.0000
  I   I127      1.0  0.68002  0.63474  0.08651  1.0000
  I   I128      1.0  0.61130  0.63837  0.41641  1.0000
  I   I129      1.0  0.75267  0.58828  0.82209  1.0000
  I   I130      1.0  0.78044  0.75880  0.88302  1.0000
  I   I131      1.0  0.81023  0.71358  0.19427  1.0000
  I   I132      1.0  0.75182  0.80083  0.50680  1.0000
  I   I133      1.0  0.84237  0.14671  0.82845  1.0000
  I   I134      1.0  0.84158  0.15840  0.16748  1.0000
  I   I135      1.0  0.84159  0.16463  0.52144  1.0000
  I   I136      1.0  0.16116  0.03675  0.49199  1.0000
  I   I137      1.0  0.95838  0.32215  0.99313  1.0000
  I   I138      1.0  0.01752  0.20256  0.49140  1.0000
  I   I139      1.0  0.00981  0.50384  0.01736  1.0000
  I   I140      1.0  0.92355  0.45843  0.37297  1.0000
  I   I141      1.0  0.96726  0.44680  0.73938  1.0000
  I   I142      1.0  0.61471  0.03503  0.95785  1.0000
  I   I143      1.0  0.80735  0.97729  0.44201  1.0000
  I   I144      1.0  0.70966  0.02327  0.68945  1.0000
  I   I145      1.0  0.38699  0.94194  0.50657  1.0000
  I   I146      1.0  0.19396  0.99096  0.91743  1.0000
  I   I147      1.0  0.27643  0.95116  0.22485  1.0000
  I   I148      1.0  0.22003  0.19132  0.21772  1.0000
  I   I149      1.0  0.18622  0.21441  0.58023  1.0000
  I   I150      1.0  0.19481  0.20382  0.90072  1.0000
  I   I151      1.0  0.03949  0.64415  0.36916  1.0000
  I   I152      1.0  0.87272  0.78214  0.62237  1.0000
  I   I153      1.0  0.97702  0.70681  0.08494  1.0000
  I   I154      1.0  0.96639  0.98995  0.25180  1.0000
  I   I155      1.0  0.08402  0.92104  0.56877  1.0000
  I   I156      1.0  0.24192  0.80206  0.79393  1.0000
  I   I157      1.0  0.35730  0.24917  0.10414  1.0000
  I   I158      1.0  0.43788  0.14117  0.49153  1.0000
  I   I159      1.0  0.40308  0.13729  0.83257  1.0000
  I   I160      1.0  0.38540  0.43005  0.99771  1.0000
  I   I161      1.0  0.22539  0.45689  0.12622  1.0000
  I   I162      1.0  0.47383  0.42457  0.68767  1.0000
  I   I163      1.0  0.27361  0.80711  0.21722  1.0000
  I   I164      1.0  0.41417  0.58859  0.03423  1.0000
  I   I165      1.0  0.23827  0.69950  0.43726  1.0000
  I   I166      1.0  0.32362  0.81897  0.72572  1.0000
  I   I167      1.0  0.47658  0.87145  0.97030  1.0000
  I   I168      1.0  0.49567  0.74495  0.48229  1.0000
  I   I169      1.0  0.62961  0.16121  0.36992  1.0000
  I   I170      1.0  0.65356  0.15994  0.71780  1.0000
  I   I171      1.0  0.65930  0.16770  0.05473  1.0000
  I   I172      1.0  0.67367  0.37265  0.08760  1.0000
  I   I173      1.0  0.70745  0.48033  0.49717  1.0000
  I   I174      1.0  0.68520  0.38025  0.71384  1.0000
  I   I175      1.0  0.64391  0.58424  0.18402  1.0000
  I   I176      1.0  0.72404  0.58637  0.59626  1.0000
  I   I177      1.0  0.70362  0.54760  0.92169  1.0000
  I   I178      1.0  0.77017  0.69737  0.98697  1.0000
  I   I179      1.0  0.72743  0.76581  0.33866  1.0000
  I   I180      1.0  0.71709  0.73080  0.69854  1.0000
  I   I181      1.0  0.78312  0.15307  0.97184  1.0000
  I   I182      1.0  0.79869  0.14729  0.30827  1.0000
  I   I183      1.0  0.76296  0.15242  0.63933  1.0000
  I   I184      1.0  0.87866  0.40226  0.96261  1.0000
  I   I185      1.0  0.94606  0.27802  0.34130  1.0000
  I   I186      1.0  0.08780  0.10962  0.43231  1.0000
  I   I187      1.0  0.92416  0.53639  0.21873  1.0000
  I   I188      1.0  0.88421  0.48311  0.53263  1.0000
  I   I189      1.0  0.93148  0.51797  0.83014  1.0000
  I   I190      1.0  0.76695  0.95682  0.23365  1.0000
  I   I191      1.0  0.82319  0.92928  0.58403  1.0000
  I   I192      1.0  0.73587  0.97937  0.85685  1.0000
  I   I193      1.0  0.45314  0.95186  0.55733  1.0000
  I   I194      1.0  0.26397  0.00633  0.95296  1.0000
  I   I195      1.0  0.33281  0.99945  0.18606  1.0000
  I   I196      1.0  0.17493  0.30111  0.34043  1.0000
  I   I197      1.0  0.22756  0.27160  0.63367  1.0000
  I   I198      1.0  0.21958  0.27516  0.95933  1.0000
  I   I199      1.0  0.06768  0.63798  0.53173  1.0000
  I   I200      1.0  0.91135  0.81002  0.81886  1.0000
  I   I201      1.0  0.95144  0.78248  0.17851  1.0000
  I   I202      1.0  0.01727  0.92540  0.13399  1.0000
  I   I203      1.0  0.16253  0.94384  0.57625  1.0000
  I   I204      1.0  0.22538  0.79160  0.95179  1.0000
  I   I205      1.0  0.43891  0.23944  0.17105  1.0000
  I   I206      1.0  0.53091  0.08559  0.55065  1.0000
  I   I207      1.0  0.46502  0.11878  0.93753  1.0000
  I   I208      1.0  0.34742  0.50787  0.09480  1.0000
  I   I209      1.0  0.23173  0.50254  0.23327  1.0000
  I   I210      1.0  0.43042  0.50699  0.72970  1.0000
  I   I211      1.0  0.37313  0.73329  0.25518  1.0000
  I   I212      1.0  0.48315  0.63197  0.95883  1.0000
  I   I213      1.0  0.30818  0.63381  0.34693  1.0000
  I   I214      1.0  0.31594  0.87773  0.84521  1.0000
  I   I215      1.0  0.52929  0.82694  0.08171  1.0000
  I   I216      1.0  0.48433  0.79413  0.63362  1.0000
  I   I217      1.0  0.65661  0.22591  0.43618  1.0000
  I   I218      1.0  0.65864  0.24115  0.76975  1.0000
  I   I219      1.0  0.65151  0.24868  0.12819  1.0000
  I   I220      1.0  0.67668  0.41206  0.24942  1.0000
  I   I221      1.0  0.76544  0.38511  0.56592  1.0000
  I   I222      1.0  0.73157  0.42173  0.81309  1.0000
  I   I223      1.0  0.69846  0.60391  0.29396  1.0000
  I   I224      1.0  0.77566  0.62235  0.67408  1.0000
  I   I225      1.0  0.76175  0.58232  0.99688  1.0000
  I   I226      1.0  0.84920  0.68394  0.04132  1.0000
  I   I227      1.0  0.81193  0.80408  0.39258  1.0000
  I   I228      1.0  0.79862  0.75040  0.72248  1.0000
  I   I229      1.0  0.87199  0.08810  0.04295  1.0000
  I   I230      1.0  0.88405  0.13016  0.36610  1.0000
  I   I231      1.0  0.86183  0.08922  0.71848  1.0000
  I   I232      1.0  0.87904  0.31357  0.01431  1.0000
  I   I233      1.0  0.96236  0.32180  0.48848  1.0000
  I   I234      1.0  0.12612  0.05294  0.65125  1.0000
  I   I235      1.0  0.99979  0.43880  0.22856  1.0000
  I   I236      1.0  0.96103  0.40822  0.58668  1.0000
  I   I237      1.0  0.98137  0.44648  0.93631  1.0000
  I   I238      1.0  0.72822  0.03842  0.33303  1.0000
  I   I239      1.0  0.77841  0.02809  0.59413  1.0000
  I   I240      1.0  0.67727  0.07161  0.89898  1.0000
  I   I241      1.0  0.39547  0.95367  0.67669  1.0000
  I   I242      1.0  0.26650  0.93376  0.03758  1.0000
  I   I243      1.0  0.36707  0.91791  0.25750  1.0000
  I   I244      1.0  0.24172  0.25655  0.23999  1.0000
  I   I245      1.0  0.24890  0.17895  0.71346  1.0000
  I   I246      1.0  0.25159  0.18771  0.04437  1.0000
  I   I247      1.0  0.07434  0.55382  0.48577  1.0000
  I   I248      1.0  0.89993  0.73654  0.79691  1.0000
  I   I249      1.0  0.03201  0.70665  0.20989  1.0000
  I   I250      1.0  0.95094  0.92079  0.23075  1.0000
  I   I251      1.0  0.16857  0.87256  0.48566  1.0000
  I   I252      1.0  0.20896  0.72851  0.86328  1.0000
  I   I253      1.0  0.35877  0.28797  0.27512  1.0000
  I   I254      1.0  0.47440  0.05381  0.53628  1.0000
  I   I255      1.0  0.38149  0.16244  0.01875  1.0000
  I   I256      1.0  0.33127  0.43395  0.12353  1.0000
  I   I257      1.0  0.19409  0.45238  0.29085  1.0000
  I   I258      1.0  0.50823  0.44954  0.83322  1.0000
  I   I259      1.0  0.34861  0.82892  0.17588  1.0000
  I   I260      1.0  0.47242  0.66449  0.79673  1.0000
  I   I261      1.0  0.29680  0.72492  0.38429  1.0000
  I   I262      1.0  0.24649  0.89911  0.74824  1.0000
  I   I263      1.0  0.44913  0.83456  0.11811  1.0000
  I   I264      1.0  0.52349  0.70520  0.62401  1.0000
  I   I265      1.0  0.68852  0.13842  0.49609  1.0000
  I   I266      1.0  0.69406  0.15730  0.87342  1.0000
  I   I267      1.0  0.68765  0.16598  0.21907  1.0000
  I   I268      1.0  0.67411  0.33585  0.26181  1.0000
  I   I269      1.0  0.72103  0.40448  0.41598  1.0000
  I   I270      1.0  0.72308  0.34214  0.85122  1.0000
  I   I271      1.0  0.64933  0.55562  0.35254  1.0000
  I   I272      1.0  0.80135  0.53023  0.68071  1.0000
  I   I273      1.0  0.71278  0.54649  0.08808  1.0000
  I   I274      1.0  0.78546  0.65237  0.12766  1.0000
  I   I275      1.0  0.81348  0.72338  0.41759  1.0000
  I   I276      1.0  0.78740  0.68213  0.79366  1.0000
  I   I277      1.0  0.79844  0.10261  0.11873  1.0000
  I   I278      1.0  0.82711  0.09625  0.44414  1.0000
  I   I279      1.0  0.78984  0.09979  0.79595  1.0000
  I   I280      1.0  0.93066  0.33705  0.14720  1.0000
  I   I281      1.0  0.03401  0.26391  0.39292  1.0000
  I   I282      1.0  0.12274  0.12677  0.56346  1.0000
  I   I283      1.0  0.90574  0.45874  0.21347  1.0000
  I   I284      1.0  0.88925  0.46762  0.70905  1.0000
  I   I285      1.0  0.91980  0.53798  0.98061  1.0000
  I   I286      1.0  0.82027  0.99249  0.29671  1.0000
  I   I287      1.0  0.79847  0.96512  0.73450  1.0000
  I   I288      1.0  0.70091  0.01507  0.02861  1.0000
  I   I289      1.0  0.31818  0.01757  0.57217  1.0000
  I   I290      1.0  0.13188  0.07959  0.87896  1.0000
  I   I291      1.0  0.20287  0.97831  0.29849  1.0000
  I   I292      1.0  0.15220  0.17609  0.20518  1.0000
  I   I293      1.0  0.06153  0.30010  0.66357  1.0000
  I   I294      1.0  0.09940  0.23312  0.87480  1.0000
  I   I295      1.0  0.99123  0.60307  0.41132  1.0000
  I   I296      1.0  0.01702  0.81486  0.69376  1.0000
  I   I297      1.0  0.91351  0.82443  0.02567  1.0000
  I   I298      1.0  0.89156  0.01398  0.15821  1.0000
  I   I299      1.0  0.97354  0.86767  0.45581  1.0000
  I   I300      1.0  0.22815  0.75044  0.67828  1.0000
  I   I301      1.0  0.31016  0.31525  0.99150  1.0000
  I   I302      1.0  0.29523  0.37132  0.32759  1.0000
  I   I303      1.0  0.41237  0.21592  0.75846  1.0000
  I   I304      1.0  0.34630  0.42036  0.86316  1.0000
  I   I305      1.0  0.19879  0.46047  0.97605  1.0000
  I   I306      1.0  0.13673  0.39936  0.25085  1.0000
  I   I307      1.0  0.19207  0.82770  0.15226  1.0000
  I   I308      1.0  0.36341  0.68011  0.00993  1.0000
  I   I309      1.0  0.23251  0.59726  0.32289  1.0000
  I   I310      1.0  0.31362  0.87577  0.60347  1.0000
  I   I311      1.0  0.40498  0.99780  0.96730  1.0000
  I   I312      1.0  0.46510  0.81315  0.30455  1.0000
  I   I313      1.0  0.53782  0.17991  0.34628  1.0000
  I   I314      1.0  0.57590  0.15885  0.72539  1.0000
  I   I315      1.0  0.58374  0.14706  0.02968  1.0000
  I   I316      1.0  0.59801  0.38995  0.00768  1.0000
  I   I317      1.0  0.50143  0.46057  0.24693  1.0000
  I   I318      1.0  0.59194  0.42634  0.67969  1.0000
  I   I319      1.0  0.55748  0.64420  0.11107  1.0000
  I   I320      1.0  0.56334  0.54265  0.34426  1.0000
  I   I321      1.0  0.63768  0.58748  0.80410  1.0000
  I   I322      1.0  0.68408  0.75766  0.01382  1.0000
  I   I323      1.0  0.63609  0.83624  0.39288  1.0000
  I   I324      1.0  0.62657  0.80928  0.74815  1.0000
  I   I325      1.0  0.74363  0.25728  0.93400  1.0000
  I   I326      1.0  0.73107  0.23544  0.27828  1.0000
  I   I327      1.0  0.71481  0.23435  0.60599  1.0000
  I   I328      1.0  0.78451  0.43452  0.96346  1.0000
  I   I329      1.0  0.85217  0.32625  0.41099  1.0000
  I   I330      1.0  0.02195  0.07887  0.37824  1.0000
  I   I331      1.0  0.05574  0.59657  0.99354  1.0000
  I   I332      1.0  0.89979  0.56608  0.50012  1.0000
  I   I333      1.0  0.98029  0.56486  0.74574  1.0000
  I   I334      1.0  0.61959  0.03748  0.13466  1.0000
  I   I335      1.0  0.76970  0.87960  0.52763  1.0000
  I   I336      1.0  0.69967  0.92217  0.80432  1.0000
  I   I337      1.0  0.27331  0.06352  0.46096  1.0000
  I   I338      1.0  0.21447  0.09386  0.86102  1.0000
  I   I339      1.0  0.16852  0.06359  0.21527  1.0000
  I   I340      1.0  0.09704  0.25645  0.14042  1.0000
  I   I341      1.0  0.09000  0.30510  0.50566  1.0000
  I   I342      1.0  0.10011  0.31173  0.79894  1.0000
  I   I343      1.0  0.92544  0.66025  0.32499  1.0000
  I   I344      1.0  0.94846  0.87789  0.78470  1.0000
  I   I345      1.0  0.88245  0.75158  0.02378  1.0000
  I   I346      1.0  0.96659  0.02960  0.09628  1.0000
  I   I347      1.0  0.93945  0.85715  0.31137  1.0000
  I   I348      1.0  0.15490  0.83127  0.60449  1.0000
  I   I349      1.0  0.37249  0.30169  0.87170  1.0000
  I   I350      1.0  0.35367  0.41478  0.28571  1.0000
  I   I351      1.0  0.47333  0.16659  0.61883  1.0000
  I   I352      1.0  0.38333  0.45712  0.74667  1.0000
  I   I353      1.0  0.21186  0.54188  0.95589  1.0000
  I   I354      1.0  0.07291  0.49383  0.27781  1.0000
  I   I355      1.0  0.21558  0.74396  0.12870  1.0000
  I   I356      1.0  0.43917  0.64131  0.10983  1.0000
  I   I357      1.0  0.26734  0.60251  0.46547  1.0000
  I   I358      1.0  0.40908  0.80799  0.54388  1.0000
  I   I359      1.0  0.46415  0.94318  0.87138  1.0000
  I   I360      1.0  0.55146  0.79975  0.26485  1.0000
  I   I361      1.0  0.52613  0.25424  0.24606  1.0000
  I   I362      1.0  0.53152  0.24204  0.64128  1.0000
  I   I363      1.0  0.53150  0.24471  0.95761  1.0000
  I   I364      1.0  0.58558  0.46929  0.95414  1.0000
  I   I365      1.0  0.52589  0.37164  0.27430  1.0000
  I   I366      1.0  0.59843  0.49210  0.60311  1.0000
  I   I367      1.0  0.59492  0.70018  0.07374  1.0000
  I   I368      1.0  0.52351  0.62523  0.42335  1.0000
  I   I369      1.0  0.66918  0.63613  0.74095  1.0000
  I   I370      1.0  0.70171  0.82379  0.93610  1.0000
  I   I371      1.0  0.65125  0.88586  0.25688  1.0000
  I   I372      1.0  0.64714  0.84906  0.59581  1.0000
  I   I373      1.0  0.81517  0.23660  0.83062  1.0000
  I   I374      1.0  0.79779  0.25398  0.17280  1.0000
  I   I375      1.0  0.77842  0.25158  0.54160  1.0000
  I   I376      1.0  0.78509  0.36067  0.02729  1.0000
  I   I377      1.0  0.88242  0.32713  0.58758  1.0000
  I   I378      1.0  0.96039  0.15239  0.46233  1.0000
  I   I379      1.0  0.08194  0.51335  0.91349  1.0000
  I   I380      1.0  0.95773  0.50704  0.35634  1.0000
  I   I381      1.0  0.02369  0.48072  0.65946  1.0000
  I   I382      1.0  0.68488  0.94926  0.16123  1.0000
  I   I383      1.0  0.74851  0.93859  0.39926  1.0000
  I   I384      1.0  0.65919  0.96890  0.67170  1.0000
