data_image0
_chemical_formula_structural       Ti96I384
_chemical_formula_sum              "Ti96 I384"
_cell_length_a       73.5369
_cell_length_b       73.5382
_cell_length_c       35.9504
_cell_angle_alpha    88.7757
_cell_angle_beta     88.7757
_cell_angle_gamma    62.1586

_space_group_name_H-M_alt    "P 1"
_space_group_IT_number       1

loop_
  _space_group_symop_operation_xyz
  'x, y, z'

loop_
  _atom_site_type_symbol
  _atom_site_label
  _atom_site_symmetry_multiplicity
  _atom_site_fract_x
  _atom_site_fract_y
  _atom_site_fract_z
  _atom_site_occupancy
  Ti  Ti1       1.0  0.70284  0.36688  0.87879  1.0000
  Ti  Ti2       1.0  0.37582  0.76445  0.30276  1.0000
  Ti  Ti3       1.0  0.23019  0.00194  0.08155  1.0000
  Ti  Ti4       1.0  0.10584  0.20755  0.86174  1.0000
  Ti  Ti5       1.0  0.46154  0.80743  0.57684  1.0000
  Ti  Ti6       1.0  0.37073  0.31364  0.43946  1.0000
  Ti  Ti7       1.0  0.54032  0.69803  0.93449  1.0000
  Ti  Ti8       1.0  0.26233  0.59093  0.58047  1.0000
  Ti  Ti9       1.0  0.33967  0.29750  0.72970  1.0000
  Ti  Ti10      1.0  0.62240  0.62261  0.19086  1.0000
  Ti  Ti11      1.0  0.19631  0.12519  0.14960  1.0000
  Ti  Ti12      1.0  0.88022  0.05755  0.89822  1.0000
  Ti  Ti13      1.0  0.83967  0.76897  0.46089  1.0000
  Ti  Ti14      1.0  0.06175  0.22578  0.87220  1.0000
  Ti  Ti15      1.0  0.80467  0.61881  0.55128  1.0000
  Ti  Ti16      1.0  0.21758  0.40508  0.48527  1.0000
  Ti  Ti17      1.0  0.07318  0.12946  0.23201  1.0000
  Ti  Ti18      1.0  0.18571  0.31497  0.75208  1.0000
  Ti  Ti19      1.0  0.03929  0.86861  0.21333  1.0000
  Ti  Ti20      1.0  0.26547  0.71992  0.66603  1.0000
  Ti  Ti21      1.0  0.24423  0.55125  0.52884  1.0000
  Ti  Ti22      1.0  0.00928  0.18710  0.52897  1.0000
  Ti  Ti23      1.0  0.08317  0.97352  0.43596  1.0000
  Ti  Ti24      1.0  0.78484  0.13187  0.15930  1.0000
  Ti  Ti25      1.0  0.60232  0.52396  0.25459  1.0000
  Ti  Ti26      1.0  0.59561  0.96216  0.90314  1.0000
  Ti  Ti27      1.0  0.64521  0.34381  0.29197  1.0000
  Ti  Ti28      1.0  0.31237  0.05797  0.40956  1.0000
  Ti  Ti29      1.0  0.35394  0.75026  0.07449  1.0000
  Ti  Ti30      1.0  0.46900  0.92966  0.32055  1.0000
  Ti  Ti31      1.0  0.24014  0.92879  0.42784  1.0000
  Ti  Ti32      1.0  0.46685  0.80197  0.79215  1.0000
  Ti  Ti33      1.0  0.39673  0.53026  0.90988  1.0000
  Ti  Ti34      1.0  0.69466  0.57454  0.42182  1.0000
  Ti  Ti35      1.0  0.09033  0.54137  0.55286  1.0000
  Ti  Ti36      1.0  0.72878  0.18668  0.25379  1.0000
  Ti  Ti37      1.0  0.93184  0.96126  0.78054  1.0000
  Ti  Ti38      1.0  0.53925  0.03993  0.45381  1.0000
  Ti  Ti39      1.0  0.81123  0.70920  0.93283  1.0000
  Ti  Ti40      1.0  0.58079  0.74741  0.60369  1.0000
  Ti  Ti41      1.0  0.73964  0.41080  0.09496  1.0000
  Ti  Ti42      1.0  0.03020  0.42084  0.09437  1.0000
  Ti  Ti43      1.0  0.81569  0.91986  0.53609  1.0000
  Ti  Ti44      1.0  0.74528  0.44490  0.06394  1.0000
  Ti  Ti45      1.0  0.16748  0.21529  0.38113  1.0000
  Ti  Ti46      1.0  0.43433  0.96322  0.08178  1.0000
  Ti  Ti47      1.0  0.24811  0.94128  0.89717  1.0000
  Ti  Ti48      1.0  0.09909  0.07790  0.00958  1.0000
  Ti  Ti49      1.0  0.77461  0.88912  0.27899  1.0000
  Ti  Ti50      1.0  0.03459  0.26925  0.30444  1.0000
  Ti  Ti51      1.0  0.33513  0.77289  0.37758  1.0000
  Ti  Ti52      1.0  0.86444  0.44827  0.52374  1.0000
  Ti  Ti53      1.0  0.91782  0.79633  0.17280  1.0000
  Ti  Ti54      1.0  0.77915  0.06376  0.59933  1.0000
  Ti  Ti55      1.0  0.54626  0.75212  0.86424  1.0000
  Ti  Ti56      1.0  0.10316  0.07103  0.69879  1.0000
  Ti  Ti57      1.0  0.33097  0.26932  0.68043  1.0000
  Ti  Ti58      1.0  0.38961  0.55888  0.57411  1.0000
  Ti  Ti59      1.0  0.46663  0.28762  0.77114  1.0000
  Ti  Ti60      1.0  0.86479  0.10002  0.83459  1.0000
  Ti  Ti61      1.0  0.76613  0.67974  0.55265  1.0000
  Ti  Ti62      1.0  0.77506  0.81387  0.49060  1.0000
  Ti  Ti63      1.0  0.18473  0.62217  0.02539  1.0000
  Ti  Ti64      1.0  0.20218  0.34622  0.75065  1.0000
  Ti  Ti65      1.0  0.10128  0.75920  0.47459  1.0000
  Ti  Ti66      1.0  0.35264  0.44303  0.73910  1.0000
  Ti  Ti67      1.0  0.97394  0.47492  0.45557  1.0000
  Ti  Ti68      1.0  0.82360  0.01013  0.36463  1.0000
  Ti  Ti69      1.0  0.58762  0.87763  0.35197  1.0000
  Ti  Ti70      1.0  0.96874  0.41375  0.47100  1.0000
  Ti  Ti71      1.0  0.11284  0.00064  0.36215  1.0000
  Ti  Ti72      1.0  0.29608  0.91752  0.88998  1.0000
  Ti  Ti73      1.0  0.68386  0.37053  0.30550  1.0000
  Ti  Ti74      1.0  0.56771  0.49613  0.31061  1.0000
  Ti  Ti75      1.0  0.43039  0.09148  0.93595  1.0000
  Ti  Ti76      1.0  0.31734  0.08687  0.34130  1.0000
  Ti  Ti77      1.0  0.95295  0.81221  0.73325  1.0000
  Ti  Ti78      1.0  0.30451  0.76797  0.14015  1.0000
  Ti  Ti79      1.0  0.64949  0.19923  0.74969  1.0000
  Ti  Ti80      1.0  0.12680  0.30309  0.22170  1.0000
  Ti  Ti81      1.0  0.41948  0.78994  0.84520  1.0000
  Ti  Ti82      1.0  0.89047  0.33927  0.29470  1.0000
  Ti  Ti83      1.0  0.03499  0.58733  0.56306  1.0000
  Ti  Ti84      1.0  0.67927  0.21408  0.31486  1.0000
  Ti  Ti85      1.0  0.96086  0.94550  0.72129  1.0000
  Ti  Ti86      1.0  0.56767  0.40890  0.04046  1.0000
  Ti  Ti87      1.0  0.19608  0.25906  0.38347  1.0000
  Ti  Ti88      1.0  0.83180  0.54624  0.37139  1.0000
  Ti  Ti89      1.0  0.46103  0.41895  0.15337  1.0000
  Ti  Ti90      1.0  0.96956  0.42631  0.15695  1.0000
  Ti  Ti91      1.0  0.20203  0.74757  0.18960  1.0000
  Ti  Ti92      1.0  0.51461  0.82508  0.17587  1.0000
  Ti  Ti93      1.0  0.94283  0.11651  0.36218  1.0000
  Ti  Ti94      1.0  0.10792  0.08465  0.91772  1.0000
  Ti  Ti95      1.0  0.04497  0.52206  0.89132  1.0000
  Ti  Ti96      1.0  0.07564  0.16393  0.70107  1.0000
  I   I1        1.0  0.31631  0.88779  0.94784  1.0000
  I   I2        1.0  0.29818  0.78542  0.35821  1.0000
  I   I3        1.0  0.81351  0.87337  0.29200  1.0000
  I   I4        1.0  0.94317  0.75883  0.18460  1.0000
  I   I5        1.0  0.34362  0.34523  0.47354  1.0000
  I   I6        1.0  0.81503  0.05989  0.57460  1.0000
  I   I7        1.0  0.28351  0.56931  0.64348  1.0000
  I   I8        1.0  0.13612  0.03869  0.69372  1.0000
  I   I9        1.0  0.29802  0.31120  0.70571  1.0000
  I   I10       1.0  0.59964  0.62476  0.24983  1.0000
  I   I11       1.0  0.21929  0.08557  0.16932  1.0000
  I   I12       1.0  0.44910  0.83705  0.63144  1.0000
  I   I13       1.0  0.86577  0.75280  0.51401  1.0000
  I   I14       1.0  0.16159  0.60477  0.02970  1.0000
  I   I15       1.0  0.82471  0.60897  0.60912  1.0000
  I   I16       1.0  0.58735  0.63643  0.14477  1.0000
  I   I17       1.0  0.32488  0.48052  0.75616  1.0000
  I   I18       1.0  0.16699  0.31957  0.81246  1.0000
  I   I19       1.0  0.28695  0.68105  0.67005  1.0000
  I   I20       1.0  0.17055  0.15891  0.18639  1.0000
  I   I21       1.0  0.28467  0.60744  0.57113  1.0000
  I   I22       1.0  0.04624  0.99514  0.40656  1.0000
  I   I23       1.0  0.13952  0.98521  0.30358  1.0000
  I   I24       1.0  0.98365  0.48752  0.51523  1.0000
  I   I25       1.0  0.63193  0.53140  0.27291  1.0000
  I   I26       1.0  0.40371  0.07795  0.93259  1.0000
  I   I27       1.0  0.61360  0.36021  0.24701  1.0000
  I   I28       1.0  0.32315  0.01700  0.41803  1.0000
  I   I29       1.0  0.27854  0.80477  0.14988  1.0000
  I   I30       1.0  0.48865  0.91964  0.38150  1.0000
  I   I31       1.0  0.16120  0.29422  0.17978  1.0000
  I   I32       1.0  0.42236  0.81409  0.78712  1.0000
  I   I33       1.0  0.62655  0.19330  0.69565  1.0000
  I   I34       1.0  0.11724  0.51779  0.59973  1.0000
  I   I35       1.0  0.68698  0.20655  0.24147  1.0000
  I   I36       1.0  0.70760  0.58163  0.48407  1.0000
  I   I37       1.0  0.89284  0.97344  0.79509  1.0000
  I   I38       1.0  0.77129  0.72801  0.93421  1.0000
  I   I39       1.0  0.92915  0.94863  0.85795  1.0000
  I   I40       1.0  0.78069  0.42749  0.02581  1.0000
  I   I41       1.0  0.01418  0.40156  0.14541  1.0000
  I   I42       1.0  0.61817  0.71744  0.62289  1.0000
  I   I43       1.0  0.36319  0.56122  0.52400  1.0000
  I   I44       1.0  0.70982  0.45041  0.11903  1.0000
  I   I45       1.0  0.19194  0.28523  0.43321  1.0000
  I   I46       1.0  0.01038  0.53333  0.93037  1.0000
  I   I47       1.0  0.23097  0.97992  0.89821  1.0000
  I   I48       1.0  0.10460  0.09446  0.07267  1.0000
  I   I49       1.0  0.75935  0.90625  0.21822  1.0000
  I   I50       1.0  0.37682  0.76569  0.22496  1.0000
  I   I51       1.0  0.40931  0.77580  0.30860  1.0000
  I   I52       1.0  0.10022  0.28878  0.23088  1.0000
  I   I53       1.0  0.91960  0.80143  0.10035  1.0000
  I   I54       1.0  0.74070  0.10154  0.59492  1.0000
  I   I55       1.0  0.54096  0.71638  0.85610  1.0000
  I   I56       1.0  0.22515  0.56185  0.46682  1.0000
  I   I57       1.0  0.05718  0.48354  0.87280  1.0000
  I   I58       1.0  0.64447  0.64194  0.18229  1.0000
  I   I59       1.0  0.48680  0.25045  0.74499  1.0000
  I   I60       1.0  0.90516  0.05501  0.84650  1.0000
  I   I61       1.0  0.77357  0.85151  0.47991  1.0000
  I   I62       1.0  0.73566  0.83085  0.48895  1.0000
  I   I63       1.0  0.17613  0.63482  0.95751  1.0000
  I   I64       1.0  0.18898  0.39534  0.50739  1.0000
  I   I65       1.0  0.10438  0.75223  0.54551  1.0000
  I   I66       1.0  0.33389  0.42219  0.75443  1.0000
  I   I67       1.0  0.06522  0.84684  0.26856  1.0000
  I   I68       1.0  0.24546  0.71787  0.60538  1.0000
  I   I69       1.0  0.59345  0.91046  0.33281  1.0000
  I   I70       1.0  0.93127  0.42338  0.46069  1.0000
  I   I71       1.0  0.07570  0.01799  0.32996  1.0000
  I   I72       1.0  0.26940  0.89534  0.89384  1.0000
  I   I73       1.0  0.64242  0.38816  0.28479  1.0000
  I   I74       1.0  0.56026  0.96709  0.92557  1.0000
  I   I75       1.0  0.59144  0.98802  0.84682  1.0000
  I   I76       1.0  0.95686  0.84476  0.73764  1.0000
  I   I77       1.0  0.91528  0.83067  0.75739  1.0000
  I   I78       1.0  0.66807  0.36672  0.91090  1.0000
  I   I79       1.0  0.36144  0.54143  0.94434  1.0000
  I   I80       1.0  0.25094  0.94961  0.46931  1.0000
  I   I81       1.0  0.45979  0.76643  0.81998  1.0000
  I   I82       1.0  0.92989  0.33087  0.32243  1.0000
  I   I83       1.0  0.01556  0.59020  0.50661  1.0000
  I   I84       1.0  0.71295  0.17228  0.30515  1.0000
  I   I85       1.0  0.91720  0.96059  0.70749  1.0000
  I   I86       1.0  0.36222  0.43097  0.66589  1.0000
  I   I87       1.0  0.82573  0.67572  0.88981  1.0000
  I   I88       1.0  0.58803  0.77825  0.59250  1.0000
  I   I89       1.0  0.71768  0.43448  0.03053  1.0000
  I   I90       1.0  0.95391  0.43182  0.22222  1.0000
  I   I91       1.0  0.16144  0.77026  0.20003  1.0000
  I   I92       1.0  0.51489  0.86044  0.19335  1.0000
  I   I93       1.0  0.72198  0.48627  0.04582  1.0000
  I   I94       1.0  0.11138  0.05488  0.86449  1.0000
  I   I95       1.0  0.45982  0.92283  0.10083  1.0000
  I   I96       1.0  0.09118  0.18673  0.67538  1.0000
  I   I97       1.0  0.23443  0.01093  0.15107  1.0000
  I   I98       1.0  0.71692  0.32801  0.90524  1.0000
  I   I99       1.0  0.33083  0.79265  0.44625  1.0000
  I   I100      1.0  0.06364  0.19370  0.84190  1.0000
  I   I101      1.0  0.82265  0.52339  0.33324  1.0000
  I   I102      1.0  0.48504  0.77189  0.60337  1.0000
  I   I103      1.0  0.56649  0.66357  0.90905  1.0000
  I   I104      1.0  0.56461  0.77183  0.88131  1.0000
  I   I105      1.0  0.37463  0.27625  0.76296  1.0000
  I   I106      1.0  0.84405  0.09796  0.77783  1.0000
  I   I107      1.0  0.64044  0.58399  0.19189  1.0000
  I   I108      1.0  0.84015  0.09589  0.90161  1.0000
  I   I109      1.0  0.80934  0.65546  0.53385  1.0000
  I   I110      1.0  0.78300  0.77828  0.52645  1.0000
  I   I111      1.0  0.22442  0.59687  0.04059  1.0000
  I   I112      1.0  0.16781  0.34549  0.69908  1.0000
  I   I113      1.0  0.11128  0.77001  0.41017  1.0000
  I   I114      1.0  0.05969  0.14816  0.16342  1.0000
  I   I115      1.0  0.95656  0.50930  0.42324  1.0000
  I   I116      1.0  0.99030  0.38790  0.41822  1.0000
  I   I117      1.0  0.80852  0.03875  0.31376  1.0000
  I   I118      1.0  0.02351  0.21122  0.49634  1.0000
  I   I119      1.0  0.97859  0.38464  0.51931  1.0000
  I   I120      1.0  0.32562  0.90637  0.84836  1.0000
  I   I121      1.0  0.69099  0.39593  0.25817  1.0000
  I   I122      1.0  0.62801  0.49564  0.20486  1.0000
  I   I123      1.0  0.43685  0.09959  0.86432  1.0000
  I   I124      1.0  0.49597  0.90623  0.27274  1.0000
  I   I125      1.0  0.29133  0.06559  0.35156  1.0000
  I   I126      1.0  0.31232  0.77685  0.07193  1.0000
  I   I127      1.0  0.42814  0.52136  0.95521  1.0000
  I   I128      1.0  0.08397  0.24119  0.90693  1.0000
  I   I129      1.0  0.38351  0.82346  0.85960  1.0000
  I   I130      1.0  0.79652  0.15653  0.18406  1.0000
  I   I131      1.0  0.85712  0.34501  0.24692  1.0000
  I   I132      1.0  0.06078  0.53019  0.54158  1.0000
  I   I133      1.0  0.82647  0.70047  0.00233  1.0000
  I   I134      1.0  0.54497  0.06427  0.39288  1.0000
  I   I135      1.0  0.38990  0.44101  0.75790  1.0000
  I   I136      1.0  0.96405  0.39584  0.13501  1.0000
  I   I137      1.0  0.82655  0.45537  0.53611  1.0000
  I   I138      1.0  0.48702  0.43331  0.18932  1.0000
  I   I139      1.0  0.21350  0.77377  0.16800  1.0000
  I   I140      1.0  0.49259  0.83838  0.11734  1.0000
  I   I141      1.0  0.92122  0.10785  0.41134  1.0000
  I   I142      1.0  0.13675  0.07703  0.99105  1.0000
  I   I143      1.0  0.20231  0.03858  0.06383  1.0000
  I   I144      1.0  0.06350  0.15719  0.64043  1.0000
  I   I145      1.0  0.70019  0.39365  0.93035  1.0000
  I   I146      1.0  0.36265  0.73621  0.31387  1.0000
  I   I147      1.0  0.21232  0.97732  0.08705  1.0000
  I   I148      1.0  0.87220  0.42873  0.46104  1.0000
  I   I149      1.0  0.48647  0.81717  0.53546  1.0000
  I   I150      1.0  0.40105  0.28743  0.47954  1.0000
  I   I151      1.0  0.56007  0.74480  0.78941  1.0000
  I   I152      1.0  0.23909  0.59597  0.51703  1.0000
  I   I153      1.0  0.34700  0.24915  0.61847  1.0000
  I   I154      1.0  0.80681  0.94486  0.47770  1.0000
  I   I155      1.0  0.19274  0.11598  0.07907  1.0000
  I   I156      1.0  0.89687  0.03650  0.95707  1.0000
  I   I157      1.0  0.77877  0.60420  0.55873  1.0000
  I   I158      1.0  0.18264  0.64782  0.07849  1.0000
  I   I159      1.0  0.75140  0.71402  0.51959  1.0000
  I   I160      1.0  0.22414  0.33862  0.81269  1.0000
  I   I161      1.0  0.10906  0.12498  0.23951  1.0000
  I   I162      1.0  0.18471  0.28432  0.72476  1.0000
  I   I163      1.0  0.04108  0.85234  0.15158  1.0000
  I   I164      1.0  0.86193  0.99836  0.35882  1.0000
  I   I165      1.0  0.28460  0.54682  0.54096  1.0000
  I   I166      1.0  0.04369  0.14976  0.54284  1.0000
  I   I167      1.0  0.08583  0.98590  0.50058  1.0000
  I   I168      1.0  0.77700  0.10659  0.20028  1.0000
  I   I169      1.0  0.56610  0.52024  0.24484  1.0000
  I   I170      1.0  0.53116  0.52277  0.31679  1.0000
  I   I171      1.0  0.67547  0.33970  0.34932  1.0000
  I   I172      1.0  0.33804  0.05389  0.46449  1.0000
  I   I173      1.0  0.39496  0.71900  0.08547  1.0000
  I   I174      1.0  0.44596  0.91242  0.33590  1.0000
  I   I175      1.0  0.23138  0.91436  0.48811  1.0000
  I   I176      1.0  0.50816  0.77420  0.81861  1.0000
  I   I177      1.0  0.64855  0.22567  0.69377  1.0000
  I   I178      1.0  0.90896  0.33735  0.22722  1.0000
  I   I179      1.0  0.07130  0.57117  0.60736  1.0000
  I   I180      1.0  0.64738  0.25800  0.30123  1.0000
  I   I181      1.0  0.97179  0.92305  0.66433  1.0000
  I   I182      1.0  0.57609  0.41374  0.96851  1.0000
  I   I183      1.0  0.13793  0.21926  0.33793  1.0000
  I   I184      1.0  0.80368  0.56320  0.42198  1.0000
  I   I185      1.0  0.45930  0.39842  0.21289  1.0000
  I   I186      1.0  0.03999  0.39324  0.04354  1.0000
  I   I187      1.0  0.55480  0.79362  0.16675  1.0000
  I   I188      1.0  0.75948  0.46674  0.11257  1.0000
  I   I189      1.0  0.15991  0.19828  0.43844  1.0000
  I   I190      1.0  0.43755  0.98725  0.12934  1.0000
  I   I191      1.0  0.02254  0.27569  0.37685  1.0000
  I   I192      1.0  0.07689  0.09870  0.87284  1.0000
  I   I193      1.0  0.35905  0.73601  0.00570  1.0000
  I   I194      1.0  0.00634  0.25978  0.27379  1.0000
  I   I195      1.0  0.27130  0.97854  0.07240  1.0000
  I   I196      1.0  0.13698  0.21404  0.87754  1.0000
  I   I197      1.0  0.43098  0.54154  0.57207  1.0000
  I   I198      1.0  0.35874  0.28876  0.40390  1.0000
  I   I199      1.0  0.58747  0.71766  0.86617  1.0000
  I   I200      1.0  0.12399  0.09107  0.70054  1.0000
  I   I201      1.0  0.32303  0.33001  0.76795  1.0000
  I   I202      1.0  0.46637  0.31395  0.72145  1.0000
  I   I203      1.0  0.55131  0.88292  0.35398  1.0000
  I   I204      1.0  0.88323  0.10015  0.90595  1.0000
  I   I205      1.0  0.81446  0.79840  0.52296  1.0000
  I   I206      1.0  0.02222  0.25477  0.84339  1.0000
  I   I207      1.0  0.81440  0.61418  0.47719  1.0000
  I   I208      1.0  0.22052  0.42907  0.53640  1.0000
  I   I209      1.0  0.07940  0.09690  0.27309  1.0000
  I   I210      1.0  0.68198  0.16191  0.73520  1.0000
  I   I211      1.0  0.00587  0.46332  0.40566  1.0000
  I   I212      1.0  0.28987  0.73223  0.64060  1.0000
  I   I213      1.0  0.60227  0.87082  0.41677  1.0000
  I   I214      1.0  0.99272  0.20152  0.59088  1.0000
  I   I215      1.0  0.07283  0.94593  0.46020  1.0000
  I   I216      1.0  0.76112  0.14579  0.09490  1.0000
  I   I217      1.0  0.57718  0.56005  0.22512  1.0000
  I   I218      1.0  0.46443  0.08309  0.97893  1.0000
  I   I219      1.0  0.67950  0.33243  0.25368  1.0000
  I   I220      1.0  0.97920  0.78061  0.77140  1.0000
  I   I221      1.0  0.34106  0.73101  0.12713  1.0000
  I   I222      1.0  0.29825  0.09964  0.41463  1.0000
  I   I223      1.0  0.20800  0.93370  0.39420  1.0000
  I   I224      1.0  0.45628  0.83303  0.83164  1.0000
  I   I225      1.0  0.40913  0.50225  0.86006  1.0000
  I   I226      1.0  0.88593  0.30841  0.32962  1.0000
  I   I227      1.0  0.10203  0.52253  0.48783  1.0000
  I   I228      1.0  0.70456  0.22529  0.34373  1.0000
  I   I229      1.0  0.06241  0.15393  0.28826  1.0000
  I   I230      1.0  0.51831  0.06359  0.50436  1.0000
  I   I231      1.0  0.83920  0.72295  0.91606  1.0000
  I   I232      1.0  0.03718  0.22745  0.93286  1.0000
  I   I233      1.0  0.76483  0.38161  0.04531  1.0000
  I   I234      1.0  0.06346  0.42327  0.06739  1.0000
  I   I235      1.0  0.80809  0.89139  0.56331  1.0000
  I   I236      1.0  0.92460  0.13167  0.29712  1.0000
  I   I237      1.0  0.20537  0.72500  0.13230  1.0000
  I   I238      1.0  0.05390  0.55212  0.86551  1.0000
  I   I239      1.0  0.10120  0.13177  0.74310  1.0000
  I   I240      1.0  0.06505  0.07954  0.03511  1.0000
  I   I241      1.0  0.70208  0.37290  0.80439  1.0000
  I   I242      1.0  0.33667  0.79679  0.30965  1.0000
  I   I243      1.0  0.43447  0.97965  0.01770  1.0000
  I   I244      1.0  0.83232  0.57301  0.31867  1.0000
  I   I245      1.0  0.88526  0.79134  0.18884  1.0000
  I   I246      1.0  0.37868  0.33222  0.37967  1.0000
  I   I247      1.0  0.51379  0.68480  0.93780  1.0000
  I   I248      1.0  0.23470  0.60803  0.62610  1.0000
  I   I249      1.0  0.34661  0.29813  0.66032  1.0000
  I   I250      1.0  0.44824  0.27846  0.82999  1.0000
  I   I251      1.0  0.23410  0.12268  0.14391  1.0000
  I   I252      1.0  0.85549  0.05014  0.84871  1.0000
  I   I253      1.0  0.85063  0.78953  0.42247  1.0000
  I   I254      1.0  0.11951  0.17815  0.81277  1.0000
  I   I255      1.0  0.78424  0.68178  0.61170  1.0000
  I   I256      1.0  0.06440  0.78581  0.46100  1.0000
  I   I257      1.0  0.00191  0.92541  0.74121  1.0000
  I   I258      1.0  0.22778  0.36331  0.72809  1.0000
  I   I259      1.0  0.99614  0.43021  0.47917  1.0000
  I   I260      1.0  0.82429  0.97537  0.39574  1.0000
  I   I261      1.0  0.26371  0.51441  0.51940  1.0000
  I   I262      1.0  0.98605  0.18978  0.47336  1.0000
  I   I263      1.0  0.09629  0.00902  0.43352  1.0000
  I   I264      1.0  0.74059  0.15695  0.20294  1.0000
  I   I265      1.0  0.59922  0.50902  0.32697  1.0000
  I   I266      1.0  0.60981  0.92473  0.87874  1.0000
  I   I267      1.0  0.70028  0.37743  0.37025  1.0000
  I   I268      1.0  0.27708  0.06307  0.45167  1.0000
  I   I269      1.0  0.29214  0.74796  0.18396  1.0000
  I   I270      1.0  0.32268  0.12115  0.34364  1.0000
  I   I271      1.0  0.26849  0.90662  0.38087  1.0000
  I   I272      1.0  0.43555  0.77959  0.91266  1.0000
  I   I273      1.0  0.40006  0.56252  0.88296  1.0000
  I   I274      1.0  0.67894  0.55301  0.44894  1.0000
  I   I275      1.0  0.07452  0.57729  0.51063  1.0000
  I   I276      1.0  0.66192  0.19598  0.35312  1.0000
  I   I277      1.0  0.88070  0.37755  0.30124  1.0000
  I   I278      1.0  0.57146  0.02676  0.49427  1.0000
  I   I279      1.0  0.20117  0.18260  0.38961  1.0000
  I   I280      1.0  0.85539  0.48756  0.50390  1.0000
  I   I281      1.0  0.77334  0.40549  0.12235  1.0000
  I   I282      1.0  0.01007  0.45362  0.14971  1.0000
  I   I283      1.0  0.85428  0.89340  0.52261  1.0000
  I   I284      1.0  0.95419  0.14761  0.34940  1.0000
  I   I285      1.0  0.19502  0.22612  0.33754  1.0000
  I   I286      1.0  0.02201  0.51634  0.83250  1.0000
  I   I287      1.0  0.24244  0.93232  0.96884  1.0000
  I   I288      1.0  0.07556  0.11323  0.96369  1.0000
  I   I289      1.0  0.74523  0.91855  0.32282  1.0000
  I   I290      1.0  0.03364  0.30334  0.27817  1.0000
  I   I291      1.0  0.34372  0.73453  0.40228  1.0000
  I   I292      1.0  0.89172  0.43480  0.57021  1.0000
  I   I293      1.0  0.92901  0.80924  0.23274  1.0000
  I   I294      1.0  0.78560  0.06930  0.66932  1.0000
  I   I295      1.0  0.55072  0.70339  0.99909  1.0000
  I   I296      1.0  0.07005  0.09049  0.65989  1.0000
  I   I297      1.0  0.33930  0.25851  0.75135  1.0000
  I   I298      1.0  0.36868  0.55534  0.63190  1.0000
  I   I299      1.0  0.25173  0.37112  0.49819  1.0000
  I   I300      1.0  0.97382  0.09577  0.30387  1.0000
  I   I301      1.0  0.76631  0.65128  0.49710  1.0000
  I   I302      1.0  0.84125  0.73493  0.43848  1.0000
  I   I303      1.0  0.54876  0.74820  0.57215  1.0000
  I   I304      1.0  0.16925  0.37955  0.76956  1.0000
  I   I305      1.0  0.21584  0.42800  0.43114  1.0000
  I   I306      1.0  0.56424  0.44379  0.05332  1.0000
  I   I307      1.0  0.00174  0.88789  0.24172  1.0000
  I   I308      1.0  0.24886  0.73418  0.73086  1.0000
  I   I309      1.0  0.22389  0.55047  0.59591  1.0000
  I   I310      1.0  0.82498  0.93942  0.58740  1.0000
  I   I311      1.0  0.11504  0.95695  0.39256  1.0000
  I   I312      1.0  0.29768  0.94352  0.93259  1.0000
  I   I313      1.0  0.72058  0.33979  0.28624  1.0000
  I   I314      1.0  0.58534  0.46158  0.27513  1.0000
  I   I315      1.0  0.40716  0.12824  0.95851  1.0000
  I   I316      1.0  0.33302  0.08264  0.27557  1.0000
  I   I317      1.0  0.35326  0.05899  0.36729  1.0000
  I   I318      1.0  0.33645  0.77971  0.15871  1.0000
  I   I319      1.0  0.64844  0.21964  0.80970  1.0000
  I   I320      1.0  0.10289  0.18050  0.91092  1.0000
  I   I321      1.0  0.48574  0.81117  0.73501  1.0000
  I   I322      1.0  0.72989  0.55164  0.38687  1.0000
  I   I323      1.0  0.01654  0.57024  0.60247  1.0000
  I   I324      1.0  0.73113  0.22154  0.24543  1.0000
  I   I325      1.0  0.94815  0.98452  0.77661  1.0000
  I   I326      1.0  0.53751  0.40932  0.08102  1.0000
  I   I327      1.0  0.19027  0.27634  0.31804  1.0000
  I   I328      1.0  0.57056  0.75664  0.67859  1.0000
  I   I329      1.0  0.49228  0.39035  0.12281  1.0000
  I   I330      1.0  0.94650  0.46257  0.12905  1.0000
  I   I331      1.0  0.23181  0.23166  0.41202  1.0000
  I   I332      1.0  0.37702  0.59890  0.57071  1.0000
  I   I333      1.0  0.72628  0.38216  0.12591  1.0000
  I   I334      1.0  0.11241  0.04801  0.95456  1.0000
  I   I335      1.0  0.39332  0.97206  0.08469  1.0000
  I   I336      1.0  0.04349  0.18403  0.74047  1.0000
  I   I337      1.0  0.76274  0.85977  0.29625  1.0000
  I   I338      1.0  0.07171  0.23927  0.28312  1.0000
  I   I339      1.0  0.37952  0.76101  0.37510  1.0000
  I   I340      1.0  0.13411  0.31242  0.28746  1.0000
  I   I341      1.0  0.43901  0.80363  0.52989  1.0000
  I   I342      1.0  0.78382  0.02565  0.60493  1.0000
  I   I343      1.0  0.54013  0.73861  0.93410  1.0000
  I   I344      1.0  0.08946  0.07461  0.76351  1.0000
  I   I345      1.0  0.30569  0.25395  0.68557  1.0000
  I   I346      1.0  0.94486  0.47029  0.49395  1.0000
  I   I347      1.0  0.48858  0.29684  0.82099  1.0000
  I   I348      1.0  0.88825  0.10801  0.78440  1.0000
  I   I349      1.0  0.74380  0.66793  0.59036  1.0000
  I   I350      1.0  0.80100  0.79925  0.43160  1.0000
  I   I351      1.0  0.07424  0.24274  0.81074  1.0000
  I   I352      1.0  0.22511  0.29909  0.75676  1.0000
  I   I353      1.0  0.10354  0.72419  0.45855  1.0000
  I   I354      1.0  0.60275  0.38480  0.07644  1.0000
  I   I355      1.0  0.05365  0.89332  0.19964  1.0000
  I   I356      1.0  0.80142  0.02939  0.42208  1.0000
  I   I357      1.0  0.62794  0.95500  0.93917  1.0000
  I   I358      1.0  0.81401  0.10298  0.12493  1.0000
  I   I359      1.0  0.13248  0.02112  0.36420  1.0000
  I   I360      1.0  0.27485  0.92872  0.82175  1.0000
  I   I361      1.0  0.64256  0.31154  0.31028  1.0000
  I   I362      1.0  0.57136  0.48336  0.38338  1.0000
  I   I363      1.0  0.61400  0.85268  0.30056  1.0000
  I   I364      1.0  0.45514  0.96717  0.29573  1.0000
  I   I365      1.0  0.95470  0.80202  0.66125  1.0000
  I   I366      1.0  0.36782  0.77699  0.07425  1.0000
  I   I367      1.0  0.60996  0.20754  0.77648  1.0000
  I   I368      1.0  0.10464  0.33129  0.17084  1.0000
  I   I369      1.0  0.39656  0.76780  0.83629  1.0000
  I   I370      1.0  0.66518  0.60989  0.39934  1.0000
  I   I371      1.0  0.02620  0.62512  0.58084  1.0000
  I   I372      1.0  0.76625  0.16416  0.29640  1.0000
  I   I373      1.0  0.94637  0.92212  0.76382  1.0000
  I   I374      1.0  0.53096  0.01166  0.43917  1.0000
  I   I375      1.0  0.17144  0.24504  0.41923  1.0000
  I   I376      1.0  0.85553  0.52256  0.42046  1.0000
  I   I377      1.0  0.42422  0.43298  0.12613  1.0000
  I   I378      1.0  0.00411  0.44541  0.04475  1.0000
  I   I379      1.0  0.22710  0.72547  0.23404  1.0000
  I   I380      1.0  0.49463  0.82530  0.23419  1.0000
  I   I381      1.0  0.84054  0.14166  0.83866  1.0000
  I   I382      1.0  0.12410  0.10504  0.88708  1.0000
  I   I383      1.0  0.07675  0.51714  0.93065  1.0000
  I   I384      1.0  0.22351  0.93791  0.85562  1.0000
