data_image0
_chemical_formula_structural       Ti96I384
_chemical_formula_sum              "Ti96 I384"
_cell_length_a       50.1561
_cell_length_b       49.9399
_cell_length_c       24.3015
_cell_angle_alpha    88.7757
_cell_angle_beta     88.7757
_cell_angle_gamma    62.1586

_space_group_name_H-M_alt    "P 1"
_space_group_IT_number       1

loop_
  _space_group_symop_operation_xyz
  'x, y, z'

loop_
  _atom_site_type_symbol
  _atom_site_label
  _atom_site_symmetry_multiplicity
  _atom_site_fract_x
  _atom_site_fract_y
  _atom_site_fract_z
  _atom_site_occupancy
  Ti  Ti1       1.0  0.37119  0.95777  0.36516  1.0000
  Ti  Ti2       1.0  0.18055  0.99578  0.90362  1.0000
  Ti  Ti3       1.0  0.27812  0.90690  0.14353  1.0000
  Ti  Ti4       1.0  0.18066  0.09710  0.48125  1.0000
  Ti  Ti5       1.0  0.07025  0.43047  0.86982  1.0000
  Ti  Ti6       1.0  0.18333  0.20523  0.91872  1.0000
  Ti  Ti7       1.0  0.91529  0.71469  0.95169  1.0000
  Ti  Ti8       1.0  0.95804  0.96436  0.61174  1.0000
  Ti  Ti9       1.0  0.91957  0.84647  0.11462  1.0000
  Ti  Ti10      1.0  0.11932  0.84513  0.04263  1.0000
  Ti  Ti11      1.0  0.11694  0.72762  0.66957  1.0000
  Ti  Ti12      1.0  0.96483  0.77697  0.58891  1.0000
  Ti  Ti13      1.0  0.33896  0.16319  0.40535  1.0000
  Ti  Ti14      1.0  0.34701  0.02364  0.80408  1.0000
  Ti  Ti15      1.0  0.30815  0.08851  0.16629  1.0000
  Ti  Ti16      1.0  0.28970  0.63834  0.93700  1.0000
  Ti  Ti17      1.0  0.20125  0.65988  0.23604  1.0000
  Ti  Ti18      1.0  0.31257  0.40913  0.50727  1.0000
  Ti  Ti19      1.0  0.38727  0.68837  0.11890  1.0000
  Ti  Ti20      1.0  0.65392  0.61774  0.60298  1.0000
  Ti  Ti21      1.0  0.40102  0.63859  0.41209  1.0000
  Ti  Ti22      1.0  0.32017  0.81025  0.80750  1.0000
  Ti  Ti23      1.0  0.53833  0.87200  0.79297  1.0000
  Ti  Ti24      1.0  0.48793  0.74431  0.83334  1.0000
  Ti  Ti25      1.0  0.51176  0.28238  0.80684  1.0000
  Ti  Ti26      1.0  0.37947  0.36337  0.99084  1.0000
  Ti  Ti27      1.0  0.51920  0.29779  0.57032  1.0000
  Ti  Ti28      1.0  0.50217  0.39078  0.17407  1.0000
  Ti  Ti29      1.0  0.63724  0.43707  0.05804  1.0000
  Ti  Ti30      1.0  0.47772  0.52466  0.89973  1.0000
  Ti  Ti31      1.0  0.85305  0.54867  0.27189  1.0000
  Ti  Ti32      1.0  0.82860  0.47339  0.64360  1.0000
  Ti  Ti33      1.0  0.82970  0.52802  0.94901  1.0000
  Ti  Ti34      1.0  0.71013  0.89983  0.93703  1.0000
  Ti  Ti35      1.0  0.57322  0.71515  0.22905  1.0000
  Ti  Ti36      1.0  0.84809  0.68897  0.61596  1.0000
  Ti  Ti37      1.0  0.73086  0.16375  0.25922  1.0000
  Ti  Ti38      1.0  0.86906  0.16610  0.09681  1.0000
  Ti  Ti39      1.0  0.80614  0.13133  0.65398  1.0000
  Ti  Ti40      1.0  0.94595  0.29892  0.10113  1.0000
  Ti  Ti41      1.0  0.98328  0.20880  0.54745  1.0000
  Ti  Ti42      1.0  0.12431  0.98492  0.55759  1.0000
  Ti  Ti43      1.0  0.09390  0.34953  0.20039  1.0000
  Ti  Ti44      1.0  0.09480  0.58667  0.54457  1.0000
  Ti  Ti45      1.0  0.12792  0.58747  0.83578  1.0000
  Ti  Ti46      1.0  0.75184  0.96263  0.42779  1.0000
  Ti  Ti47      1.0  0.65530  0.05283  0.68751  1.0000
  Ti  Ti48      1.0  0.59972  0.09605  0.98164  1.0000
  Ti  Ti49      1.0  0.35596  0.90039  0.32247  1.0000
  Ti  Ti50      1.0  0.10399  0.05738  0.83964  1.0000
  Ti  Ti51      1.0  0.18692  0.01233  0.05563  1.0000
  Ti  Ti52      1.0  0.17185  0.16957  0.36466  1.0000
  Ti  Ti53      1.0  0.04186  0.43177  0.74149  1.0000
  Ti  Ti54      1.0  0.16671  0.15748  0.89970  1.0000
  Ti  Ti55      1.0  0.87722  0.80457  0.00070  1.0000
  Ti  Ti56      1.0  0.94254  0.94051  0.48425  1.0000
  Ti  Ti57      1.0  0.88075  0.94251  0.13384  1.0000
  Ti  Ti58      1.0  0.07746  0.92197  0.07667  1.0000
  Ti  Ti59      1.0  0.19620  0.82231  0.96713  1.0000
  Ti  Ti60      1.0  0.02902  0.76070  0.66082  1.0000
  Ti  Ti61      1.0  0.35471  0.11540  0.25351  1.0000
  Ti  Ti62      1.0  0.26623  0.23567  0.46097  1.0000
  Ti  Ti63      1.0  0.40136  0.04810  0.79550  1.0000
  Ti  Ti64      1.0  0.27898  0.42509  0.62952  1.0000
  Ti  Ti65      1.0  0.26801  0.64150  0.10373  1.0000
  Ti  Ti66      1.0  0.17768  0.66024  0.38151  1.0000
  Ti  Ti67      1.0  0.34405  0.71461  0.29322  1.0000
  Ti  Ti68      1.0  0.68272  0.59270  0.74000  1.0000
  Ti  Ti69      1.0  0.32895  0.68378  0.56223  1.0000
  Ti  Ti70      1.0  0.40773  0.77591  0.77942  1.0000
  Ti  Ti71      1.0  0.57675  0.83060  0.64868  1.0000
  Ti  Ti72      1.0  0.53817  0.89557  0.96459  1.0000
  Ti  Ti73      1.0  0.54302  0.22605  0.66225  1.0000
  Ti  Ti74      1.0  0.41498  0.30962  0.82905  1.0000
  Ti  Ti75      1.0  0.30356  0.37232  0.06848  1.0000
  Ti  Ti76      1.0  0.45696  0.59371  0.78030  1.0000
  Ti  Ti77      1.0  0.44863  0.46902  0.23982  1.0000
  Ti  Ti78      1.0  0.57458  0.49534  0.94001  1.0000
  Ti  Ti79      1.0  0.88734  0.49172  0.09563  1.0000
  Ti  Ti80      1.0  0.93374  0.53841  0.36663  1.0000
  Ti  Ti81      1.0  0.85375  0.48128  0.79340  1.0000
  Ti  Ti82      1.0  0.73214  0.95848  0.94079  1.0000
  Ti  Ti83      1.0  0.65347  0.68712  0.28949  1.0000
  Ti  Ti84      1.0  0.84974  0.73156  0.47554  1.0000
  Ti  Ti85      1.0  0.69673  0.13937  0.39310  1.0000
  Ti  Ti86      1.0  0.82664  0.13759  0.20486  1.0000
  Ti  Ti87      1.0  0.72646  0.20239  0.73153  1.0000
  Ti  Ti88      1.0  0.00015  0.29744  0.03658  1.0000
  Ti  Ti89      1.0  0.92289  0.19804  0.52396  1.0000
  Ti  Ti90      1.0  0.12107  0.92282  0.58613  1.0000
  Ti  Ti91      1.0  0.11988  0.56871  0.01005  1.0000
  Ti  Ti92      1.0  0.09785  0.34588  0.33593  1.0000
  Ti  Ti93      1.0  0.09497  0.56405  0.69678  1.0000
  Ti  Ti94      1.0  0.55700  0.10440  0.13805  1.0000
  Ti  Ti95      1.0  0.65379  0.01723  0.50601  1.0000
  Ti  Ti96      1.0  0.58056  0.06964  0.81285  1.0000
  I   I1        1.0  0.07724  0.04936  0.75723  1.0000
  I   I2        1.0  0.15652  0.05325  0.96678  1.0000
  I   I3        1.0  0.40299  0.85170  0.27564  1.0000
  I   I4        1.0  0.00506  0.41699  0.68699  1.0000
  I   I5        1.0  0.12266  0.18196  0.82416  1.0000
  I   I6        1.0  0.14767  0.24215  0.84099  1.0000
  I   I7        1.0  0.90310  0.95870  0.40683  1.0000
  I   I8        1.0  0.96906  0.01045  0.58996  1.0000
  I   I9        1.0  0.94673  0.81798  0.02627  1.0000
  I   I10       1.0  0.14597  0.82062  0.93257  1.0000
  I   I11       1.0  0.07845  0.73094  0.58193  1.0000
  I   I12       1.0  0.09772  0.94526  0.15523  1.0000
  I   I13       1.0  0.27848  0.20096  0.37122  1.0000
  I   I14       1.0  0.37263  0.04047  0.88678  1.0000
  I   I15       1.0  0.36153  0.06059  0.22321  1.0000
  I   I16       1.0  0.30857  0.66268  0.05099  1.0000
  I   I17       1.0  0.23847  0.62981  0.33882  1.0000
  I   I18       1.0  0.28410  0.42633  0.73242  1.0000
  I   I19       1.0  0.67217  0.55482  0.80105  1.0000
  I   I20       1.0  0.29908  0.74087  0.53927  1.0000
  I   I21       1.0  0.37692  0.70644  0.39521  1.0000
  I   I22       1.0  0.55721  0.80747  0.57907  1.0000
  I   I23       1.0  0.52917  0.88976  0.66714  1.0000
  I   I24       1.0  0.44204  0.80562  0.77745  1.0000
  I   I25       1.0  0.46517  0.25881  0.82871  1.0000
  I   I26       1.0  0.34534  0.33051  0.98579  1.0000
  I   I27       1.0  0.58308  0.17105  0.64941  1.0000
  I   I28       1.0  0.43900  0.41508  0.19113  1.0000
  I   I29       1.0  0.62660  0.41758  0.95815  1.0000
  I   I30       1.0  0.47656  0.52908  0.78616  1.0000
  I   I31       1.0  0.90950  0.54925  0.26186  1.0000
  I   I32       1.0  0.85715  0.51118  0.69695  1.0000
  I   I33       1.0  0.88702  0.49318  0.98439  1.0000
  I   I34       1.0  0.61214  0.65933  0.27561  1.0000
  I   I35       1.0  0.79732  0.73162  0.54016  1.0000
  I   I36       1.0  0.72192  0.01238  0.90364  1.0000
  I   I37       1.0  0.77115  0.12581  0.17978  1.0000
  I   I38       1.0  0.68099  0.24858  0.69029  1.0000
  I   I39       1.0  0.69113  0.08921  0.41238  1.0000
  I   I40       1.0  0.87846  0.23282  0.46523  1.0000
  I   I41       1.0  0.09975  0.89804  0.51446  1.0000
  I   I42       1.0  0.99941  0.32900  0.12802  1.0000
  I   I43       1.0  0.11356  0.38810  0.35993  1.0000
  I   I44       1.0  0.10759  0.53180  0.58462  1.0000
  I   I45       1.0  0.09330  0.56226  0.89947  1.0000
  I   I46       1.0  0.69058  0.96698  0.45642  1.0000
  I   I47       1.0  0.63260  0.02350  0.75526  1.0000
  I   I48       1.0  0.55090  0.07958  0.03254  1.0000
  I   I49       1.0  0.32647  0.93072  0.41808  1.0000
  I   I50       1.0  0.16847  0.02684  0.80961  1.0000
  I   I51       1.0  0.23338  0.96558  0.13812  1.0000
  I   I52       1.0  0.14045  0.16667  0.45823  1.0000
  I   I53       1.0  0.02814  0.48777  0.77895  1.0000
  I   I54       1.0  0.22384  0.14802  0.96185  1.0000
  I   I55       1.0  0.82351  0.80752  0.99708  1.0000
  I   I56       1.0  0.93383  0.92303  0.59448  1.0000
  I   I57       1.0  0.87981  0.90017  0.05305  1.0000
  I   I58       1.0  0.11128  0.79896  0.04823  1.0000
  I   I59       1.0  0.18387  0.84930  0.86838  1.0000
  I   I60       1.0  0.97368  0.79603  0.70120  1.0000
  I   I61       1.0  0.35678  0.17520  0.29599  1.0000
  I   I62       1.0  0.26142  0.28881  0.42155  1.0000
  I   I63       1.0  0.45437  0.03675  0.80927  1.0000
  I   I64       1.0  0.25903  0.61946  0.88219  1.0000
  I   I65       1.0  0.23540  0.61321  0.15909  1.0000
  I   I66       1.0  0.19285  0.60501  0.42527  1.0000
  I   I67       1.0  0.33290  0.70934  0.18169  1.0000
  I   I68       1.0  0.67771  0.56053  0.64852  1.0000
  I   I69       1.0  0.33890  0.65139  0.45348  1.0000
  I   I70       1.0  0.37010  0.74493  0.80033  1.0000
  I   I71       1.0  0.59842  0.84802  0.76280  1.0000
  I   I72       1.0  0.58317  0.85678  0.02573  1.0000
  I   I73       1.0  0.49956  0.29187  0.69515  1.0000
  I   I74       1.0  0.37339  0.36385  0.86691  1.0000
  I   I75       1.0  0.26917  0.41512  0.13088  1.0000
  I   I76       1.0  0.52105  0.33691  0.21308  1.0000
  I   I77       1.0  0.46369  0.50803  0.27049  1.0000
  I   I78       1.0  0.52577  0.54913  0.92972  1.0000
  I   I79       1.0  0.87404  0.48883  0.22223  1.0000
  I   I80       1.0  0.90958  0.56343  0.45755  1.0000
  I   I81       1.0  0.83644  0.47423  0.89619  1.0000
  I   I82       1.0  0.72702  0.88261  0.04350  1.0000
  I   I83       1.0  0.51817  0.72276  0.24447  1.0000
  I   I84       1.0  0.90725  0.71225  0.45165  1.0000
  I   I85       1.0  0.75715  0.11715  0.35005  1.0000
  I   I86       1.0  0.85787  0.16912  0.23051  1.0000
  I   I87       1.0  0.86086  0.10625  0.70467  1.0000
  I   I88       1.0  0.92917  0.34516  0.04188  1.0000
  I   I89       1.0  0.00328  0.20677  0.64592  1.0000
  I   I90       1.0  0.14225  0.95216  0.65336  1.0000
  I   I91       1.0  0.14982  0.58495  0.07812  1.0000
  I   I92       1.0  0.04597  0.35723  0.37689  1.0000
  I   I93       1.0  0.08130  0.61265  0.76443  1.0000
  I   I94       1.0  0.50487  0.14989  0.15864  1.0000
  I   I95       1.0  0.61908  0.06695  0.58060  1.0000
  I   I96       1.0  0.55045  0.11808  0.87867  1.0000
  I   I97       1.0  0.30466  0.91597  0.24641  1.0000
  I   I98       1.0  0.37564  0.97013  0.46681  1.0000
  I   I99       1.0  0.23384  0.98272  0.95683  1.0000
  I   I100      1.0  0.16234  0.13650  0.29126  1.0000
  I   I101      1.0  0.13463  0.09355  0.51744  1.0000
  I   I102      1.0  0.01871  0.42499  0.85094  1.0000
  I   I103      1.0  0.85605  0.84708  0.08255  1.0000
  I   I104      1.0  0.92244  0.69568  0.84731  1.0000
  I   I105      1.0  0.82331  0.97373  0.11288  1.0000
  I   I106      1.0  0.91526  0.78188  0.62687  1.0000
  I   I107      1.0  0.17764  0.81272  0.09025  1.0000
  I   I108      1.0  0.06256  0.71995  0.74900  1.0000
  I   I109      1.0  0.41646  0.09234  0.24319  1.0000
  I   I110      1.0  0.33047  0.21806  0.44611  1.0000
  I   I111      1.0  0.41085  0.98668  0.80112  1.0000
  I   I112      1.0  0.32710  0.37371  0.60681  1.0000
  I   I113      1.0  0.23075  0.66018  0.01527  1.0000
  I   I114      1.0  0.17314  0.63236  0.28051  1.0000
  I   I115      1.0  0.39254  0.65105  0.30360  1.0000
  I   I116      1.0  0.44339  0.67234  0.07783  1.0000
  I   I117      1.0  0.60415  0.62304  0.57162  1.0000
  I   I118      1.0  0.44706  0.71768  0.75045  1.0000
  I   I119      1.0  0.30907  0.78137  0.89092  1.0000
  I   I120      1.0  0.54230  0.91657  0.85874  1.0000
  I   I121      1.0  0.57416  0.25737  0.62614  1.0000
  I   I122      1.0  0.45621  0.33115  0.83390  1.0000
  I   I123      1.0  0.32658  0.41717  0.00792  1.0000
  I   I124      1.0  0.44689  0.58637  0.89064  1.0000
  I   I125      1.0  0.55393  0.37300  0.12983  1.0000
  I   I126      1.0  0.57358  0.47575  0.05425  1.0000
  I   I127      1.0  0.82810  0.49848  0.05701  1.0000
  I   I128      1.0  0.88161  0.52214  0.37421  1.0000
  I   I129      1.0  0.79761  0.49633  0.74120  1.0000
  I   I130      1.0  0.80608  0.69295  0.67949  1.0000
  I   I131      1.0  0.70411  0.94042  0.85434  1.0000
  I   I132      1.0  0.68098  0.71995  0.31399  1.0000
  I   I133      1.0  0.73429  0.23861  0.79508  1.0000
  I   I134      1.0  0.77643  0.18115  0.27112  1.0000
  I   I135      1.0  0.92791  0.13297  0.10887  1.0000
  I   I136      1.0  0.09152  0.03963  0.58776  1.0000
  I   I137      1.0  0.99505  0.25278  0.16257  1.0000
  I   I138      1.0  0.03374  0.19163  0.49354  1.0000
  I   I139      1.0  0.10420  0.63682  0.88274  1.0000
  I   I140      1.0  0.04146  0.39750  0.22764  1.0000
  I   I141      1.0  0.13009  0.58795  0.64389  1.0000
  I   I142      1.0  0.56285  0.14159  0.05430  1.0000
  I   I143      1.0  0.71675  0.02065  0.48439  1.0000
  I   I144      1.0  0.61679  0.09357  0.76177  1.0000
  I   I145      1.0  0.36589  0.93851  0.25205  1.0000
  I   I146      1.0  0.12589  0.99484  0.88900  1.0000
  I   I147      1.0  0.25067  0.87887  0.18277  1.0000
  I   I148      1.0  0.22021  0.11723  0.43368  1.0000
  I   I149      1.0  0.11416  0.44152  0.82718  1.0000
  I   I150      1.0  0.20752  0.16235  0.82245  1.0000
  I   I151      1.0  0.91660  0.74887  0.05409  1.0000
  I   I152      1.0  0.92054  0.98363  0.69593  1.0000
  I   I153      1.0  0.96182  0.85955  0.13706  1.0000
  I   I154      1.0  0.07051  0.88353  0.98123  1.0000
  I   I155      1.0  0.13996  0.67021  0.67512  1.0000
  I   I156      1.0  0.00297  0.72067  0.64048  1.0000
  I   I157      1.0  0.35775  0.09913  0.36778  1.0000
  I   I158      1.0  0.30022  0.07975  0.79868  1.0000
  I   I159      1.0  0.29535  0.04680  0.20714  1.0000
  I   I160      1.0  0.27307  0.39083  0.49250  1.0000
  I   I161      1.0  0.23877  0.68454  0.17362  1.0000
  I   I162      1.0  0.29688  0.45102  0.43443  1.0000
  I   I163      1.0  0.39146  0.71381  0.21529  1.0000
  I   I164      1.0  0.62815  0.64323  0.71560  1.0000
  I   I165      1.0  0.39055  0.65280  0.52597  1.0000
  I   I166      1.0  0.37924  0.80179  0.69685  1.0000
  I   I167      1.0  0.54188  0.81840  0.77163  1.0000
  I   I168      1.0  0.50959  0.69755  0.89933  1.0000
  I   I169      1.0  0.54665  0.21958  0.76941  1.0000
  I   I170      1.0  0.42222  0.30611  0.97394  1.0000
  I   I171      1.0  0.55045  0.30663  0.48741  1.0000
  I   I172      1.0  0.44563  0.58894  0.67500  1.0000
  I   I173      1.0  0.64981  0.38689  0.11344  1.0000
  I   I174      1.0  0.53426  0.47091  0.91556  1.0000
  I   I175      1.0  0.85649  0.54682  0.15410  1.0000
  I   I176      1.0  0.88426  0.44195  0.59439  1.0000
  I   I177      1.0  0.84188  0.54136  0.84462  1.0000
  I   I178      1.0  0.76924  0.90109  0.93919  1.0000
  I   I179      1.0  0.59749  0.73104  0.33265  1.0000
  I   I180      1.0  0.87380  0.66855  0.50911  1.0000
  I   I181      1.0  0.70348  0.12812  0.26197  1.0000
  I   I182      1.0  0.80701  0.17717  0.11831  1.0000
  I   I183      1.0  0.81237  0.07609  0.66535  1.0000
  I   I184      1.0  0.91445  0.26988  0.08878  1.0000
  I   I185      1.0  0.95640  0.21934  0.43935  1.0000
  I   I186      1.0  0.17673  0.88662  0.54912  1.0000
  I   I187      1.0  0.11303  0.31919  0.10581  1.0000
  I   I188      1.0  0.05981  0.58840  0.46988  1.0000
  I   I189      1.0  0.14731  0.53389  0.76019  1.0000
  I   I190      1.0  0.76819  0.90650  0.45082  1.0000
  I   I191      1.0  0.68540  0.00669  0.61617  1.0000
  I   I192      1.0  0.61341  0.04532  0.92344  1.0000
  I   I193      1.0  0.32239  0.01215  0.34863  1.0000
  I   I194      1.0  0.21019  0.94385  0.85232  1.0000
  I   I195      1.0  0.27264  0.89734  0.04216  1.0000
  I   I196      1.0  0.21913  0.06572  0.56353  1.0000
  I   I197      1.0  0.05532  0.46700  0.95058  1.0000
  I   I198      1.0  0.22426  0.22056  0.92384  1.0000
  I   I199      1.0  0.87435  0.70827  0.00310  1.0000
  I   I200      1.0  0.97929  0.96033  0.44815  1.0000
  I   I201      1.0  0.87399  0.89322  0.20042  1.0000
  I   I202      1.0  0.09444  0.87247  0.14238  1.0000
  I   I203      1.0  0.13895  0.74908  0.59871  1.0000
  I   I204      1.0  0.97742  0.74342  0.50223  1.0000
  I   I205      1.0  0.39489  0.13958  0.45456  1.0000
  I   I206      1.0  0.34365  0.00091  0.70435  1.0000
  I   I207      1.0  0.26222  0.13578  0.13277  1.0000
  I   I208      1.0  0.26672  0.68909  0.88627  1.0000
  I   I209      1.0  0.15711  0.69145  0.16749  1.0000
  I   I210      1.0  0.23046  0.46786  0.57976  1.0000
  I   I211      1.0  0.35488  0.72480  0.04104  1.0000
  I   I212      1.0  0.69306  0.61990  0.81838  1.0000
  I   I213      1.0  0.40395  0.58821  0.41104  1.0000
  I   I214      1.0  0.29862  0.80045  0.71714  1.0000
  I   I215      1.0  0.55563  0.83788  0.89617  1.0000
  I   I216      1.0  0.52771  0.71474  0.75375  1.0000
  I   I217      1.0  0.55489  0.29548  0.79852  1.0000
  I   I218      1.0  0.41078  0.39144  0.99854  1.0000
  I   I219      1.0  0.46760  0.32300  0.52588  1.0000
  I   I220      1.0  0.51531  0.41947  0.25629  1.0000
  I   I221      1.0  0.68709  0.42925  0.01358  1.0000
  I   I222      1.0  0.47341  0.52578  0.01461  1.0000
  I   I223      1.0  0.80151  0.54894  0.28641  1.0000
  I   I224      1.0  0.80869  0.44294  0.59537  1.0000
  I   I225      1.0  0.76786  0.54655  0.93152  1.0000
  I   I226      1.0  0.65218  0.91836  0.94990  1.0000
  I   I227      1.0  0.55127  0.77278  0.21836  1.0000
  I   I228      1.0  0.87069  0.72521  0.63944  1.0000
  I   I229      1.0  0.69916  0.19788  0.36408  1.0000
  I   I230      1.0  0.86128  0.22285  0.08348  1.0000
  I   I231      1.0  0.74988  0.17075  0.62355  1.0000
  I   I232      1.0  0.92052  0.33035  0.18955  1.0000
  I   I233      1.0  0.89583  0.17320  0.58732  1.0000
  I   I234      1.0  0.11175  0.96412  0.46648  1.0000
  I   I235      1.0  0.09803  0.39267  0.13703  1.0000
  I   I236      1.0  0.07309  0.64731  0.54368  1.0000
  I   I237      1.0  0.17554  0.59174  0.80514  1.0000
  I   I238      1.0  0.75016  0.95808  0.32142  1.0000
  I   I239      1.0  0.66649  0.09644  0.64499  1.0000
  I   I240      1.0  0.62474  0.12306  0.92701  1.0000
  I   I241      1.0  0.40992  0.97442  0.32126  1.0000
  I   I242      1.0  0.16773  0.97204  0.00860  1.0000
  I   I243      1.0  0.33102  0.85522  0.14029  1.0000
  I   I244      1.0  0.20140  0.06448  0.39332  1.0000
  I   I245      1.0  0.09188  0.38363  0.93059  1.0000
  I   I246      1.0  0.15365  0.23205  0.01095  1.0000
  I   I247      1.0  0.96850  0.67044  0.96421  1.0000
  I   I248      1.0  0.00558  0.92191  0.65555  1.0000
  I   I249      1.0  0.93156  0.81519  0.20914  1.0000
  I   I250      1.0  0.14043  0.89111  0.02995  1.0000
  I   I251      1.0  0.13021  0.73666  0.76876  1.0000
  I   I252      1.0  0.92897  0.83265  0.52917  1.0000
  I   I253      1.0  0.30291  0.15982  0.48924  1.0000
  I   I254      1.0  0.32011  0.00444  0.87185  1.0000
  I   I255      1.0  0.33747  0.06429  0.06864  1.0000
  I   I256      1.0  0.34089  0.60855  0.89407  1.0000
  I   I257      1.0  0.18216  0.71022  0.29382  1.0000
  I   I258      1.0  0.31018  0.45339  0.58450  1.0000
  I   I259      1.0  0.40149  0.63063  0.10496  1.0000
  I   I260      1.0  0.65877  0.66325  0.57562  1.0000
  I   I261      1.0  0.45961  0.61825  0.42866  1.0000
  I   I262      1.0  0.28513  0.86543  0.83846  1.0000
  I   I263      1.0  0.47837  0.90284  0.80408  1.0000
  I   I264      1.0  0.51190  0.77287  0.87781  1.0000
  I   I265      1.0  0.52051  0.26989  0.91103  1.0000
  I   I266      1.0  0.36369  0.35170  0.10167  1.0000
  I   I267      1.0  0.51668  0.34427  0.61982  1.0000
  I   I268      1.0  0.47599  0.44889  0.12158  1.0000
  I   I269      1.0  0.63527  0.47335  0.14279  1.0000
  I   I270      1.0  0.44260  0.50042  0.90077  1.0000
  I   I271      1.0  0.82673  0.60468  0.30868  1.0000
  I   I272      1.0  0.79697  0.52095  0.58270  1.0000
  I   I273      1.0  0.82650  0.57751  0.99391  1.0000
  I   I274      1.0  0.72965  0.85570  0.87319  1.0000
  I   I275      1.0  0.57717  0.69632  0.12775  1.0000
  I   I276      1.0  0.88687  0.64249  0.67769  1.0000
  I   I277      1.0  0.69589  0.20327  0.18706  1.0000
  I   I278      1.0  0.87873  0.15144  0.99604  1.0000
  I   I279      1.0  0.82478  0.15454  0.57431  1.0000
  I   I280      1.0  0.97335  0.26423  0.00096  1.0000
  I   I281      1.0  0.91750  0.24915  0.57794  1.0000
  I   I282      1.0  0.18082  0.97753  0.53292  1.0000
  I   I283      1.0  0.14623  0.33117  0.25735  1.0000
  I   I284      1.0  0.14042  0.57636  0.48800  1.0000
  I   I285      1.0  0.16536  0.54934  0.92743  1.0000
  I   I286      1.0  0.80177  0.96851  0.43427  1.0000
  I   I287      1.0  0.70433  0.03915  0.75304  1.0000
  I   I288      1.0  0.64063  0.07349  0.05170  1.0000
  I   I289      1.0  0.40639  0.89862  0.38173  1.0000
  I   I290      1.0  0.06449  0.08703  0.91701  1.0000
  I   I291      1.0  0.14606  0.03110  0.13373  1.0000
  I   I292      1.0  0.13087  0.22075  0.32600  1.0000
  I   I293      1.0  0.07325  0.43569  0.65701  1.0000
  I   I294      1.0  0.17650  0.10451  0.87554  1.0000
  I   I295      1.0  0.91243  0.76774  0.91065  1.0000
  I   I296      1.0  0.97066  0.88755  0.45093  1.0000
  I   I297      1.0  0.87324  0.96763  0.23173  1.0000
  I   I298      1.0  0.06469  0.96253  0.98910  1.0000
  I   I299      1.0  0.23336  0.76487  0.94398  1.0000
  I   I300      1.0  0.00434  0.80540  0.57222  1.0000
  I   I301      1.0  0.29480  0.12816  0.27664  1.0000
  I   I302      1.0  0.27132  0.24948  0.55958  1.0000
  I   I303      1.0  0.37142  0.10843  0.80282  1.0000
  I   I304      1.0  0.23441  0.40815  0.65143  1.0000
  I   I305      1.0  0.31691  0.60945  0.16256  1.0000
  I   I306      1.0  0.11798  0.67657  0.39465  1.0000
  I   I307      1.0  0.32849  0.76806  0.31443  1.0000
  I   I308      1.0  0.68667  0.58741  0.51625  1.0000
  I   I309      1.0  0.28676  0.66917  0.59208  1.0000
  I   I310      1.0  0.36440  0.82273  0.84304  1.0000
  I   I311      1.0  0.61003  0.84554  0.58395  1.0000
  I   I312      1.0  0.49754  0.87970  0.99870  1.0000
  I   I313      1.0  0.48602  0.23164  0.62957  1.0000
  I   I314      1.0  0.38038  0.28500  0.86209  1.0000
  I   I315      1.0  0.30487  0.32383  0.12171  1.0000
  I   I316      1.0  0.50891  0.58652  0.74701  1.0000
  I   I317      1.0  0.43607  0.45595  0.33677  1.0000
  I   I318      1.0  0.60190  0.47990  0.84597  1.0000
  I   I319      1.0  0.93766  0.49451  0.10089  1.0000
  I   I320      1.0  0.96580  0.56544  0.34769  1.0000
  I   I321      1.0  0.91119  0.46659  0.81227  1.0000
  I   I322      1.0  0.67850  0.96474  0.99453  1.0000
  I   I323      1.0  0.64397  0.70710  0.18988  1.0000
  I   I324      1.0  0.82734  0.79086  0.48424  1.0000
  I   I325      1.0  0.71254  0.13589  0.49317  1.0000
  I   I326      1.0  0.87101  0.10882  0.12970  1.0000
  I   I327      1.0  0.78286  0.14530  0.76175  1.0000
  I   I328      1.0  0.05966  0.25811  0.04806  1.0000
  I   I329      1.0  0.98529  0.15513  0.57010  1.0000
  I   I330      1.0  0.11105  0.89249  0.66140  1.0000
  I   I331      1.0  0.12639  0.51966  0.05727  1.0000
  I   I332      1.0  0.13532  0.29736  0.39926  1.0000
  I   I333      1.0  0.05970  0.55167  0.76098  1.0000
  I   I334      1.0  0.59833  0.10215  0.19925  1.0000
  I   I335      1.0  0.61523  0.99781  0.52987  1.0000
  I   I336      1.0  0.55086  0.04138  0.84312  1.0000
  I   I337      1.0  0.34682  0.85972  0.37957  1.0000
  I   I338      1.0  0.10914  0.10113  0.79106  1.0000
  I   I339      1.0  0.21721  0.04001  0.08403  1.0000
  I   I340      1.0  0.21692  0.18097  0.34716  1.0000
  I   I341      1.0  0.08936  0.38040  0.77114  1.0000
  I   I342      1.0  0.12966  0.17014  0.97396  1.0000
  I   I343      1.0  0.86655  0.85075  0.93652  1.0000
  I   I344      1.0  0.90550  0.99902  0.53085  1.0000
  I   I345      1.0  0.90383  0.97083  0.07636  1.0000
  I   I346      1.0  0.02461  0.94567  0.12271  1.0000
  I   I347      1.0  0.22116  0.85227  0.00391  1.0000
  I   I348      1.0  0.05990  0.78855  0.69132  1.0000
  I   I349      1.0  0.32713  0.13778  0.16303  1.0000
  I   I350      1.0  0.20923  0.25444  0.45305  1.0000
  I   I351      1.0  0.40005  0.03742  0.69089  1.0000
  I   I352      1.0  0.35981  0.36656  0.45690  1.0000
  I   I353      1.0  0.29502  0.58995  0.01834  1.0000
  I   I354      1.0  0.17983  0.68510  0.47192  1.0000
  I   I355      1.0  0.29762  0.70477  0.32973  1.0000
  I   I356      1.0  0.72073  0.59466  0.66211  1.0000
  I   I357      1.0  0.33930  0.68395  0.66530  1.0000
  I   I358      1.0  0.43541  0.75720  0.89311  1.0000
  I   I359      1.0  0.63078  0.78146  0.66892  1.0000
  I   I360      1.0  0.52885  0.94500  0.00892  1.0000
  I   I361      1.0  0.53573  0.23837  0.54195  1.0000
  I   I362      1.0  0.40713  0.31663  0.72742  1.0000
  I   I363      1.0  0.26254  0.37834  0.99275  1.0000
  I   I364      1.0  0.42315  0.65315  0.79453  1.0000
  I   I365      1.0  0.39443  0.50225  0.20176  1.0000
  I   I366      1.0  0.60328  0.52494  0.98014  1.0000
  I   I367      1.0  0.91975  0.42999  0.10387  1.0000
  I   I368      1.0  0.97567  0.47873  0.37301  1.0000
  I   I369      1.0  0.86876  0.42694  0.75630  1.0000
  I   I370      1.0  0.75322  0.95911  0.03896  1.0000
  I   I371      1.0  0.70017  0.63431  0.28638  1.0000
  I   I372      1.0  0.82965  0.72826  0.37884  1.0000
  I   I373      1.0  0.63754  0.17135  0.36984  1.0000
  I   I374      1.0  0.85281  0.10053  0.28912  1.0000
  I   I375      1.0  0.69068  0.18279  0.77817  1.0000
  I   I376      1.0  0.00322  0.32070  0.93784  1.0000
  I   I377      1.0  0.94210  0.14412  0.46496  1.0000
  I   I378      1.0  0.07280  0.97881  0.61859  1.0000
  I   I379      1.0  0.06152  0.59952  0.03884  1.0000
  I   I380      1.0  0.08521  0.30626  0.26446  1.0000
  I   I381      1.0  0.04195  0.59038  0.63077  1.0000
  I   I382      1.0  0.56345  0.05425  0.19574  1.0000
  I   I383      1.0  0.63135  0.05044  0.42465  1.0000
  I   I384      1.0  0.53951  0.10091  0.73728  1.0000
