data_image0
_chemical_formula_structural       Ti96I384
_chemical_formula_sum              "Ti96 I384"
_cell_length_a       50.4495
_cell_length_b       50.2041
_cell_length_c       24.3552
_cell_angle_alpha    88.7757
_cell_angle_beta     88.7757
_cell_angle_gamma    62.1586

_space_group_name_H-M_alt    "P 1"
_space_group_IT_number       1

loop_
  _space_group_symop_operation_xyz
  'x, y, z'

loop_
  _atom_site_type_symbol
  _atom_site_label
  _atom_site_symmetry_multiplicity
  _atom_site_fract_x
  _atom_site_fract_y
  _atom_site_fract_z
  _atom_site_occupancy
  Ti  Ti1       1.0  0.35470  0.95233  0.37951  1.0000
  Ti  Ti2       1.0  0.16216  0.00108  0.92968  1.0000
  Ti  Ti3       1.0  0.29517  0.88654  0.13283  1.0000
  Ti  Ti4       1.0  0.18908  0.08380  0.48065  1.0000
  Ti  Ti5       1.0  0.07346  0.43538  0.86852  1.0000
  Ti  Ti6       1.0  0.18487  0.21594  0.82398  1.0000
  Ti  Ti7       1.0  0.92647  0.71482  0.91810  1.0000
  Ti  Ti8       1.0  0.95770  0.99318  0.59061  1.0000
  Ti  Ti9       1.0  0.93922  0.84328  0.09248  1.0000
  Ti  Ti10      1.0  0.11236  0.83266  0.02297  1.0000
  Ti  Ti11      1.0  0.09779  0.73161  0.71744  1.0000
  Ti  Ti12      1.0  0.93881  0.81488  0.58996  1.0000
  Ti  Ti13      1.0  0.33496  0.17505  0.40034  1.0000
  Ti  Ti14      1.0  0.35999  0.00718  0.80316  1.0000
  Ti  Ti15      1.0  0.29559  0.10553  0.19119  1.0000
  Ti  Ti16      1.0  0.29114  0.61535  0.95068  1.0000
  Ti  Ti17      1.0  0.18436  0.66377  0.21290  1.0000
  Ti  Ti18      1.0  0.27811  0.40173  0.50550  1.0000
  Ti  Ti19      1.0  0.38487  0.69508  0.12972  1.0000
  Ti  Ti20      1.0  0.66502  0.62682  0.59955  1.0000
  Ti  Ti21      1.0  0.38520  0.63426  0.42200  1.0000
  Ti  Ti22      1.0  0.33095  0.79813  0.82799  1.0000
  Ti  Ti23      1.0  0.57195  0.84391  0.80737  1.0000
  Ti  Ti24      1.0  0.49932  0.73207  0.86724  1.0000
  Ti  Ti25      1.0  0.50300  0.29723  0.85773  1.0000
  Ti  Ti26      1.0  0.34297  0.36651  0.96468  1.0000
  Ti  Ti27      1.0  0.52714  0.34512  0.61828  1.0000
  Ti  Ti28      1.0  0.51677  0.40294  0.16620  1.0000
  Ti  Ti29      1.0  0.62202  0.47259  0.08797  1.0000
  Ti  Ti30      1.0  0.49430  0.49324  0.87126  1.0000
  Ti  Ti31      1.0  0.89870  0.52613  0.22073  1.0000
  Ti  Ti32      1.0  0.81264  0.47205  0.63546  1.0000
  Ti  Ti33      1.0  0.81091  0.53961  0.94048  1.0000
  Ti  Ti34      1.0  0.71063  0.91598  0.98549  1.0000
  Ti  Ti35      1.0  0.58393  0.71701  0.21678  1.0000
  Ti  Ti36      1.0  0.85854  0.69245  0.62074  1.0000
  Ti  Ti37      1.0  0.74998  0.16547  0.31171  1.0000
  Ti  Ti38      1.0  0.82750  0.19026  0.07507  1.0000
  Ti  Ti39      1.0  0.78836  0.14153  0.71647  1.0000
  Ti  Ti40      1.0  0.95768  0.27250  0.06333  1.0000
  Ti  Ti41      1.0  0.96907  0.21191  0.59967  1.0000
  Ti  Ti42      1.0  0.13610  0.94925  0.59098  1.0000
  Ti  Ti43      1.0  0.11084  0.33819  0.17794  1.0000
  Ti  Ti44      1.0  0.09945  0.57187  0.53401  1.0000
  Ti  Ti45      1.0  0.13479  0.58762  0.84926  1.0000
  Ti  Ti46      1.0  0.73854  0.94358  0.45389  1.0000
  Ti  Ti47      1.0  0.65642  0.04058  0.68285  1.0000
  Ti  Ti48      1.0  0.58204  0.13829  0.94632  1.0000
  Ti  Ti49      1.0  0.36173  0.89017  0.24897  1.0000
  Ti  Ti50      1.0  0.08638  0.06431  0.86800  1.0000
  Ti  Ti51      1.0  0.21241  0.99825  0.06176  1.0000
  Ti  Ti52      1.0  0.16840  0.14808  0.39622  1.0000
  Ti  Ti53      1.0  0.07509  0.41668  0.74197  1.0000
  Ti  Ti54      1.0  0.19007  0.15295  0.89419  1.0000
  Ti  Ti55      1.0  0.89060  0.81181  0.97224  1.0000
  Ti  Ti56      1.0  0.93254  0.95661  0.51276  1.0000
  Ti  Ti57      1.0  0.92348  0.92886  0.14051  1.0000
  Ti  Ti58      1.0  0.07386  0.92168  0.01392  1.0000
  Ti  Ti59      1.0  0.18672  0.80839  0.93727  1.0000
  Ti  Ti60      1.0  0.01594  0.78038  0.65620  1.0000
  Ti  Ti61      1.0  0.34579  0.11229  0.28968  1.0000
  Ti  Ti62      1.0  0.27208  0.23460  0.47282  1.0000
  Ti  Ti63      1.0  0.38941  0.06348  0.83133  1.0000
  Ti  Ti64      1.0  0.23699  0.43753  0.63245  1.0000
  Ti  Ti65      1.0  0.26623  0.63329  0.09021  1.0000
  Ti  Ti66      1.0  0.19221  0.67855  0.37874  1.0000
  Ti  Ti67      1.0  0.33913  0.69729  0.27964  1.0000
  Ti  Ti68      1.0  0.68138  0.59703  0.75166  1.0000
  Ti  Ti69      1.0  0.30837  0.67163  0.55304  1.0000
  Ti  Ti70      1.0  0.42329  0.76255  0.81937  1.0000
  Ti  Ti71      1.0  0.57954  0.84061  0.66097  1.0000
  Ti  Ti72      1.0  0.53981  0.88979  0.94947  1.0000
  Ti  Ti73      1.0  0.51772  0.28307  0.64693  1.0000
  Ti  Ti74      1.0  0.41278  0.33383  0.83755  1.0000
  Ti  Ti75      1.0  0.27632  0.38121  0.04053  1.0000
  Ti  Ti76      1.0  0.46775  0.55904  0.71966  1.0000
  Ti  Ti77      1.0  0.44652  0.45206  0.18327  1.0000
  Ti  Ti78      1.0  0.58922  0.47623  0.93211  1.0000
  Ti  Ti79      1.0  0.90398  0.49128  0.03343  1.0000
  Ti  Ti80      1.0  0.93856  0.54842  0.34130  1.0000
  Ti  Ti81      1.0  0.83360  0.48742  0.77422  1.0000
  Ti  Ti82      1.0  0.73545  0.96733  0.00172  1.0000
  Ti  Ti83      1.0  0.65370  0.69471  0.30382  1.0000
  Ti  Ti84      1.0  0.85818  0.72499  0.47083  1.0000
  Ti  Ti85      1.0  0.69061  0.13551  0.36429  1.0000
  Ti  Ti86      1.0  0.84206  0.14201  0.23284  1.0000
  Ti  Ti87      1.0  0.71302  0.20436  0.83133  1.0000
  Ti  Ti88      1.0  0.01630  0.27064  0.00723  1.0000
  Ti  Ti89      1.0  0.94894  0.14677  0.52556  1.0000
  Ti  Ti90      1.0  0.12753  0.89307  0.62184  1.0000
  Ti  Ti91      1.0  0.13236  0.58333  0.00956  1.0000
  Ti  Ti92      1.0  0.07707  0.34398  0.31480  1.0000
  Ti  Ti93      1.0  0.10515  0.56986  0.70553  1.0000
  Ti  Ti94      1.0  0.56062  0.11423  0.09374  1.0000
  Ti  Ti95      1.0  0.64627  0.99080  0.52941  1.0000
  Ti  Ti96      1.0  0.57206  0.09479  0.77260  1.0000
  I   I1        1.0  0.06509  0.03804  0.80690  1.0000
  I   I2        1.0  0.15913  0.04142  0.01105  1.0000
  I   I3        1.0  0.36299  0.89013  0.14402  1.0000
  I   I4        1.0  0.04442  0.39634  0.68830  1.0000
  I   I5        1.0  0.13448  0.19020  0.85343  1.0000
  I   I6        1.0  0.15987  0.22981  0.72929  1.0000
  I   I7        1.0  0.88744  0.96152  0.46306  1.0000
  I   I8        1.0  0.99195  0.01674  0.56469  1.0000
  I   I9        1.0  0.94761  0.81555  0.99917  1.0000
  I   I10       1.0  0.12753  0.80537  0.92116  1.0000
  I   I11       1.0  0.06606  0.74325  0.61642  1.0000
  I   I12       1.0  0.10089  0.95220  0.02274  1.0000
  I   I13       1.0  0.26988  0.19907  0.38628  1.0000
  I   I14       1.0  0.38013  0.02657  0.90987  1.0000
  I   I15       1.0  0.34993  0.06131  0.24531  1.0000
  I   I16       1.0  0.28609  0.66267  0.01494  1.0000
  I   I17       1.0  0.23416  0.63957  0.29237  1.0000
  I   I18       1.0  0.22290  0.49154  0.67203  1.0000
  I   I19       1.0  0.68194  0.55194  0.81000  1.0000
  I   I20       1.0  0.26009  0.71596  0.52429  1.0000
  I   I21       1.0  0.35718  0.69268  0.39340  1.0000
  I   I22       1.0  0.54289  0.85964  0.57268  1.0000
  I   I23       1.0  0.55598  0.89215  0.73189  1.0000
  I   I24       1.0  0.45167  0.79850  0.82802  1.0000
  I   I25       1.0  0.45860  0.27538  0.82776  1.0000
  I   I26       1.0  0.29505  0.35137  0.93501  1.0000
  I   I27       1.0  0.54429  0.22361  0.65072  1.0000
  I   I28       1.0  0.46187  0.40519  0.24947  1.0000
  I   I29       1.0  0.63630  0.43296  0.99948  1.0000
  I   I30       1.0  0.51116  0.49934  0.75275  1.0000
  I   I31       1.0  0.96109  0.49661  0.24668  1.0000
  I   I32       1.0  0.85509  0.50163  0.69058  1.0000
  I   I33       1.0  0.87242  0.53299  0.94512  1.0000
  I   I34       1.0  0.62388  0.65899  0.26816  1.0000
  I   I35       1.0  0.83384  0.68698  0.51180  1.0000
  I   I36       1.0  0.72260  0.02089  0.97015  1.0000
  I   I37       1.0  0.78758  0.13050  0.21649  1.0000
  I   I38       1.0  0.67842  0.25531  0.78499  1.0000
  I   I39       1.0  0.69339  0.08475  0.33417  1.0000
  I   I40       1.0  0.91640  0.17718  0.44338  1.0000
  I   I41       1.0  0.09995  0.86909  0.56675  1.0000
  I   I42       1.0  0.98649  0.30460  0.10210  1.0000
  I   I43       1.0  0.07533  0.38454  0.38130  1.0000
  I   I44       1.0  0.11913  0.52695  0.61624  1.0000
  I   I45       1.0  0.09273  0.57468  0.92078  1.0000
  I   I46       1.0  0.70277  0.93303  0.53952  1.0000
  I   I47       1.0  0.60031  0.04373  0.71706  1.0000
  I   I48       1.0  0.55840  0.09816  0.98607  1.0000
  I   I49       1.0  0.34731  0.89992  0.37018  1.0000
  I   I50       1.0  0.15729  0.02682  0.83157  1.0000
  I   I51       1.0  0.26590  0.94643  0.08728  1.0000
  I   I52       1.0  0.13488  0.14494  0.49187  1.0000
  I   I53       1.0  0.03062  0.46933  0.77877  1.0000
  I   I54       1.0  0.22301  0.18347  0.91517  1.0000
  I   I55       1.0  0.83473  0.82677  0.97814  1.0000
  I   I56       1.0  0.92143  0.95948  0.62268  1.0000
  I   I57       1.0  0.90464  0.91129  0.04216  1.0000
  I   I58       1.0  0.09544  0.79592  0.07459  1.0000
  I   I59       1.0  0.18735  0.82559  0.83862  1.0000
  I   I60       1.0  0.96796  0.81265  0.71284  1.0000
  I   I61       1.0  0.34599  0.17156  0.28782  1.0000
  I   I62       1.0  0.25390  0.28101  0.40530  1.0000
  I   I63       1.0  0.44516  0.03231  0.85693  1.0000
  I   I64       1.0  0.29720  0.56454  0.92332  1.0000
  I   I65       1.0  0.23414  0.60477  0.15430  1.0000
  I   I66       1.0  0.23795  0.63871  0.42954  1.0000
  I   I67       1.0  0.33463  0.68950  0.17736  1.0000
  I   I68       1.0  0.66220  0.57686  0.65275  1.0000
  I   I69       1.0  0.32120  0.63673  0.46611  1.0000
  I   I70       1.0  0.38318  0.73692  0.80920  1.0000
  I   I71       1.0  0.62191  0.80189  0.76635  1.0000
  I   I72       1.0  0.57380  0.89761  0.01870  1.0000
  I   I73       1.0  0.50077  0.32012  0.73911  1.0000
  I   I74       1.0  0.35043  0.38827  0.86669  1.0000
  I   I75       1.0  0.28947  0.39562  0.14334  1.0000
  I   I76       1.0  0.53632  0.34521  0.13520  1.0000
  I   I77       1.0  0.48665  0.47259  0.14531  1.0000
  I   I78       1.0  0.53062  0.52109  0.90184  1.0000
  I   I79       1.0  0.90038  0.47709  0.16139  1.0000
  I   I80       1.0  0.89451  0.57863  0.41413  1.0000
  I   I81       1.0  0.80779  0.49009  0.87815  1.0000
  I   I82       1.0  0.75466  0.90481  0.06556  1.0000
  I   I83       1.0  0.53261  0.71863  0.22671  1.0000
  I   I84       1.0  0.89508  0.74503  0.44002  1.0000
  I   I85       1.0  0.75793  0.11123  0.36253  1.0000
  I   I86       1.0  0.87873  0.16330  0.23359  1.0000
  I   I87       1.0  0.84236  0.13121  0.72367  1.0000
  I   I88       1.0  0.94446  0.31852  0.99243  1.0000
  I   I89       1.0  0.93394  0.26343  0.63995  1.0000
  I   I90       1.0  0.14319  0.92559  0.68843  1.0000
  I   I91       1.0  0.17715  0.59509  0.02389  1.0000
  I   I92       1.0  0.02729  0.34507  0.32929  1.0000
  I   I93       1.0  0.09473  0.62262  0.77628  1.0000
  I   I94       1.0  0.51037  0.12821  0.14577  1.0000
  I   I95       1.0  0.62848  0.04674  0.55755  1.0000
  I   I96       1.0  0.55709  0.14676  0.85085  1.0000
  I   I97       1.0  0.29860  0.90714  0.23606  1.0000
  I   I98       1.0  0.34215  0.95809  0.48926  1.0000
  I   I99       1.0  0.22444  0.98615  0.95019  1.0000
  I   I100      1.0  0.18006  0.12536  0.29912  1.0000
  I   I101      1.0  0.15348  0.07231  0.55228  1.0000
  I   I102      1.0  0.04411  0.40418  0.88490  1.0000
  I   I103      1.0  0.88155  0.83538  0.07747  1.0000
  I   I104      1.0  0.95349  0.67772  0.83197  1.0000
  I   I105      1.0  0.88355  0.96516  0.20522  1.0000
  I   I106      1.0  0.90139  0.80134  0.63987  1.0000
  I   I107      1.0  0.17443  0.79235  0.04946  1.0000
  I   I108      1.0  0.04123  0.74051  0.76170  1.0000
  I   I109      1.0  0.39948  0.08088  0.31989  1.0000
  I   I110      1.0  0.32872  0.22963  0.40750  1.0000
  I   I111      1.0  0.40824  0.95801  0.82784  1.0000
  I   I112      1.0  0.25974  0.37538  0.60942  1.0000
  I   I113      1.0  0.23137  0.63839  0.00881  1.0000
  I   I114      1.0  0.15971  0.65153  0.30365  1.0000
  I   I115      1.0  0.35570  0.62511  0.33673  1.0000
  I   I116      1.0  0.43731  0.69590  0.09662  1.0000
  I   I117      1.0  0.61836  0.64132  0.54469  1.0000
  I   I118      1.0  0.47483  0.72096  0.76995  1.0000
  I   I119      1.0  0.30974  0.77428  0.90468  1.0000
  I   I120      1.0  0.59321  0.88028  0.85814  1.0000
  I   I121      1.0  0.57038  0.28757  0.63798  1.0000
  I   I122      1.0  0.44917  0.34243  0.90869  1.0000
  I   I123      1.0  0.29544  0.42238  0.98933  1.0000
  I   I124      1.0  0.44767  0.55088  0.81834  1.0000
  I   I125      1.0  0.55708  0.40724  0.09591  1.0000
  I   I126      1.0  0.56656  0.49124  0.04919  1.0000
  I   I127      1.0  0.83559  0.51136  0.03824  1.0000
  I   I128      1.0  0.89844  0.51982  0.32764  1.0000
  I   I129      1.0  0.77380  0.50865  0.72438  1.0000
  I   I130      1.0  0.81075  0.69353  0.66224  1.0000
  I   I131      1.0  0.69242  0.96111  0.92067  1.0000
  I   I132      1.0  0.67499  0.72342  0.35856  1.0000
  I   I133      1.0  0.71520  0.22167  0.92786  1.0000
  I   I134      1.0  0.79998  0.16931  0.33566  1.0000
  I   I135      1.0  0.86630  0.16869  0.99445  1.0000
  I   I136      1.0  0.10186  0.00634  0.60180  1.0000
  I   I137      1.0  0.99784  0.22082  0.10760  1.0000
  I   I138      1.0  0.01107  0.21978  0.55204  1.0000
  I   I139      1.0  0.11905  0.63896  0.90626  1.0000
  I   I140      1.0  0.05556  0.38683  0.22807  1.0000
  I   I141      1.0  0.13946  0.57883  0.62757  1.0000
  I   I142      1.0  0.53930  0.18032  0.00529  1.0000
  I   I143      1.0  0.70117  0.00142  0.47802  1.0000
  I   I144      1.0  0.62249  0.10266  0.70227  1.0000
  I   I145      1.0  0.33533  0.95518  0.26744  1.0000
  I   I146      1.0  0.10091  0.02318  0.95406  1.0000
  I   I147      1.0  0.24207  0.88905  0.11584  1.0000
  I   I148      1.0  0.22707  0.10902  0.43870  1.0000
  I   I149      1.0  0.10412  0.45333  0.79092  1.0000
  I   I150      1.0  0.20509  0.15653  0.78343  1.0000
  I   I151      1.0  0.91937  0.74869  0.01885  1.0000
  I   I152      1.0  0.95542  0.99855  0.69745  1.0000
  I   I153      1.0  0.98751  0.84914  0.08999  1.0000
  I   I154      1.0  0.05346  0.87750  0.98525  1.0000
  I   I155      1.0  0.12912  0.67271  0.70389  1.0000
  I   I156      1.0  0.98563  0.74569  0.61645  1.0000
  I   I157      1.0  0.33532  0.11635  0.40776  1.0000
  I   I158      1.0  0.32819  0.07553  0.80081  1.0000
  I   I159      1.0  0.25244  0.09610  0.22258  1.0000
  I   I160      1.0  0.24983  0.37984  0.44859  1.0000
  I   I161      1.0  0.21687  0.68287  0.14599  1.0000
  I   I162      1.0  0.26790  0.44673  0.44348  1.0000
  I   I163      1.0  0.39845  0.67301  0.25026  1.0000
  I   I164      1.0  0.62854  0.63941  0.75425  1.0000
  I   I165      1.0  0.37219  0.65798  0.53265  1.0000
  I   I166      1.0  0.39801  0.79137  0.72645  1.0000
  I   I167      1.0  0.54078  0.82308  0.75159  1.0000
  I   I168      1.0  0.53153  0.67282  0.86518  1.0000
  I   I169      1.0  0.55082  0.24993  0.81732  1.0000
  I   I170      1.0  0.39667  0.31469  0.93088  1.0000
  I   I171      1.0  0.54535  0.36097  0.52519  1.0000
  I   I172      1.0  0.45379  0.54177  0.62740  1.0000
  I   I173      1.0  0.61020  0.45620  0.18604  1.0000
  I   I174      1.0  0.54457  0.45136  0.94090  1.0000
  I   I175      1.0  0.89824  0.54069  0.09076  1.0000
  I   I176      1.0  0.85205  0.43861  0.56903  1.0000
  I   I177      1.0  0.82326  0.54366  0.83245  1.0000
  I   I178      1.0  0.78114  0.92843  0.93822  1.0000
  I   I179      1.0  0.59389  0.73076  0.32904  1.0000
  I   I180      1.0  0.90558  0.67840  0.53853  1.0000
  I   I181      1.0  0.70932  0.14892  0.24934  1.0000
  I   I182      1.0  0.79617  0.19459  0.17568  1.0000
  I   I183      1.0  0.79244  0.08921  0.73536  1.0000
  I   I184      1.0  0.91714  0.25393  0.02121  1.0000
  I   I185      1.0  0.99828  0.16033  0.52517  1.0000
  I   I186      1.0  0.18785  0.86862  0.58448  1.0000
  I   I187      1.0  0.12953  0.30583  0.08743  1.0000
  I   I188      1.0  0.05625  0.56247  0.48885  1.0000
  I   I189      1.0  0.14930  0.52950  0.78082  1.0000
  I   I190      1.0  0.76320  0.88561  0.43232  1.0000
  I   I191      1.0  0.67095  0.98479  0.64189  1.0000
  I   I192      1.0  0.61566  0.07401  0.86200  1.0000
  I   I193      1.0  0.32461  0.01032  0.38222  1.0000
  I   I194      1.0  0.17260  0.94769  0.88477  1.0000
  I   I195      1.0  0.32920  0.86167  0.04772  1.0000
  I   I196      1.0  0.23244  0.05926  0.54799  1.0000
  I   I197      1.0  0.04555  0.46867  0.95817  1.0000
  I   I198      1.0  0.23036  0.23372  0.81026  1.0000
  I   I199      1.0  0.87309  0.71712  0.92758  1.0000
  I   I200      1.0  0.95421  0.97910  0.43801  1.0000
  I   I201      1.0  0.90483  0.88553  0.17332  1.0000
  I   I202      1.0  0.10564  0.87910  0.09428  1.0000
  I   I203      1.0  0.13294  0.74670  0.65361  1.0000
  I   I204      1.0  0.93430  0.80556  0.47805  1.0000
  I   I205      1.0  0.38755  0.14394  0.44054  1.0000
  I   I206      1.0  0.35901  0.99591  0.69805  1.0000
  I   I207      1.0  0.25866  0.16266  0.15805  1.0000
  I   I208      1.0  0.27422  0.64370  0.85652  1.0000
  I   I209      1.0  0.14550  0.68120  0.13873  1.0000
  I   I210      1.0  0.19752  0.45746  0.54688  1.0000
  I   I211      1.0  0.34692  0.73722  0.06551  1.0000
  I   I212      1.0  0.70196  0.61959  0.82525  1.0000
  I   I213      1.0  0.40794  0.57500  0.44635  1.0000
  I   I214      1.0  0.31396  0.77794  0.74846  1.0000
  I   I215      1.0  0.57265  0.82378  0.91175  1.0000
  I   I216      1.0  0.53143  0.74639  0.79564  1.0000
  I   I217      1.0  0.53189  0.32976  0.87269  1.0000
  I   I218      1.0  0.37294  0.38776  0.02469  1.0000
  I   I219      1.0  0.46862  0.38387  0.61580  1.0000
  I   I220      1.0  0.54328  0.40289  0.25305  1.0000
  I   I221      1.0  0.67896  0.44553  0.12088  1.0000
  I   I222      1.0  0.46079  0.50808  0.96568  1.0000
  I   I223      1.0  0.83944  0.55445  0.21987  1.0000
  I   I224      1.0  0.77082  0.45210  0.62030  1.0000
  I   I225      1.0  0.75219  0.55236  0.93741  1.0000
  I   I226      1.0  0.66882  0.90773  0.04210  1.0000
  I   I227      1.0  0.56254  0.77509  0.19275  1.0000
  I   I228      1.0  0.86779  0.72447  0.69129  1.0000
  I   I229      1.0  0.70514  0.18694  0.38755  1.0000
  I   I230      1.0  0.82555  0.24292  0.09813  1.0000
  I   I231      1.0  0.72579  0.17661  0.72012  1.0000
  I   I232      1.0  0.91136  0.30560  0.13339  1.0000
  I   I233      1.0  0.92288  0.12617  0.59287  1.0000
  I   I234      1.0  0.11296  0.93570  0.50662  1.0000
  I   I235      1.0  0.11326  0.37800  0.11763  1.0000
  I   I236      1.0  0.08141  0.62634  0.49394  1.0000
  I   I237      1.0  0.18257  0.58857  0.80607  1.0000
  I   I238      1.0  0.73484  0.95648  0.34829  1.0000
  I   I239      1.0  0.70504  0.04157  0.63771  1.0000
  I   I240      1.0  0.62991  0.14911  0.91810  1.0000
  I   I241      1.0  0.40501  0.95682  0.37375  1.0000
  I   I242      1.0  0.18716  0.96058  0.02906  1.0000
  I   I243      1.0  0.30527  0.83372  0.16979  1.0000
  I   I244      1.0  0.20176  0.05075  0.39820  1.0000
  I   I245      1.0  0.12140  0.39838  0.92218  1.0000
  I   I246      1.0  0.14948  0.26247  0.88509  1.0000
  I   I247      1.0  0.94841  0.66951  0.98635  1.0000
  I   I248      1.0  0.99799  0.93616  0.58284  1.0000
  I   I249      1.0  0.96718  0.79125  0.14979  1.0000
  I   I250      1.0  0.13241  0.87182  0.96164  1.0000
  I   I251      1.0  0.12179  0.73361  0.81006  1.0000
  I   I252      1.0  0.91422  0.87344  0.59632  1.0000
  I   I253      1.0  0.31778  0.18210  0.51325  1.0000
  I   I254      1.0  0.31694  0.99693  0.84420  1.0000
  I   I255      1.0  0.31782  0.08515  0.09768  1.0000
  I   I256      1.0  0.34913  0.59882  0.93144  1.0000
  I   I257      1.0  0.16823  0.71760  0.27270  1.0000
  I   I258      1.0  0.29860  0.42818  0.60142  1.0000
  I   I259      1.0  0.39889  0.64377  0.08302  1.0000
  I   I260      1.0  0.66338  0.67447  0.64632  1.0000
  I   I261      1.0  0.43904  0.62495  0.38722  1.0000
  I   I262      1.0  0.28783  0.85575  0.83726  1.0000
  I   I263      1.0  0.51188  0.89925  0.84041  1.0000
  I   I264      1.0  0.51929  0.73353  0.96656  1.0000
  I   I265      1.0  0.51837  0.26913  0.95440  1.0000
  I   I266      1.0  0.34197  0.32391  0.05304  1.0000
  I   I267      1.0  0.55195  0.35963  0.69508  1.0000
  I   I268      1.0  0.47023  0.41496  0.09157  1.0000
  I   I269      1.0  0.60229  0.52758  0.10424  1.0000
  I   I270      1.0  0.47617  0.45555  0.84222  1.0000
  I   I271      1.0  0.91017  0.57295  0.24012  1.0000
  I   I272      1.0  0.79741  0.52392  0.59278  1.0000
  I   I273      1.0  0.79152  0.59634  0.97387  1.0000
  I   I274      1.0  0.72724  0.87650  0.91068  1.0000
  I   I275      1.0  0.59850  0.69573  0.11466  1.0000
  I   I276      1.0  0.88918  0.63516  0.64022  1.0000
  I   I277      1.0  0.72026  0.22397  0.27595  1.0000
  I   I278      1.0  0.78498  0.19411  0.01638  1.0000
  I   I279      1.0  0.77997  0.14861  0.61162  1.0000
  I   I280      1.0  0.00022  0.24167  0.94313  1.0000
  I   I281      1.0  0.91851  0.20194  0.60019  1.0000
  I   I282      1.0  0.18785  0.94682  0.58089  1.0000
  I   I283      1.0  0.15208  0.33041  0.24751  1.0000
  I   I284      1.0  0.14495  0.54053  0.47834  1.0000
  I   I285      1.0  0.16643  0.54508  0.91441  1.0000
  I   I286      1.0  0.78325  0.94937  0.48605  1.0000
  I   I287      1.0  0.68385  0.02466  0.77327  1.0000
  I   I288      1.0  0.61429  0.10781  0.03338  1.0000
  I   I289      1.0  0.41145  0.89516  0.26169  1.0000
  I   I290      1.0  0.03747  0.10061  0.92486  1.0000
  I   I291      1.0  0.20267  0.99682  0.16877  1.0000
  I   I292      1.0  0.11018  0.17008  0.36492  1.0000
  I   I293      1.0  0.08920  0.42910  0.63997  1.0000
  I   I294      1.0  0.22039  0.09417  0.88014  1.0000
  I   I295      1.0  0.93155  0.76786  0.89780  1.0000
  I   I296      1.0  0.96672  0.90039  0.48216  1.0000
  I   I297      1.0  0.96468  0.91332  0.22215  1.0000
  I   I298      1.0  0.03411  0.95444  0.93582  1.0000
  I   I299      1.0  0.22710  0.74919  0.92063  1.0000
  I   I300      1.0  0.99404  0.81302  0.56531  1.0000
  I   I301      1.0  0.28582  0.14111  0.29198  1.0000
  I   I302      1.0  0.27318  0.26733  0.55638  1.0000
  I   I303      1.0  0.37107  0.11146  0.88401  1.0000
  I   I304      1.0  0.20338  0.43826  0.71669  1.0000
  I   I305      1.0  0.30388  0.63791  0.15607  1.0000
  I   I306      1.0  0.15323  0.69135  0.45482  1.0000
  I   I307      1.0  0.32144  0.75463  0.28618  1.0000
  I   I308      1.0  0.70532  0.61262  0.51755  1.0000
  I   I309      1.0  0.29321  0.64396  0.63279  1.0000
  I   I310      1.0  0.37499  0.80277  0.89281  1.0000
  I   I311      1.0  0.62278  0.85471  0.65237  1.0000
  I   I312      1.0  0.50025  0.89094  0.01609  1.0000
  I   I313      1.0  0.46117  0.29294  0.63859  1.0000
  I   I314      1.0  0.37807  0.31514  0.78432  1.0000
  I   I315      1.0  0.25893  0.34508  0.09243  1.0000
  I   I316      1.0  0.50798  0.56753  0.66684  1.0000
  I   I317      1.0  0.42199  0.48786  0.26392  1.0000
  I   I318      1.0  0.61177  0.45081  0.84242  1.0000
  I   I319      1.0  0.95989  0.47348  0.02855  1.0000
  I   I320      1.0  0.95451  0.59136  0.31787  1.0000
  I   I321      1.0  0.88573  0.46337  0.82757  1.0000
  I   I322      1.0  0.68436  0.97476  0.05155  1.0000
  I   I323      1.0  0.66652  0.70936  0.20469  1.0000
  I   I324      1.0  0.81471  0.77641  0.51016  1.0000
  I   I325      1.0  0.69509  0.13015  0.46720  1.0000
  I   I326      1.0  0.85082  0.13029  0.11824  1.0000
  I   I327      1.0  0.77317  0.16911  0.82367  1.0000
  I   I328      1.0  0.06784  0.24170  0.04661  1.0000
  I   I329      1.0  0.98653  0.18138  0.69154  1.0000
  I   I330      1.0  0.12652  0.85624  0.70562  1.0000
  I   I331      1.0  0.14182  0.54848  0.09066  1.0000
  I   I332      1.0  0.12383  0.30358  0.37246  1.0000
  I   I333      1.0  0.07388  0.54744  0.75729  1.0000
  I   I334      1.0  0.57110  0.15338  0.15438  1.0000
  I   I335      1.0  0.60028  0.98783  0.57022  1.0000
  I   I336      1.0  0.53229  0.08736  0.82934  1.0000
  I   I337      1.0  0.37529  0.83484  0.26371  1.0000
  I   I338      1.0  0.09737  0.10186  0.80782  1.0000
  I   I339      1.0  0.23693  0.03430  0.07070  1.0000
  I   I340      1.0  0.17410  0.19575  0.38940  1.0000
  I   I341      1.0  0.12070  0.36541  0.76187  1.0000
  I   I342      1.0  0.16068  0.15629  0.98455  1.0000
  I   I343      1.0  0.88528  0.85775  0.90930  1.0000
  I   I344      1.0  0.90109  0.02974  0.55264  1.0000
  I   I345      1.0  0.94589  0.96233  0.10542  1.0000
  I   I346      1.0  0.03955  0.94881  0.09369  1.0000
  I   I347      1.0  0.21725  0.83220  0.98432  1.0000
  I   I348      1.0  0.03764  0.81550  0.68907  1.0000
  I   I349      1.0  0.35081  0.12576  0.17957  1.0000
  I   I350      1.0  0.22334  0.23347  0.50708  1.0000
  I   I351      1.0  0.40372  0.05605  0.73195  1.0000
  I   I352      1.0  0.32806  0.36958  0.46038  1.0000
  I   I353      1.0  0.31218  0.57712  0.06430  1.0000
  I   I354      1.0  0.19448  0.72719  0.42169  1.0000
  I   I355      1.0  0.28418  0.70083  0.29961  1.0000
  I   I356      1.0  0.72198  0.59784  0.66921  1.0000
  I   I357      1.0  0.32865  0.69720  0.63623  1.0000
  I   I358      1.0  0.44552  0.73159  0.91288  1.0000
  I   I359      1.0  0.60661  0.78155  0.65002  1.0000
  I   I360      1.0  0.52254  0.94983  0.92207  1.0000
  I   I361      1.0  0.51668  0.29609  0.53505  1.0000
  I   I362      1.0  0.40873  0.36987  0.75457  1.0000
  I   I363      1.0  0.22028  0.42194  0.01474  1.0000
  I   I364      1.0  0.42517  0.61414  0.73213  1.0000
  I   I365      1.0  0.39713  0.47996  0.11923  1.0000
  I   I366      1.0  0.61778  0.51036  0.94050  1.0000
  I   I367      1.0  0.90894  0.43708  0.02027  1.0000
  I   I368      1.0  0.98838  0.50791  0.37806  1.0000
  I   I369      1.0  0.84247  0.43422  0.74304  1.0000
  I   I370      1.0  0.76775  0.96813  0.09011  1.0000
  I   I371      1.0  0.69871  0.63794  0.31934  1.0000
  I   I372      1.0  0.84329  0.72245  0.37505  1.0000
  I   I373      1.0  0.63237  0.17217  0.36864  1.0000
  I   I374      1.0  0.88412  0.08938  0.27246  1.0000
  I   I375      1.0  0.67457  0.18302  0.82425  1.0000
  I   I376      1.0  0.01621  0.31553  0.94909  1.0000
  I   I377      1.0  0.97447  0.10093  0.46503  1.0000
  I   I378      1.0  0.07494  0.94141  0.64786  1.0000
  I   I379      1.0  0.08430  0.62738  0.04777  1.0000
  I   I380      1.0  0.08977  0.29976  0.21661  1.0000
  I   I381      1.0  0.05821  0.60983  0.63780  1.0000
  I   I382      1.0  0.58570  0.06187  0.13887  1.0000
  I   I383      1.0  0.64649  0.98807  0.42287  1.0000
  I   I384      1.0  0.53579  0.12556  0.69723  1.0000
