data_image0
_chemical_formula_structural       Ti96I384
_chemical_formula_sum              "Ti96 I384"
_cell_length_a       64.4037
_cell_length_b       64.106
_cell_length_c       31.3262
_cell_angle_alpha    88.7757
_cell_angle_beta     88.7757
_cell_angle_gamma    62.1586

_space_group_name_H-M_alt    "P 1"
_space_group_IT_number       1

loop_
  _space_group_symop_operation_xyz
  'x, y, z'

loop_
  _atom_site_type_symbol
  _atom_site_label
  _atom_site_symmetry_multiplicity
  _atom_site_fract_x
  _atom_site_fract_y
  _atom_site_fract_z
  _atom_site_occupancy
  Ti  Ti1       1.0  0.53650  0.87994  0.78175  1.0000
  Ti  Ti2       1.0  0.37980  0.15503  0.49631  1.0000
  Ti  Ti3       1.0  0.88892  0.71066  0.07363  1.0000
  Ti  Ti4       1.0  0.88730  0.16557  0.99853  1.0000
  Ti  Ti5       1.0  0.22797  0.80092  0.69697  1.0000
  Ti  Ti6       1.0  0.32877  0.22031  0.20843  1.0000
  Ti  Ti7       1.0  0.87257  0.93131  0.98705  1.0000
  Ti  Ti8       1.0  0.47543  0.32517  0.75229  1.0000
  Ti  Ti9       1.0  0.36156  0.85880  0.10523  1.0000
  Ti  Ti10      1.0  0.83838  0.67395  0.72846  1.0000
  Ti  Ti11      1.0  0.32951  0.39755  0.55979  1.0000
  Ti  Ti12      1.0  0.06034  0.64426  0.49242  1.0000
  Ti  Ti13      1.0  0.24594  0.31833  0.52375  1.0000
  Ti  Ti14      1.0  0.09301  0.01023  0.56349  1.0000
  Ti  Ti15      1.0  0.58453  0.10405  0.06108  1.0000
  Ti  Ti16      1.0  0.62156  0.97437  0.89313  1.0000
  Ti  Ti17      1.0  0.43813  0.18471  0.86672  1.0000
  Ti  Ti18      1.0  0.04615  0.67323  0.87926  1.0000
  Ti  Ti19      1.0  0.80812  0.82006  0.38369  1.0000
  Ti  Ti20      1.0  0.41838  0.06768  0.02970  1.0000
  Ti  Ti21      1.0  0.94406  0.12540  0.73910  1.0000
  Ti  Ti22      1.0  0.67745  0.39638  0.82186  1.0000
  Ti  Ti23      1.0  0.71526  0.96065  0.06786  1.0000
  Ti  Ti24      1.0  0.99718  0.75479  0.10065  1.0000
  Ti  Ti25      1.0  0.84777  0.57731  0.36361  1.0000
  Ti  Ti26      1.0  0.26102  0.04382  0.96363  1.0000
  Ti  Ti27      1.0  0.26053  0.54197  0.15169  1.0000
  Ti  Ti28      1.0  0.63329  0.37383  0.24174  1.0000
  Ti  Ti29      1.0  0.90314  0.89729  0.37156  1.0000
  Ti  Ti30      1.0  0.80037  0.39749  0.25793  1.0000
  Ti  Ti31      1.0  0.86963  0.28510  0.46149  1.0000
  Ti  Ti32      1.0  0.60181  0.19737  0.23224  1.0000
  Ti  Ti33      1.0  0.36949  0.90774  0.32432  1.0000
  Ti  Ti34      1.0  0.49442  0.67631  0.84533  1.0000
  Ti  Ti35      1.0  0.82844  0.47358  0.76731  1.0000
  Ti  Ti36      1.0  0.95121  0.59759  0.88352  1.0000
  Ti  Ti37      1.0  0.03845  0.27325  0.28350  1.0000
  Ti  Ti38      1.0  0.35545  0.47873  0.40463  1.0000
  Ti  Ti39      1.0  0.81292  0.16792  0.55371  1.0000
  Ti  Ti40      1.0  0.48662  0.88216  0.20205  1.0000
  Ti  Ti41      1.0  0.55229  0.67690  0.36208  1.0000
  Ti  Ti42      1.0  0.75235  0.25185  0.77535  1.0000
  Ti  Ti43      1.0  0.58813  0.09916  0.76449  1.0000
  Ti  Ti44      1.0  0.82581  0.48573  0.12636  1.0000
  Ti  Ti45      1.0  0.46273  0.56744  0.34251  1.0000
  Ti  Ti46      1.0  0.16447  0.40384  0.92518  1.0000
  Ti  Ti47      1.0  0.06687  0.37696  0.12871  1.0000
  Ti  Ti48      1.0  0.43284  0.67885  0.53645  1.0000
  Ti  Ti49      1.0  0.45680  0.92951  0.79571  1.0000
  Ti  Ti50      1.0  0.24570  0.13634  0.79243  1.0000
  Ti  Ti51      1.0  0.34096  0.11203  0.50204  1.0000
  Ti  Ti52      1.0  0.90083  0.11985  0.96302  1.0000
  Ti  Ti53      1.0  0.27242  0.67086  0.49228  1.0000
  Ti  Ti54      1.0  0.35583  0.18388  0.13641  1.0000
  Ti  Ti55      1.0  0.91706  0.93172  0.97093  1.0000
  Ti  Ti56      1.0  0.48398  0.30592  0.64534  1.0000
  Ti  Ti57      1.0  0.30379  0.86134  0.07457  1.0000
  Ti  Ti58      1.0  0.60881  0.09302  0.63872  1.0000
  Ti  Ti59      1.0  0.87217  0.69332  0.77235  1.0000
  Ti  Ti60      1.0  0.07031  0.67378  0.40186  1.0000
  Ti  Ti61      1.0  0.55798  0.15928  0.00950  1.0000
  Ti  Ti62      1.0  0.20937  0.38856  0.48212  1.0000
  Ti  Ti63      1.0  0.08225  0.95909  0.63900  1.0000
  Ti  Ti64      1.0  0.08122  0.70179  0.85413  1.0000
  Ti  Ti65      1.0  0.13194  0.52657  0.81181  1.0000
  Ti  Ti66      1.0  0.41873  0.41914  0.18103  1.0000
  Ti  Ti67      1.0  0.83646  0.82667  0.47788  1.0000
  Ti  Ti68      1.0  0.97660  0.29474  0.72441  1.0000
  Ti  Ti69      1.0  0.94835  0.16574  0.64539  1.0000
  Ti  Ti70      1.0  0.62974  0.40830  0.74677  1.0000
  Ti  Ti71      1.0  0.67803  0.92569  0.03577  1.0000
  Ti  Ti72      1.0  0.06936  0.98627  0.21729  1.0000
  Ti  Ti73      1.0  0.19971  0.61127  0.18545  1.0000
  Ti  Ti74      1.0  0.90787  0.52900  0.35013  1.0000
  Ti  Ti75      1.0  0.28320  0.99513  0.04360  1.0000
  Ti  Ti76      1.0  0.82481  0.35094  0.20300  1.0000
  Ti  Ti77      1.0  0.61143  0.40686  0.15123  1.0000
  Ti  Ti78      1.0  0.91463  0.93301  0.30032  1.0000
  Ti  Ti79      1.0  0.22549  0.57462  0.83894  1.0000
  Ti  Ti80      1.0  0.86142  0.36736  0.46003  1.0000
  Ti  Ti81      1.0  0.66175  0.17785  0.19372  1.0000
  Ti  Ti82      1.0  0.46234  0.63219  0.89402  1.0000
  Ti  Ti83      1.0  0.79148  0.53847  0.72880  1.0000
  Ti  Ti84      1.0  0.97513  0.53005  0.89057  1.0000
  Ti  Ti85      1.0  0.99257  0.31214  0.23178  1.0000
  Ti  Ti86      1.0  0.38363  0.44185  0.30633  1.0000
  Ti  Ti87      1.0  0.79247  0.21697  0.43445  1.0000
  Ti  Ti88      1.0  0.57344  0.89087  0.00421  1.0000
  Ti  Ti89      1.0  0.56843  0.71137  0.43581  1.0000
  Ti  Ti90      1.0  0.71475  0.23108  0.72312  1.0000
  Ti  Ti91      1.0  0.43328  0.61361  0.24653  1.0000
  Ti  Ti92      1.0  0.82639  0.01936  0.67304  1.0000
  Ti  Ti93      1.0  0.74992  0.52995  0.17115  1.0000
  Ti  Ti94      1.0  0.38377  0.68813  0.59621  1.0000
  Ti  Ti95      1.0  0.21612  0.43257  0.90668  1.0000
  Ti  Ti96      1.0  0.05255  0.32179  0.03963  1.0000
  I   I1        1.0  0.05715  0.33450  0.96136  1.0000
  I   I2        1.0  0.34872  0.14224  0.43868  1.0000
  I   I3        1.0  0.42882  0.96011  0.86039  1.0000
  I   I4        1.0  0.31597  0.64713  0.46855  1.0000
  I   I5        1.0  0.30058  0.24093  0.14035  1.0000
  I   I6        1.0  0.36543  0.22154  0.15410  1.0000
  I   I7        1.0  0.44231  0.33912  0.67763  1.0000
  I   I8        1.0  0.50572  0.32894  0.66720  1.0000
  I   I9        1.0  0.35220  0.82470  0.05274  1.0000
  I   I10       1.0  0.88622  0.66790  0.69311  1.0000
  I   I11       1.0  0.36193  0.35651  0.58499  1.0000
  I   I12       1.0  0.19148  0.79260  0.69269  1.0000
  I   I13       1.0  0.23384  0.36117  0.55197  1.0000
  I   I14       1.0  0.11250  0.95189  0.70056  1.0000
  I   I15       1.0  0.57721  0.08696  0.13696  1.0000
  I   I16       1.0  0.65057  0.94911  0.82847  1.0000
  I   I17       1.0  0.41163  0.45338  0.12853  1.0000
  I   I18       1.0  0.07723  0.74260  0.82008  1.0000
  I   I19       1.0  0.42104  0.11172  0.02841  1.0000
  I   I20       1.0  0.32910  0.40956  0.48302  1.0000
  I   I21       1.0  0.94695  0.08653  0.77911  1.0000
  I   I22       1.0  0.73354  0.96105  0.99185  1.0000
  I   I23       1.0  0.66636  0.96931  0.07210  1.0000
  I   I24       1.0  0.64199  0.36381  0.73846  1.0000
  I   I25       1.0  0.94591  0.52714  0.37678  1.0000
  I   I26       1.0  0.26196  0.98109  0.10763  1.0000
  I   I27       1.0  0.26112  0.54498  0.06270  1.0000
  I   I28       1.0  0.63908  0.41396  0.09534  1.0000
  I   I29       1.0  0.93279  0.92982  0.22069  1.0000
  I   I30       1.0  0.84822  0.30832  0.21933  1.0000
  I   I31       1.0  0.83758  0.33158  0.48030  1.0000
  I   I32       1.0  0.67614  0.20139  0.14926  1.0000
  I   I33       1.0  0.18522  0.59875  0.79774  1.0000
  I   I34       1.0  0.78477  0.57541  0.77967  1.0000
  I   I35       1.0  0.96830  0.51149  0.95692  1.0000
  I   I36       1.0  0.51056  0.70405  0.87454  1.0000
  I   I37       1.0  0.01992  0.29191  0.35587  1.0000
  I   I38       1.0  0.78324  0.15458  0.58247  1.0000
  I   I39       1.0  0.06448  0.22366  0.27150  1.0000
  I   I40       1.0  0.56994  0.74901  0.41104  1.0000
  I   I41       1.0  0.71202  0.19697  0.75846  1.0000
  I   I42       1.0  0.52627  0.84623  0.22721  1.0000
  I   I43       1.0  0.60137  0.06315  0.71973  1.0000
  I   I44       1.0  0.70405  0.52917  0.17773  1.0000
  I   I45       1.0  0.42123  0.59214  0.19096  1.0000
  I   I46       1.0  0.15144  0.38000  0.97574  1.0000
  I   I47       1.0  0.03880  0.36826  0.06895  1.0000
  I   I48       1.0  0.33875  0.72218  0.61252  1.0000
  I   I49       1.0  0.44147  0.95479  0.72510  1.0000
  I   I50       1.0  0.33787  0.18871  0.52185  1.0000
  I   I51       1.0  0.41324  0.15870  0.54506  1.0000
  I   I52       1.0  0.91311  0.16545  0.06568  1.0000
  I   I53       1.0  0.24130  0.67832  0.43674  1.0000
  I   I54       1.0  0.39219  0.14642  0.13662  1.0000
  I   I55       1.0  0.87142  0.97620  0.95643  1.0000
  I   I56       1.0  0.52850  0.26935  0.64234  1.0000
  I   I57       1.0  0.32790  0.88480  0.03322  1.0000
  I   I58       1.0  0.81493  0.65809  0.78207  1.0000
  I   I59       1.0  0.81127  0.68481  0.66300  1.0000
  I   I60       1.0  0.01382  0.66933  0.51063  1.0000
  I   I61       1.0  0.20090  0.40861  0.41152  1.0000
  I   I62       1.0  0.17843  0.37581  0.47441  1.0000
  I   I63       1.0  0.04958  0.96518  0.69586  1.0000
  I   I64       1.0  0.57894  0.99871  0.92747  1.0000
  I   I65       1.0  0.09504  0.53993  0.76875  1.0000
  I   I66       1.0  0.40725  0.38318  0.16591  1.0000
  I   I67       1.0  0.78786  0.84189  0.47198  1.0000
  I   I68       1.0  0.44546  0.03897  0.96948  1.0000
  I   I69       1.0  0.92698  0.20400  0.68943  1.0000
  I   I70       1.0  0.58776  0.41465  0.76112  1.0000
  I   I71       1.0  0.65940  0.94551  0.96665  1.0000
  I   I72       1.0  0.09822  0.94575  0.19278  1.0000
  I   I73       1.0  0.21004  0.56881  0.15172  1.0000
  I   I74       1.0  0.28569  0.05923  0.91152  1.0000
  I   I75       1.0  0.31159  0.95341  0.02131  1.0000
  I   I76       1.0  0.65304  0.32967  0.26572  1.0000
  I   I77       1.0  0.56839  0.42724  0.13260  1.0000
  I   I78       1.0  0.93851  0.87461  0.31503  1.0000
  I   I79       1.0  0.39992  0.86935  0.28460  1.0000
  I   I80       1.0  0.87893  0.37318  0.53072  1.0000
  I   I81       1.0  0.62664  0.22466  0.21922  1.0000
  I   I82       1.0  0.49869  0.68914  0.76422  1.0000
  I   I83       1.0  0.81074  0.54696  0.66232  1.0000
  I   I84       1.0  0.93270  0.63062  0.94242  1.0000
  I   I85       1.0  0.01921  0.33053  0.25060  1.0000
  I   I86       1.0  0.38624  0.48299  0.32676  1.0000
  I   I87       1.0  0.80950  0.19286  0.61703  1.0000
  I   I88       1.0  0.47401  0.85484  0.16302  1.0000
  I   I89       1.0  0.60039  0.68639  0.37323  1.0000
  I   I90       1.0  0.72087  0.21599  0.64352  1.0000
  I   I91       1.0  0.39320  0.63233  0.29448  1.0000
  I   I92       1.0  0.82150  0.04634  0.73874  1.0000
  I   I93       1.0  0.85415  0.50483  0.13055  1.0000
  I   I94       1.0  0.38422  0.70389  0.50146  1.0000
  I   I95       1.0  0.19827  0.40531  0.87493  1.0000
  I   I96       1.0  0.08121  0.27445  0.04849  1.0000
  I   I97       1.0  0.86987  0.68593  0.10052  1.0000
  I   I98       1.0  0.49167  0.88972  0.84522  1.0000
  I   I99       1.0  0.34782  0.07559  0.54410  1.0000
  I   I100      1.0  0.87755  0.13479  0.03635  1.0000
  I   I101      1.0  0.86448  0.14442  0.90480  1.0000
  I   I102      1.0  0.25308  0.76560  0.64892  1.0000
  I   I103      1.0  0.84530  0.95548  0.04397  1.0000
  I   I104      1.0  0.92964  0.94685  0.89692  1.0000
  I   I105      1.0  0.29049  0.85504  0.00401  1.0000
  I   I106      1.0  0.09061  0.69678  0.36919  1.0000
  I   I107      1.0  0.86224  0.63419  0.68852  1.0000
  I   I108      1.0  0.06919  0.63333  0.57532  1.0000
  I   I109      1.0  0.53981  0.13036  0.04360  1.0000
  I   I110      1.0  0.28573  0.30127  0.56995  1.0000
  I   I111      1.0  0.06161  0.03595  0.50718  1.0000
  I   I112      1.0  0.03701  0.66883  0.96349  1.0000
  I   I113      1.0  0.14772  0.55693  0.80315  1.0000
  I   I114      1.0  0.46635  0.14669  0.91090  1.0000
  I   I115      1.0  0.82918  0.80354  0.31308  1.0000
  I   I116      1.0  0.87292  0.78767  0.44296  1.0000
  I   I117      1.0  0.93776  0.31905  0.76826  1.0000
  I   I118      1.0  0.61345  0.42735  0.66770  1.0000
  I   I119      1.0  0.68626  0.41984  0.87764  1.0000
  I   I120      1.0  0.06945  0.00899  0.14499  1.0000
  I   I121      1.0  0.19489  0.63110  0.10413  1.0000
  I   I122      1.0  0.83702  0.62249  0.36867  1.0000
  I   I123      1.0  0.22411  0.05969  0.91702  1.0000
  I   I124      1.0  0.80795  0.36290  0.12088  1.0000
  I   I125      1.0  0.66057  0.36752  0.16867  1.0000
  I   I126      1.0  0.89787  0.85935  0.39582  1.0000
  I   I127      1.0  0.35266  0.89793  0.39296  1.0000
  I   I128      1.0  0.83702  0.26794  0.44587  1.0000
  I   I129      1.0  0.69173  0.14075  0.15610  1.0000
  I   I130      1.0  0.97563  0.56663  0.94228  1.0000
  I   I131      1.0  0.47600  0.66406  0.92115  1.0000
  I   I132      1.0  0.81121  0.48294  0.68676  1.0000
  I   I133      1.0  0.85068  0.12744  0.57690  1.0000
  I   I134      1.0  0.32458  0.47194  0.44951  1.0000
  I   I135      1.0  0.39569  0.43100  0.39353  1.0000
  I   I136      1.0  0.74827  0.28322  0.82945  1.0000
  I   I137      1.0  0.57584  0.91095  0.92856  1.0000
  I   I138      1.0  0.55850  0.68958  0.27973  1.0000
  I   I139      1.0  0.46860  0.57576  0.42329  1.0000
  I   I140      1.0  0.82403  0.04467  0.60464  1.0000
  I   I141      1.0  0.79820  0.51927  0.18588  1.0000
  I   I142      1.0  0.47365  0.67001  0.55131  1.0000
  I   I143      1.0  0.15050  0.38377  0.86600  1.0000
  I   I144      1.0  0.04460  0.38658  0.20157  1.0000
  I   I145      1.0  0.53521  0.84961  0.73458  1.0000
  I   I146      1.0  0.39162  0.17249  0.43138  1.0000
  I   I147      1.0  0.90112  0.70894  0.99641  1.0000
  I   I148      1.0  0.93459  0.07976  0.98862  1.0000
  I   I149      1.0  0.23819  0.80345  0.77335  1.0000
  I   I150      1.0  0.31966  0.17455  0.13125  1.0000
  I   I151      1.0  0.96659  0.90305  0.95274  1.0000
  I   I152      1.0  0.51635  0.31831  0.78072  1.0000
  I   I153      1.0  0.30203  0.82549  0.11474  1.0000
  I   I154      1.0  0.64982  0.09041  0.64682  1.0000
  I   I155      1.0  0.29176  0.40304  0.59623  1.0000
  I   I156      1.0  0.03099  0.71207  0.41125  1.0000
  I   I157      1.0  0.62318  0.06386  0.04141  1.0000
  I   I158      1.0  0.09808  0.91409  0.62186  1.0000
  I   I159      1.0  0.59037  0.17262  0.99965  1.0000
  I   I160      1.0  0.02323  0.72041  0.87661  1.0000
  I   I161      1.0  0.42432  0.21556  0.92846  1.0000
  I   I162      1.0  0.12395  0.68413  0.82645  1.0000
  I   I163      1.0  0.84681  0.86139  0.48448  1.0000
  I   I164      1.0  0.00675  0.30870  0.74104  1.0000
  I   I165      1.0  0.95747  0.11310  0.65515  1.0000
  I   I166      1.0  0.64861  0.38504  0.84835  1.0000
  I   I167      1.0  0.75295  0.95076  0.11882  1.0000
  I   I168      1.0  0.98409  0.76270  0.02290  1.0000
  I   I169      1.0  0.88742  0.57671  0.32078  1.0000
  I   I170      1.0  0.80491  0.58542  0.36721  1.0000
  I   I171      1.0  0.21352  0.64212  0.20224  1.0000
  I   I172      1.0  0.78351  0.36465  0.23241  1.0000
  I   I173      1.0  0.88019  0.91553  0.28758  1.0000
  I   I174      1.0  0.75558  0.42884  0.26364  1.0000
  I   I175      1.0  0.88398  0.27253  0.53932  1.0000
  I   I176      1.0  0.58167  0.21287  0.15622  1.0000
  I   I177      1.0  0.22865  0.61079  0.87240  1.0000
  I   I178      1.0  0.47442  0.60803  0.96804  1.0000
  I   I179      1.0  0.75603  0.53839  0.68798  1.0000
  I   I180      1.0  0.98175  0.49962  0.81997  1.0000
  I   I181      1.0  0.98555  0.32564  0.15257  1.0000
  I   I182      1.0  0.43450  0.42291  0.25950  1.0000
  I   I183      1.0  0.78036  0.25668  0.48166  1.0000
  I   I184      1.0  0.61628  0.86270  0.99995  1.0000
  I   I185      1.0  0.57375  0.63481  0.32262  1.0000
  I   I186      1.0  0.71309  0.24906  0.80490  1.0000
  I   I187      1.0  0.86917  0.99142  0.69486  1.0000
  I   I188      1.0  0.85409  0.44197  0.12617  1.0000
  I   I189      1.0  0.42773  0.55907  0.31041  1.0000
  I   I190      1.0  0.20594  0.46673  0.95687  1.0000
  I   I191      1.0  0.28224  0.10330  0.82179  1.0000
  I   I192      1.0  0.42619  0.64122  0.55463  1.0000
  I   I193      1.0  0.43991  0.89873  0.78080  1.0000
  I   I194      1.0  0.23912  0.17792  0.81351  1.0000
  I   I195      1.0  0.93092  0.68878  0.10956  1.0000
  I   I196      1.0  0.88822  0.20150  0.95534  1.0000
  I   I197      1.0  0.54250  0.13055  0.78470  1.0000
  I   I198      1.0  0.34969  0.20589  0.06337  1.0000
  I   I199      1.0  0.91514  0.89493  0.93219  1.0000
  I   I200      1.0  0.47388  0.32792  0.56656  1.0000
  I   I201      1.0  0.39109  0.81878  0.14456  1.0000
  I   I202      1.0  0.86769  0.66307  0.81954  1.0000
  I   I203      1.0  0.93337  0.15201  0.80616  1.0000
  I   I204      1.0  0.09941  0.62304  0.43884  1.0000
  I   I205      1.0  0.19482  0.42690  0.52811  1.0000
  I   I206      1.0  0.12990  0.98728  0.51538  1.0000
  I   I207      1.0  0.59312  0.11195  0.97502  1.0000
  I   I208      1.0  0.63434  0.00447  0.91502  1.0000
  I   I209      1.0  0.39760  0.18947  0.84664  1.0000
  I   I210      1.0  0.07430  0.71213  0.93492  1.0000
  I   I211      1.0  0.82573  0.85053  0.38290  1.0000
  I   I212      1.0  0.37498  0.09901  0.00922  1.0000
  I   I213      1.0  0.98632  0.11563  0.75681  1.0000
  I   I214      1.0  0.63616  0.43903  0.80117  1.0000
  I   I215      1.0  0.69912  0.00840  0.04653  1.0000
  I   I216      1.0  0.00557  0.71023  0.11534  1.0000
  I   I217      1.0  0.85110  0.55814  0.28502  1.0000
  I   I218      1.0  0.30509  0.01015  0.97871  1.0000
  I   I219      1.0  0.25099  0.57541  0.21096  1.0000
  I   I220      1.0  0.65463  0.39168  0.28533  1.0000
  I   I221      1.0  0.85746  0.91693  0.38799  1.0000
  I   I222      1.0  0.80598  0.41078  0.17305  1.0000
  I   I223      1.0  0.87376  0.38668  0.39366  1.0000
  I   I224      1.0  0.63907  0.14684  0.21396  1.0000
  I   I225      1.0  0.39697  0.92571  0.35098  1.0000
  I   I226      1.0  0.49486  0.60129  0.84324  1.0000
  I   I227      1.0  0.85945  0.44708  0.83993  1.0000
  I   I228      1.0  0.98347  0.60543  0.84025  1.0000
  I   I229      1.0  0.95543  0.34055  0.25965  1.0000
  I   I230      1.0  0.37054  0.49709  0.45691  1.0000
  I   I231      1.0  0.76136  0.22975  0.38160  1.0000
  I   I232      1.0  0.45361  0.91823  0.24769  1.0000
  I   I233      1.0  0.56887  0.66558  0.44298  1.0000
  I   I234      1.0  0.79636  0.24100  0.76682  1.0000
  I   I235      1.0  0.58436  0.12654  0.57541  1.0000
  I   I236      1.0  0.74349  0.57043  0.14269  1.0000
  I   I237      1.0  0.50110  0.52714  0.33795  1.0000
  I   I238      1.0  0.12489  0.44124  0.91403  1.0000
  I   I239      1.0  0.01227  0.32316  0.03765  1.0000
  I   I240      1.0  0.36610  0.65741  0.59033  1.0000
  I   I241      1.0  0.56581  0.88830  0.73395  1.0000
  I   I242      1.0  0.37686  0.11137  0.54758  1.0000
  I   I243      1.0  0.86794  0.75396  0.09614  1.0000
  I   I244      1.0  0.87251  0.09404  0.94876  1.0000
  I   I245      1.0  0.27586  0.64788  0.56154  1.0000
  I   I246      1.0  0.29797  0.21147  0.25096  1.0000
  I   I247      1.0  0.91490  0.92734  0.05457  1.0000
  I   I248      1.0  0.47415  0.28694  0.78305  1.0000
  I   I249      1.0  0.26425  0.89218  0.11130  1.0000
  I   I250      1.0  0.90799  0.70444  0.78206  1.0000
  I   I251      1.0  0.33398  0.43002  0.60142  1.0000
  I   I252      1.0  0.07522  0.68077  0.48864  1.0000
  I   I253      1.0  0.22574  0.29782  0.57507  1.0000
  I   I254      1.0  0.06996  0.98209  0.56585  1.0000
  I   I255      1.0  0.51924  0.19550  0.05090  1.0000
  I   I256      1.0  0.16262  0.49212  0.76725  1.0000
  I   I257      1.0  0.46234  0.19431  0.80917  1.0000
  I   I258      1.0  0.06137  0.68263  0.79798  1.0000
  I   I259      1.0  0.84692  0.81276  0.55614  1.0000
  I   I260      1.0  0.96116  0.30591  0.64724  1.0000
  I   I261      1.0  0.90595  0.15951  0.69015  1.0000
  I   I262      1.0  0.71642  0.35734  0.82970  1.0000
  I   I263      1.0  0.69533  0.88057  0.02068  1.0000
  I   I264      1.0  0.96122  0.78320  0.14960  1.0000
  I   I265      1.0  0.87602  0.54854  0.42978  1.0000
  I   I266      1.0  0.25129  0.06705  0.02927  1.0000
  I   I267      1.0  0.15239  0.62498  0.19024  1.0000
  I   I268      1.0  0.58964  0.39844  0.26501  1.0000
  I   I269      1.0  0.88115  0.97421  0.28585  1.0000
  I   I270      1.0  0.86282  0.36091  0.20905  1.0000
  I   I271      1.0  0.90796  0.25619  0.43167  1.0000
  I   I272      1.0  0.68313  0.17181  0.26787  1.0000
  I   I273      1.0  0.33580  0.94073  0.28463  1.0000
  I   I274      1.0  0.46532  0.65682  0.80994  1.0000
  I   I275      1.0  0.83728  0.42976  0.75363  1.0000
  I   I276      1.0  0.93447  0.55887  0.85505  1.0000
  I   I277      1.0  0.04456  0.28884  0.19139  1.0000
  I   I278      1.0  0.33721  0.46473  0.33184  1.0000
  I   I279      1.0  0.78956  0.17577  0.47281  1.0000
  I   I280      1.0  0.57077  0.91889  0.06492  1.0000
  I   I281      1.0  0.52572  0.72929  0.40393  1.0000
  I   I282      1.0  0.76361  0.20065  0.75173  1.0000
  I   I283      1.0  0.60637  0.07383  0.83362  1.0000
  I   I284      1.0  0.77280  0.48523  0.13765  1.0000
  I   I285      1.0  0.47868  0.56699  0.25380  1.0000
  I   I286      1.0  0.23002  0.43936  0.82736  1.0000
  I   I287      1.0  0.08037  0.32539  0.11150  1.0000
  I   I288      1.0  0.44318  0.67506  0.44683  1.0000
  I   I289      1.0  0.50193  0.92724  0.77251  1.0000
  I   I290      1.0  0.25669  0.14420  0.71541  1.0000
  I   I291      1.0  0.34489  0.08363  0.43697  1.0000
  I   I292      1.0  0.84990  0.20357  0.01908  1.0000
  I   I293      1.0  0.25386  0.71104  0.52950  1.0000
  I   I294      1.0  0.32927  0.25557  0.25152  1.0000
  I   I295      1.0  0.88011  0.89054  0.02262  1.0000
  I   I296      1.0  0.44682  0.36422  0.78406  1.0000
  I   I297      1.0  0.32999  0.85951  0.16419  1.0000
  I   I298      1.0  0.63018  0.05930  0.58531  1.0000
  I   I299      1.0  0.83021  0.72378  0.73799  1.0000
  I   I300      1.0  0.04617  0.65594  0.35576  1.0000
  I   I301      1.0  0.60616  0.12453  0.09754  1.0000
  I   I302      1.0  0.25066  0.34879  0.44813  1.0000
  I   I303      1.0  0.10474  0.03932  0.59434  1.0000
  I   I304      1.0  0.09413  0.64680  0.89866  1.0000
  I   I305      1.0  0.59504  0.99677  0.82760  1.0000
  I   I306      1.0  0.37574  0.45760  0.21888  1.0000
  I   I307      1.0  0.82177  0.78005  0.42401  1.0000
  I   I308      1.0  0.41960  0.04908  0.10523  1.0000
  I   I309      1.0  0.99340  0.14543  0.62296  1.0000
  I   I310      1.0  0.67922  0.40416  0.72499  1.0000
  I   I311      1.0  0.63767  0.92821  0.07307  1.0000
  I   I312      1.0  0.02781  0.98765  0.22110  1.0000
  I   I313      1.0  0.30449  0.53029  0.16948  1.0000
  I   I314      1.0  0.92505  0.48128  0.38187  1.0000
  I   I315      1.0  0.24879  0.00592  0.97815  1.0000
  I   I316      1.0  0.81572  0.41914  0.29843  1.0000
  I   I317      1.0  0.60530  0.44227  0.20752  1.0000
  I   I318      1.0  0.94310  0.94063  0.34674  1.0000
  I   I319      1.0  0.21842  0.54534  0.88833  1.0000
  I   I320      1.0  0.81646  0.40056  0.44647  1.0000
  I   I321      1.0  0.58204  0.16948  0.24264  1.0000
  I   I322      1.0  0.52911  0.63500  0.85786  1.0000
  I   I323      1.0  0.84368  0.50614  0.75919  1.0000
  I   I324      1.0  0.92201  0.61423  0.81952  1.0000
  I   I325      1.0  0.00139  0.26488  0.25308  1.0000
  I   I326      1.0  0.38341  0.40243  0.29447  1.0000
  I   I327      1.0  0.82806  0.19512  0.50448  1.0000
  I   I328      1.0  0.49586  0.90247  0.13713  1.0000
  I   I329      1.0  0.59335  0.70424  0.50974  1.0000
  I   I330      1.0  0.72697  0.28303  0.71988  1.0000
  I   I331      1.0  0.45969  0.61332  0.31341  1.0000
  I   I332      1.0  0.61344  0.11852  0.81236  1.0000
  I   I333      1.0  0.74008  0.53958  0.25519  1.0000
  I   I334      1.0  0.40580  0.67429  0.66808  1.0000
  I   I335      1.0  0.18606  0.42225  0.97320  1.0000
  I   I336      1.0  0.11210  0.36376  0.14563  1.0000
  I   I337      1.0  0.56403  0.86648  0.84725  1.0000
  I   I338      1.0  0.20676  0.13265  0.80859  1.0000
  I   I339      1.0  0.29694  0.13817  0.50575  1.0000
  I   I340      1.0  0.92406  0.14268  0.92899  1.0000
  I   I341      1.0  0.23384  0.83674  0.66516  1.0000
  I   I342      1.0  0.36287  0.17908  0.23633  1.0000
  I   I343      1.0  0.84467  0.93142  0.93159  1.0000
  I   I344      1.0  0.47473  0.26993  0.65145  1.0000
  I   I345      1.0  0.38145  0.88827  0.10547  1.0000
  I   I346      1.0  0.58515  0.13134  0.69117  1.0000
  I   I347      1.0  0.85525  0.72925  0.83048  1.0000
  I   I348      1.0  0.06036  0.60902  0.46064  1.0000
  I   I349      1.0  0.53488  0.16651  0.93942  1.0000
  I   I350      1.0  0.25768  0.28472  0.46926  1.0000
  I   I351      1.0  0.07740  0.00887  0.64450  1.0000
  I   I352      1.0  0.02386  0.65565  0.84011  1.0000
  I   I353      1.0  0.12387  0.50701  0.88244  1.0000
  I   I354      1.0  0.46475  0.39141  0.15805  1.0000
  I   I355      1.0  0.76563  0.83300  0.35171  1.0000
  I   I356      1.0  0.99111  0.25261  0.75621  1.0000
  I   I357      1.0  0.92965  0.16796  0.57280  1.0000
  I   I358      1.0  0.03454  0.76244  0.11570  1.0000
  I   I359      1.0  0.72451  0.91653  0.05880  1.0000
  I   I360      1.0  0.06599  0.00671  0.29169  1.0000
  I   I361      1.0  0.26621  0.50072  0.17955  1.0000
  I   I362      1.0  0.93218  0.51157  0.27761  1.0000
  I   I363      1.0  0.30439  0.01433  0.09346  1.0000
  I   I364      1.0  0.82640  0.35793  0.30401  1.0000
  I   I365      1.0  0.61512  0.36253  0.14318  1.0000
  I   I366      1.0  0.91701  0.90081  0.44646  1.0000
  I   I367      1.0  0.26617  0.54423  0.79962  1.0000
  I   I368      1.0  0.89111  0.32189  0.42873  1.0000
  I   I369      1.0  0.58147  0.21769  0.30366  1.0000
  I   I370      1.0  0.42612  0.62595  0.87283  1.0000
  I   I371      1.0  0.78727  0.51525  0.80746  1.0000
  I   I372      1.0  0.02180  0.51645  0.87886  1.0000
  I   I373      1.0  0.08314  0.26778  0.28853  1.0000
  I   I374      1.0  0.32252  0.51991  0.38121  1.0000
  I   I375      1.0  0.82960  0.20600  0.38831  1.0000
  I   I376      1.0  0.54351  0.87534  0.99061  1.0000
  I   I377      1.0  0.51084  0.67988  0.36385  1.0000
  I   I378      1.0  0.67018  0.26506  0.71177  1.0000
  I   I379      1.0  0.41730  0.65748  0.21484  1.0000
  I   I380      1.0  0.79046  0.01048  0.68754  1.0000
  I   I381      1.0  0.81542  0.49420  0.04810  1.0000
  I   I382      1.0  0.41296  0.71595  0.58246  1.0000
  I   I383      1.0  0.25759  0.40249  0.93811  1.0000
  I   I384      1.0  0.05450  0.42151  0.10447  1.0000
