data_image0
_chemical_formula_structural       Ti96I384
_chemical_formula_sum              "Ti96 I384"
_cell_length_a       48.8207
_cell_length_b       48.3449
_cell_length_c       23.5912
_cell_angle_alpha    88.7757
_cell_angle_beta     88.7757
_cell_angle_gamma    62.1586

_space_group_name_H-M_alt    "P 1"
_space_group_IT_number       1

loop_
  _space_group_symop_operation_xyz
  'x, y, z'

loop_
  _atom_site_type_symbol
  _atom_site_label
  _atom_site_symmetry_multiplicity
  _atom_site_fract_x
  _atom_site_fract_y
  _atom_site_fract_z
  _atom_site_occupancy
  Ti  Ti1       1.0  0.43672  0.98998  0.32212  1.0000
  Ti  Ti2       1.0  0.14865  0.02145  0.03604  1.0000
  Ti  Ti3       1.0  0.33216  0.99669  0.10682  1.0000
  Ti  Ti4       1.0  0.15829  0.21636  0.37318  1.0000
  Ti  Ti5       1.0  0.12234  0.29707  0.87152  1.0000
  Ti  Ti6       1.0  0.20098  0.16891  0.06374  1.0000
  Ti  Ti7       1.0  0.94999  0.71805  0.38580  1.0000
  Ti  Ti8       1.0  0.89514  0.82733  0.60589  1.0000
  Ti  Ti9       1.0  0.87990  0.82886  0.10916  1.0000
  Ti  Ti10      1.0  0.01970  0.85037  0.13891  1.0000
  Ti  Ti11      1.0  0.10646  0.86627  0.74459  1.0000
  Ti  Ti12      1.0  0.06668  0.71536  0.69411  1.0000
  Ti  Ti13      1.0  0.40878  0.19337  0.38756  1.0000
  Ti  Ti14      1.0  0.39484  0.06428  0.68279  1.0000
  Ti  Ti15      1.0  0.42424  0.12020  0.11627  1.0000
  Ti  Ti16      1.0  0.30108  0.61452  0.88007  1.0000
  Ti  Ti17      1.0  0.24701  0.59063  0.15938  1.0000
  Ti  Ti18      1.0  0.33320  0.38965  0.69901  1.0000
  Ti  Ti19      1.0  0.33638  0.78695  0.13535  1.0000
  Ti  Ti20      1.0  0.55136  0.57720  0.74138  1.0000
  Ti  Ti21      1.0  0.30599  0.71731  0.39846  1.0000
  Ti  Ti22      1.0  0.30733  0.87767  0.71234  1.0000
  Ti  Ti23      1.0  0.50185  0.88063  0.90019  1.0000
  Ti  Ti24      1.0  0.43573  0.80077  0.49654  1.0000
  Ti  Ti25      1.0  0.55013  0.22966  0.63917  1.0000
  Ti  Ti26      1.0  0.48360  0.26845  0.94429  1.0000
  Ti  Ti27      1.0  0.60039  0.20343  0.33038  1.0000
  Ti  Ti28      1.0  0.64168  0.38079  0.37924  1.0000
  Ti  Ti29      1.0  0.71369  0.39639  0.78717  1.0000
  Ti  Ti30      1.0  0.55601  0.43258  0.97871  1.0000
  Ti  Ti31      1.0  0.71717  0.54505  0.32046  1.0000
  Ti  Ti32      1.0  0.84180  0.48617  0.78802  1.0000
  Ti  Ti33      1.0  0.71651  0.52373  0.99493  1.0000
  Ti  Ti34      1.0  0.79242  0.69974  0.95864  1.0000
  Ti  Ti35      1.0  0.60732  0.85585  0.31772  1.0000
  Ti  Ti36      1.0  0.77363  0.68460  0.64802  1.0000
  Ti  Ti37      1.0  0.82997  0.12986  0.91238  1.0000
  Ti  Ti38      1.0  0.90492  0.16196  0.18617  1.0000
  Ti  Ti39      1.0  0.77228  0.16138  0.56547  1.0000
  Ti  Ti40      1.0  0.93497  0.37047  0.05082  1.0000
  Ti  Ti41      1.0  0.93130  0.34957  0.61619  1.0000
  Ti  Ti42      1.0  0.09441  0.04997  0.57076  1.0000
  Ti  Ti43      1.0  0.99665  0.49507  0.27970  1.0000
  Ti  Ti44      1.0  0.04407  0.50851  0.56384  1.0000
  Ti  Ti45      1.0  0.10378  0.50972  0.83629  1.0000
  Ti  Ti46      1.0  0.76882  0.01033  0.43201  1.0000
  Ti  Ti47      1.0  0.70163  0.04654  0.76854  1.0000
  Ti  Ti48      1.0  0.61938  0.04546  0.03633  1.0000
  Ti  Ti49      1.0  0.34961  0.01231  0.33809  1.0000
  Ti  Ti50      1.0  0.06753  0.04106  0.92521  1.0000
  Ti  Ti51      1.0  0.21924  0.99418  0.09339  1.0000
  Ti  Ti52      1.0  0.10419  0.25100  0.27840  1.0000
  Ti  Ti53      1.0  0.10751  0.29162  0.69334  1.0000
  Ti  Ti54      1.0  0.15872  0.19517  0.88524  1.0000
  Ti  Ti55      1.0  0.92317  0.75277  0.22605  1.0000
  Ti  Ti56      1.0  0.91147  0.89079  0.67538  1.0000
  Ti  Ti57      1.0  0.89904  0.84799  0.95953  1.0000
  Ti  Ti58      1.0  0.97647  0.93607  0.13003  1.0000
  Ti  Ti59      1.0  0.09151  0.82746  0.26196  1.0000
  Ti  Ti60      1.0  0.10373  0.77250  0.70886  1.0000
  Ti  Ti61      1.0  0.37836  0.16265  0.25592  1.0000
  Ti  Ti62      1.0  0.34469  0.26727  0.47403  1.0000
  Ti  Ti63      1.0  0.31774  0.13664  0.68685  1.0000
  Ti  Ti64      1.0  0.30615  0.47678  0.57738  1.0000
  Ti  Ti65      1.0  0.29482  0.56666  0.00667  1.0000
  Ti  Ti66      1.0  0.21727  0.53852  0.26017  1.0000
  Ti  Ti67      1.0  0.29138  0.77854  0.25608  1.0000
  Ti  Ti68      1.0  0.55942  0.63516  0.83713  1.0000
  Ti  Ti69      1.0  0.26788  0.67513  0.44975  1.0000
  Ti  Ti70      1.0  0.38499  0.83914  0.61349  1.0000
  Ti  Ti71      1.0  0.54554  0.91809  0.81772  1.0000
  Ti  Ti72      1.0  0.45184  0.84934  0.96650  1.0000
  Ti  Ti73      1.0  0.57062  0.18335  0.47936  1.0000
  Ti  Ti74      1.0  0.48648  0.22681  0.77314  1.0000
  Ti  Ti75      1.0  0.45778  0.26854  0.10337  1.0000
  Ti  Ti76      1.0  0.45768  0.46619  0.95135  1.0000
  Ti  Ti77      1.0  0.61041  0.43019  0.46743  1.0000
  Ti  Ti78      1.0  0.63385  0.40054  0.86474  1.0000
  Ti  Ti79      1.0  0.74392  0.55201  0.14677  1.0000
  Ti  Ti80      1.0  0.81383  0.52560  0.38002  1.0000
  Ti  Ti81      1.0  0.78544  0.53500  0.88981  1.0000
  Ti  Ti82      1.0  0.75561  0.73800  0.81103  1.0000
  Ti  Ti83      1.0  0.61356  0.82353  0.17357  1.0000
  Ti  Ti84      1.0  0.72503  0.75965  0.50855  1.0000
  Ti  Ti85      1.0  0.73553  0.18744  0.83474  1.0000
  Ti  Ti86      1.0  0.83735  0.16484  0.07335  1.0000
  Ti  Ti87      1.0  0.75045  0.21007  0.44149  1.0000
  Ti  Ti88      1.0  0.90138  0.31493  0.11432  1.0000
  Ti  Ti89      1.0  0.92869  0.28007  0.62403  1.0000
  Ti  Ti90      1.0  0.17880  0.97834  0.48020  1.0000
  Ti  Ti91      1.0  0.11714  0.53778  0.00313  1.0000
  Ti  Ti92      1.0  0.95495  0.55530  0.44270  1.0000
  Ti  Ti93      1.0  0.02075  0.55259  0.73379  1.0000
  Ti  Ti94      1.0  0.59627  0.02186  0.17699  1.0000
  Ti  Ti95      1.0  0.73670  0.99669  0.59381  1.0000
  Ti  Ti96      1.0  0.66192  0.99739  0.87766  1.0000
  I   I1        1.0  0.08427  0.04865  0.82326  1.0000
  I   I2        1.0  0.18126  0.96597  0.10321  1.0000
  I   I3        1.0  0.31420  0.99671  0.41414  1.0000
  I   I4        1.0  0.11926  0.24155  0.64188  1.0000
  I   I5        1.0  0.16950  0.22698  0.80328  1.0000
  I   I6        1.0  0.19916  0.12553  0.13222  1.0000
  I   I7        1.0  0.92276  0.90516  0.78036  1.0000
  I   I8        1.0  0.84815  0.87903  0.64737  1.0000
  I   I9        1.0  0.92810  0.81591  0.17425  1.0000
  I   I10       1.0  0.08677  0.81822  0.14131  1.0000
  I   I11       1.0  0.16121  0.76107  0.70642  1.0000
  I   I12       1.0  0.94064  0.96481  0.21578  1.0000
  I   I13       1.0  0.34103  0.22021  0.41806  1.0000
  I   I14       1.0  0.44591  0.05523  0.64099  1.0000
  I   I15       1.0  0.36646  0.11996  0.20346  1.0000
  I   I16       1.0  0.34314  0.57568  0.96559  1.0000
  I   I17       1.0  0.25109  0.52729  0.16522  1.0000
  I   I18       1.0  0.34919  0.49262  0.60126  1.0000
  I   I19       1.0  0.55412  0.58502  0.88115  1.0000
  I   I20       1.0  0.23317  0.70339  0.54323  1.0000
  I   I21       1.0  0.29360  0.78237  0.39181  1.0000
  I   I22       1.0  0.52677  0.97867  0.79653  1.0000
  I   I23       1.0  0.50593  0.92994  0.92964  1.0000
  I   I24       1.0  0.38928  0.86925  0.50875  1.0000
  I   I25       1.0  0.53048  0.18854  0.68662  1.0000
  I   I26       1.0  0.45965  0.23237  0.98642  1.0000
  I   I27       1.0  0.61879  0.13216  0.43372  1.0000
  I   I28       1.0  0.67178  0.41303  0.45383  1.0000
  I   I29       1.0  0.70277  0.35945  0.86710  1.0000
  I   I30       1.0  0.51315  0.41371  0.92801  1.0000
  I   I31       1.0  0.75346  0.57783  0.36406  1.0000
  I   I32       1.0  0.78501  0.55841  0.78840  1.0000
  I   I33       1.0  0.70696  0.58019  0.03641  1.0000
  I   I34       1.0  0.59809  0.85233  0.07167  1.0000
  I   I35       1.0  0.71177  0.80776  0.57609  1.0000
  I   I36       1.0  0.77023  0.67488  0.77618  1.0000
  I   I37       1.0  0.79989  0.14484  0.02933  1.0000
  I   I38       1.0  0.77914  0.17647  0.35651  1.0000
  I   I39       1.0  0.70555  0.16667  0.77324  1.0000
  I   I40       1.0  0.92287  0.23981  0.55976  1.0000
  I   I41       1.0  0.18860  0.93482  0.40965  1.0000
  I   I42       1.0  0.90488  0.34305  0.99604  1.0000
  I   I43       1.0  0.95345  0.50522  0.37544  1.0000
  I   I44       1.0  0.00897  0.51561  0.65853  1.0000
  I   I45       1.0  0.07153  0.52730  0.94998  1.0000
  I   I46       1.0  0.79123  0.96640  0.54013  1.0000
  I   I47       1.0  0.71652  0.98073  0.83181  1.0000
  I   I48       1.0  0.62305  0.99055  0.07098  1.0000
  I   I49       1.0  0.38367  0.02164  0.24967  1.0000
  I   I50       1.0  0.09414  0.03951  0.08718  1.0000
  I   I51       1.0  0.26350  0.01470  0.10540  1.0000
  I   I52       1.0  0.09580  0.26719  0.38968  1.0000
  I   I53       1.0  0.07138  0.29945  0.80348  1.0000
  I   I54       1.0  0.15193  0.17043  0.99359  1.0000
  I   I55       1.0  0.92895  0.69699  0.28516  1.0000
  I   I56       1.0  0.90841  0.87634  0.56014  1.0000
  I   I57       1.0  0.92537  0.79096  0.01320  1.0000
  I   I58       1.0  0.03103  0.80138  0.08960  1.0000
  I   I59       1.0  0.13626  0.84564  0.24808  1.0000
  I   I60       1.0  0.04261  0.78165  0.72116  1.0000
  I   I61       1.0  0.39052  0.21115  0.27934  1.0000
  I   I62       1.0  0.36441  0.30153  0.52270  1.0000
  I   I63       1.0  0.30367  0.19713  0.68946  1.0000
  I   I64       1.0  0.25247  0.64716  0.81472  1.0000
  I   I65       1.0  0.23601  0.57635  0.04910  1.0000
  I   I66       1.0  0.19606  0.49937  0.24159  1.0000
  I   I67       1.0  0.27704  0.77849  0.14550  1.0000
  I   I68       1.0  0.49335  0.61060  0.77180  1.0000
  I   I69       1.0  0.24273  0.74851  0.41201  1.0000
  I   I70       1.0  0.37183  0.82361  0.72670  1.0000
  I   I71       1.0  0.56584  0.85154  0.84087  1.0000
  I   I72       1.0  0.40404  0.85740  0.90691  1.0000
  I   I73       1.0  0.51545  0.23653  0.54268  1.0000
  I   I74       1.0  0.44684  0.28146  0.85074  1.0000
  I   I75       1.0  0.47276  0.29763  0.17989  1.0000
  I   I76       1.0  0.63446  0.42951  0.31723  1.0000
  I   I77       1.0  0.59351  0.43684  0.57943  1.0000
  I   I78       1.0  0.57177  0.43929  0.85354  1.0000
  I   I79       1.0  0.77159  0.51541  0.24381  1.0000
  I   I80       1.0  0.85665  0.46924  0.35486  1.0000
  I   I81       1.0  0.78827  0.50622  0.99154  1.0000
  I   I82       1.0  0.76755  0.77451  0.88890  1.0000
  I   I83       1.0  0.55819  0.89227  0.25445  1.0000
  I   I84       1.0  0.71456  0.72396  0.60938  1.0000
  I   I85       1.0  0.79095  0.19053  0.86862  1.0000
  I   I86       1.0  0.87561  0.20186  0.10052  1.0000
  I   I87       1.0  0.73477  0.22549  0.56245  1.0000
  I   I88       1.0  0.85107  0.32025  0.07528  1.0000
  I   I89       1.0  0.97302  0.33298  0.69462  1.0000
  I   I90       1.0  0.15853  0.01000  0.59868  1.0000
  I   I91       1.0  0.17669  0.51833  0.02418  1.0000
  I   I92       1.0  0.98344  0.57765  0.51793  1.0000
  I   I93       1.0  0.05567  0.57550  0.80069  1.0000
  I   I94       1.0  0.55814  0.99626  0.19706  1.0000
  I   I95       1.0  0.67903  0.03733  0.65753  1.0000
  I   I96       1.0  0.59401  0.03296  0.92916  1.0000
  I   I97       1.0  0.32599  0.99974  0.23280  1.0000
  I   I98       1.0  0.45880  0.02530  0.27749  1.0000
  I   I99       1.0  0.16246  0.05470  0.10847  1.0000
  I   I100      1.0  0.13451  0.28323  0.25640  1.0000
  I   I101      1.0  0.14673  0.18838  0.46665  1.0000
  I   I102      1.0  0.11314  0.25099  0.93749  1.0000
  I   I103      1.0  0.88004  0.77339  0.13575  1.0000
  I   I104      1.0  0.97438  0.66312  0.43512  1.0000
  I   I105      1.0  0.89238  0.81682  0.86751  1.0000
  I   I106      1.0  0.04858  0.70034  0.78964  1.0000
  I   I107      1.0  0.03234  0.82103  0.24417  1.0000
  I   I108      1.0  0.09998  0.81503  0.80407  1.0000
  I   I109      1.0  0.44260  0.12047  0.23062  1.0000
  I   I110      1.0  0.38624  0.26200  0.38960  1.0000
  I   I111      1.0  0.38524  0.03579  0.59132  1.0000
  I   I112      1.0  0.36175  0.40520  0.60103  1.0000
  I   I113      1.0  0.26712  0.63313  0.98969  1.0000
  I   I114      1.0  0.18453  0.61161  0.19017  1.0000
  I   I115      1.0  0.31603  0.71469  0.28322  1.0000
  I   I116      1.0  0.30183  0.82709  0.05774  1.0000
  I   I117      1.0  0.56907  0.51831  0.73395  1.0000
  I   I118      1.0  0.39523  0.78102  0.57558  1.0000
  I   I119      1.0  0.31535  0.89609  0.80949  1.0000
  I   I120      1.0  0.51748  0.84878  0.99551  1.0000
  I   I121      1.0  0.59179  0.22988  0.43916  1.0000
  I   I122      1.0  0.51136  0.26526  0.72753  1.0000
  I   I123      1.0  0.44605  0.31693  0.02043  1.0000
  I   I124      1.0  0.50228  0.48390  0.00063  1.0000
  I   I125      1.0  0.69489  0.33600  0.35610  1.0000
  I   I126      1.0  0.65993  0.43844  0.89129  1.0000
  I   I127      1.0  0.73647  0.50364  0.11019  1.0000
  I   I128      1.0  0.76275  0.50318  0.39240  1.0000
  I   I129      1.0  0.81070  0.46163  0.84934  1.0000
  I   I130      1.0  0.77666  0.74209  0.69662  1.0000
  I   I131      1.0  0.75397  0.72223  0.04832  1.0000
  I   I132      1.0  0.63652  0.79133  0.29601  1.0000
  I   I133      1.0  0.79594  0.17349  0.65550  1.0000
  I   I134      1.0  0.86570  0.15017  0.96577  1.0000
  I   I135      1.0  0.91743  0.19852  0.24588  1.0000
  I   I136      1.0  0.09322  0.07632  0.67229  1.0000
  I   I137      1.0  0.98332  0.37893  0.09093  1.0000
  I   I138      1.0  0.97485  0.35017  0.54788  1.0000
  I   I139      1.0  0.13696  0.53304  0.88698  1.0000
  I   I140      1.0  0.00797  0.53704  0.34055  1.0000
  I   I141      1.0  0.06568  0.54202  0.63036  1.0000
  I   I142      1.0  0.56120  0.06262  0.09113  1.0000
  I   I143      1.0  0.75485  0.04116  0.54258  1.0000
  I   I144      1.0  0.64576  0.05820  0.81068  1.0000
  I   I145      1.0  0.39593  0.95682  0.37668  1.0000
  I   I146      1.0  0.12485  0.98983  0.96377  1.0000
  I   I147      1.0  0.32915  0.97843  0.00665  1.0000
  I   I148      1.0  0.12852  0.18787  0.30903  1.0000
  I   I149      1.0  0.13431  0.31714  0.78060  1.0000
  I   I150      1.0  0.20470  0.20248  0.97097  1.0000
  I   I151      1.0  0.87499  0.77790  0.29506  1.0000
  I   I152      1.0  0.90813  0.80661  0.50204  1.0000
  I   I153      1.0  0.87608  0.88182  0.06388  1.0000
  I   I154      1.0  0.01910  0.89161  0.05574  1.0000
  I   I155      1.0  0.12090  0.88737  0.83096  1.0000
  I   I156      1.0  0.11828  0.71696  0.77452  1.0000
  I   I157      1.0  0.39519  0.13926  0.37021  1.0000
  I   I158      1.0  0.37218  0.12306  0.74897  1.0000
  I   I159      1.0  0.39492  0.11294  0.03509  1.0000
  I   I160      1.0  0.31673  0.46538  0.46884  1.0000
  I   I161      1.0  0.30468  0.57441  0.12722  1.0000
  I   I162      1.0  0.32152  0.40001  0.80661  1.0000
  I   I163      1.0  0.35521  0.76224  0.23964  1.0000
  I   I164      1.0  0.53007  0.67139  0.91747  1.0000
  I   I165      1.0  0.30564  0.70034  0.50849  1.0000
  I   I166      1.0  0.31621  0.85843  0.59663  1.0000
  I   I167      1.0  0.48841  0.91587  0.78941  1.0000
  I   I168      1.0  0.47469  0.74138  0.51680  1.0000
  I   I169      1.0  0.60457  0.17681  0.57309  1.0000
  I   I170      1.0  0.52495  0.22060  0.86543  1.0000
  I   I171      1.0  0.60062  0.17869  0.22541  1.0000
  I   I172      1.0  0.42575  0.45166  0.88404  1.0000
  I   I173      1.0  0.76688  0.38590  0.83586  1.0000
  I   I174      1.0  0.62156  0.37876  0.95832  1.0000
  I   I175      1.0  0.68794  0.57425  0.22027  1.0000
  I   I176      1.0  0.88598  0.50481  0.74553  1.0000
  I   I177      1.0  0.71825  0.54396  0.88953  1.0000
  I   I178      1.0  0.82097  0.69043  0.84751  1.0000
  I   I179      1.0  0.64616  0.85765  0.22450  1.0000
  I   I180      1.0  0.75379  0.64152  0.65538  1.0000
  I   I181      1.0  0.77887  0.12285  0.87386  1.0000
  I   I182      1.0  0.88679  0.11985  0.11947  1.0000
  I   I183      1.0  0.74013  0.15914  0.46159  1.0000
  I   I184      1.0  0.88878  0.41451  0.10383  1.0000
  I   I185      1.0  0.91844  0.31632  0.52980  1.0000
  I   I186      1.0  0.11951  0.00329  0.48144  1.0000
  I   I187      1.0  0.94569  0.52732  0.22359  1.0000
  I   I188      1.0  0.00277  0.50138  0.50748  1.0000
  I   I189      1.0  0.05864  0.49697  0.79552  1.0000
  I   I190      1.0  0.76352  0.97093  0.36626  1.0000
  I   I191      1.0  0.75606  0.00490  0.69954  1.0000
  I   I192      1.0  0.67180  0.02574  0.97045  1.0000
  I   I193      1.0  0.45539  0.93424  0.27159  1.0000
  I   I194      1.0  0.12502  0.06525  0.95496  1.0000
  I   I195      1.0  0.33005  0.05013  0.08224  1.0000
  I   I196      1.0  0.17886  0.24002  0.45015  1.0000
  I   I197      1.0  0.08566  0.34248  0.93597  1.0000
  I   I198      1.0  0.22028  0.19309  0.13914  1.0000
  I   I199      1.0  0.89954  0.73176  0.44061  1.0000
  I   I200      1.0  0.93626  0.82148  0.69198  1.0000
  I   I201      1.0  0.83740  0.83933  0.02167  1.0000
  I   I202      1.0  0.95695  0.88194  0.16997  1.0000
  I   I203      1.0  0.15314  0.86459  0.67920  1.0000
  I   I204      1.0  0.10640  0.66625  0.64960  1.0000
  I   I205      1.0  0.46947  0.15615  0.35831  1.0000
  I   I206      1.0  0.33116  0.07673  0.72467  1.0000
  I   I207      1.0  0.47045  0.12592  0.07028  1.0000
  I   I208      1.0  0.31287  0.66111  0.89394  1.0000
  I   I209      1.0  0.23545  0.64864  0.15892  1.0000
  I   I210      1.0  0.30214  0.36040  0.66428  1.0000
  I   I211      1.0  0.37537  0.73606  0.09537  1.0000
  I   I212      1.0  0.60471  0.65239  0.84630  1.0000
  I   I213      1.0  0.31262  0.65304  0.36638  1.0000
  I   I214      1.0  0.27333  0.85107  0.71968  1.0000
  I   I215      1.0  0.48600  0.84312  0.84885  1.0000
  I   I216      1.0  0.40726  0.80534  0.40304  1.0000
  I   I217      1.0  0.56588  0.27031  0.59308  1.0000
  I   I218      1.0  0.51463  0.30244  0.92449  1.0000
  I   I219      1.0  0.58304  0.25717  0.27787  1.0000
  I   I220      1.0  0.60733  0.36443  0.32100  1.0000
  I   I221      1.0  0.73934  0.34706  0.71814  1.0000
  I   I222      1.0  0.58949  0.46047  0.00091  1.0000
  I   I223      1.0  0.70687  0.49787  0.29690  1.0000
  I   I224      1.0  0.88915  0.43141  0.79551  1.0000
  I   I225      1.0  0.73266  0.46779  0.95804  1.0000
  I   I226      1.0  0.83193  0.71303  0.00678  1.0000
  I   I227      1.0  0.58407  0.84340  0.41118  1.0000
  I   I228      1.0  0.77640  0.70246  0.53604  1.0000
  I   I229      1.0  0.86709  0.11664  0.82733  1.0000
  I   I230      1.0  0.95711  0.13184  0.14465  1.0000
  I   I231      1.0  0.82582  0.12995  0.51077  1.0000
  I   I232      1.0  0.94895  0.39147  0.95741  1.0000
  I   I233      1.0  0.89401  0.33383  0.68802  1.0000
  I   I234      1.0  0.04000  0.05414  0.56811  1.0000
  I   I235      1.0  0.03519  0.48794  0.19675  1.0000
  I   I236      1.0  0.07315  0.51853  0.47474  1.0000
  I   I237      1.0  0.13084  0.50044  0.73707  1.0000
  I   I238      1.0  0.73899  0.05897  0.36963  1.0000
  I   I239      1.0  0.70010  0.09312  0.71395  1.0000
  I   I240      1.0  0.60129  0.10374  0.99926  1.0000
  I   I241      1.0  0.47962  0.97221  0.40154  1.0000
  I   I242      1.0  0.21717  0.00247  0.97427  1.0000
  I   I243      1.0  0.38545  0.94923  0.12822  1.0000
  I   I244      1.0  0.20955  0.18904  0.31825  1.0000
  I   I245      1.0  0.17005  0.29470  0.91987  1.0000
  I   I246      1.0  0.25387  0.12739  0.01100  1.0000
  I   I247      1.0  0.98207  0.73998  0.44118  1.0000
  I   I248      1.0  0.88699  0.77816  0.63390  1.0000
  I   I249      1.0  0.83309  0.85202  0.18637  1.0000
  I   I250      1.0  0.03115  0.89938  0.22214  1.0000
  I   I251      1.0  0.06961  0.92376  0.70748  1.0000
  I   I252      1.0  0.02018  0.72112  0.62912  1.0000
  I   I253      1.0  0.41741  0.18907  0.49828  1.0000
  I   I254      1.0  0.40801  0.01908  0.74833  1.0000
  I   I255      1.0  0.46342  0.05924  0.13378  1.0000
  I   I256      1.0  0.32805  0.58984  0.78202  1.0000
  I   I257      1.0  0.24959  0.58375  0.27065  1.0000
  I   I258      1.0  0.38788  0.33781  0.69934  1.0000
  I   I259      1.0  0.34942  0.83345  0.16923  1.0000
  I   I260      1.0  0.53746  0.59351  0.63416  1.0000
  I   I261      1.0  0.36895  0.69123  0.40277  1.0000
  I   I262      1.0  0.26591  0.93806  0.70292  1.0000
  I   I263      1.0  0.43972  0.91254  0.94607  1.0000
  I   I264      1.0  0.47796  0.81174  0.45705  1.0000
  I   I265      1.0  0.59294  0.21039  0.72471  1.0000
  I   I266      1.0  0.52117  0.25143  0.05628  1.0000
  I   I267      1.0  0.66097  0.18660  0.31322  1.0000
  I   I268      1.0  0.63327  0.36384  0.48960  1.0000
  I   I269      1.0  0.70271  0.45555  0.75818  1.0000
  I   I270      1.0  0.56519  0.39753  0.07066  1.0000
  I   I271      1.0  0.66906  0.56741  0.38680  1.0000
  I   I272      1.0  0.81946  0.48033  0.69137  1.0000
  I   I273      1.0  0.65979  0.52924  0.99128  1.0000
  I   I274      1.0  0.81441  0.64167  0.98757  1.0000
  I   I275      1.0  0.61751  0.89546  0.37856  1.0000
  I   I276      1.0  0.83140  0.64421  0.63398  1.0000
  I   I277      1.0  0.85955  0.06956  0.95798  1.0000
  I   I278      1.0  0.88500  0.13533  0.26703  1.0000
  I   I279      1.0  0.76081  0.12129  0.61102  1.0000
  I   I280      1.0  0.95371  0.32133  0.14008  1.0000
  I   I281      1.0  0.89234  0.40873  0.60288  1.0000
  I   I282      1.0  0.08117  0.09975  0.50710  1.0000
  I   I283      1.0  0.00757  0.43860  0.28632  1.0000
  I   I284      1.0  0.08331  0.44754  0.57088  1.0000
  I   I285      1.0  0.13595  0.45542  0.88488  1.0000
  I   I286      1.0  0.82472  0.00539  0.41552  1.0000
  I   I287      1.0  0.72881  0.05394  0.86211  1.0000
  I   I288      1.0  0.64382  0.05517  0.12701  1.0000
  I   I289      1.0  0.38242  0.03317  0.40116  1.0000
  I   I290      1.0  0.03829  0.00863  0.92647  1.0000
  I   I291      1.0  0.26526  0.93764  0.08502  1.0000
  I   I292      1.0  0.11517  0.24029  0.16251  1.0000
  I   I293      1.0  0.05666  0.33955  0.65980  1.0000
  I   I294      1.0  0.21393  0.14664  0.86773  1.0000
  I   I295      1.0  0.95940  0.76023  0.30237  1.0000
  I   I296      1.0  0.96739  0.88363  0.64783  1.0000
  I   I297      1.0  0.85161  0.90458  0.92670  1.0000
  I   I298      1.0  0.99932  0.97614  0.10625  1.0000
  I   I299      1.0  0.12872  0.76675  0.27633  1.0000
  I   I300      1.0  0.10446  0.74494  0.60881  1.0000
  I   I301      1.0  0.31380  0.19399  0.26787  1.0000
  I   I302      1.0  0.32310  0.26378  0.57089  1.0000
  I   I303      1.0  0.26394  0.15002  0.65202  1.0000
  I   I304      1.0  0.26102  0.53320  0.57089  1.0000
  I   I305      1.0  0.32787  0.50577  0.00884  1.0000
  I   I306      1.0  0.18502  0.56454  0.35171  1.0000
  I   I307      1.0  0.27617  0.84079  0.26577  1.0000
  I   I308      1.0  0.59850  0.58974  0.75124  1.0000
  I   I309      1.0  0.22502  0.66702  0.39982  1.0000
  I   I310      1.0  0.36152  0.89355  0.65214  1.0000
  I   I311      1.0  0.59604  0.90277  0.87198  1.0000
  I   I312      1.0  0.45029  0.83901  0.06952  1.0000
  I   I313      1.0  0.54242  0.15222  0.51633  1.0000
  I   I314      1.0  0.48026  0.17635  0.79896  1.0000
  I   I315      1.0  0.47273  0.21552  0.14911  1.0000
  I   I316      1.0  0.42662  0.52551  0.93035  1.0000
  I   I317      1.0  0.56301  0.42862  0.42544  1.0000
  I   I318      1.0  0.64782  0.34437  0.81125  1.0000
  I   I319      1.0  0.72970  0.61012  0.16506  1.0000
  I   I320      1.0  0.82158  0.52127  0.49143  1.0000
  I   I321      1.0  0.76923  0.58928  0.94347  1.0000
  I   I322      1.0  0.73446  0.71509  0.90196  1.0000
  I   I323      1.0  0.66351  0.77068  0.14923  1.0000
  I   I324      1.0  0.74384  0.77675  0.42110  1.0000
  I   I325      1.0  0.70723  0.19480  0.92878  1.0000
  I   I326      1.0  0.81171  0.16812  0.17426  1.0000
  I   I327      1.0  0.69407  0.24510  0.40291  1.0000
  I   I328      1.0  0.89657  0.30408  0.22418  1.0000
  I   I329      1.0  0.98937  0.26414  0.61625  1.0000
  I   I330      1.0  0.17908  0.02488  0.42824  1.0000
  I   I331      1.0  0.11439  0.52202  0.10813  1.0000
  I   I332      1.0  0.91166  0.55845  0.51380  1.0000
  I   I333      1.0  0.97728  0.55880  0.80900  1.0000
  I   I334      1.0  0.59445  0.06248  0.25216  1.0000
  I   I335      1.0  0.70660  0.96454  0.60998  1.0000
  I   I336      1.0  0.68245  0.94337  0.92780  1.0000
  I   I337      1.0  0.30134  0.07269  0.33200  1.0000
  I   I338      1.0  0.02536  0.09697  0.95347  1.0000
  I   I339      1.0  0.21865  0.99688  0.20673  1.0000
  I   I340      1.0  0.04495  0.27616  0.27167  1.0000
  I   I341      1.0  0.15237  0.29726  0.64187  1.0000
  I   I342      1.0  0.13091  0.17687  0.81602  1.0000
  I   I343      1.0  0.96921  0.70580  0.16293  1.0000
  I   I344      1.0  0.87504  0.94940  0.64955  1.0000
  I   I345      1.0  0.94638  0.85603  0.94110  1.0000
  I   I346      1.0  0.92831  0.95660  0.06416  1.0000
  I   I347      1.0  0.07732  0.84993  0.36287  1.0000
  I   I348      1.0  0.08727  0.83706  0.66270  1.0000
  I   I349      1.0  0.37831  0.18189  0.13557  1.0000
  I   I350      1.0  0.30073  0.31240  0.41876  1.0000
  I   I351      1.0  0.35921  0.12469  0.59773  1.0000
  I   I352      1.0  0.28211  0.45010  0.66012  1.0000
  I   I353      1.0  0.28363  0.55773  0.89421  1.0000
  I   I354      1.0  0.26875  0.49359  0.31382  1.0000
  I   I355      1.0  0.23271  0.79130  0.26469  1.0000
  I   I356      1.0  0.52537  0.67216  0.74842  1.0000
  I   I357      1.0  0.29355  0.61902  0.48652  1.0000
  I   I358      1.0  0.44758  0.81685  0.61803  1.0000
  I   I359      1.0  0.56269  0.90454  0.70980  1.0000
  I   I360      1.0  0.48105  0.79147  0.94708  1.0000
  I   I361      1.0  0.54487  0.19807  0.37461  1.0000
  I   I362      1.0  0.43851  0.24753  0.69589  1.0000
  I   I363      1.0  0.39699  0.29860  0.11244  1.0000
  I   I364      1.0  0.44494  0.44676  0.05198  1.0000
  I   I365      1.0  0.58668  0.49099  0.46744  1.0000
  I   I366      1.0  0.64664  0.41222  0.75686  1.0000
  I   I367      1.0  0.80154  0.53211  0.11849  1.0000
  I   I368      1.0  0.84385  0.55710  0.34535  1.0000
  I   I369      1.0  0.84659  0.51579  0.88985  1.0000
  I   I370      1.0  0.70208  0.78384  0.78019  1.0000
  I   I371      1.0  0.56547  0.81485  0.18035  1.0000
  I   I372      1.0  0.67427  0.75769  0.48795  1.0000
  I   I373      1.0  0.71537  0.24114  0.78971  1.0000
  I   I374      1.0  0.80126  0.22286  0.03771  1.0000
  I   I375      1.0  0.77610  0.24477  0.44997  1.0000
  I   I376      1.0  0.93393  0.25788  0.08401  1.0000
  I   I377      1.0  0.92541  0.25063  0.72322  1.0000
  I   I378      1.0  0.22841  0.94968  0.53972  1.0000
  I   I379      1.0  0.09902  0.59796  0.98927  1.0000
  I   I380      1.0  0.92929  0.60084  0.37002  1.0000
  I   I381      1.0  0.98231  0.60528  0.67695  1.0000
  I   I382      1.0  0.63874  0.97111  0.22267  1.0000
  I   I383      1.0  0.70912  0.00717  0.48637  1.0000
  I   I384      1.0  0.63604  0.98189  0.79845  1.0000
