data_image0
_chemical_formula_structural       Ti96I384
_chemical_formula_sum              "Ti96 I384"
_cell_length_a       46.5492
_cell_length_b       46.238
_cell_length_c       22.9419
_cell_angle_alpha    88.7757
_cell_angle_beta     88.7757
_cell_angle_gamma    62.1586

_space_group_name_H-M_alt    "P 1"
_space_group_IT_number       1

loop_
  _space_group_symop_operation_xyz
  'x, y, z'

loop_
  _atom_site_type_symbol
  _atom_site_label
  _atom_site_symmetry_multiplicity
  _atom_site_fract_x
  _atom_site_fract_y
  _atom_site_fract_z
  _atom_site_occupancy
  Ti  Ti1       1.0  0.36272  0.02093  0.64363  1.0000
  Ti  Ti2       1.0  0.22863  0.00302  0.03882  1.0000
  Ti  Ti3       1.0  0.30537  0.98134  0.33568  1.0000
  Ti  Ti4       1.0  0.20291  0.24968  0.28607  1.0000
  Ti  Ti5       1.0  0.18977  0.25280  0.64144  1.0000
  Ti  Ti6       1.0  0.22514  0.23007  0.96340  1.0000
  Ti  Ti7       1.0  0.04149  0.62278  0.50828  1.0000
  Ti  Ti8       1.0  0.90010  0.78789  0.74022  1.0000
  Ti  Ti9       1.0  0.96469  0.72574  0.21855  1.0000
  Ti  Ti10      1.0  0.98316  0.95560  0.27812  1.0000
  Ti  Ti11      1.0  0.13509  0.89494  0.58974  1.0000
  Ti  Ti12      1.0  0.16136  0.82896  0.82605  1.0000
  Ti  Ti13      1.0  0.40104  0.25086  0.18370  1.0000
  Ti  Ti14      1.0  0.46007  0.12512  0.58369  1.0000
  Ti  Ti15      1.0  0.42043  0.14478  0.96160  1.0000
  Ti  Ti16      1.0  0.34244  0.43865  0.99679  1.0000
  Ti  Ti17      1.0  0.19548  0.48617  0.16935  1.0000
  Ti  Ti18      1.0  0.44942  0.46502  0.75723  1.0000
  Ti  Ti19      1.0  0.32262  0.81321  0.18928  1.0000
  Ti  Ti20      1.0  0.46053  0.65856  0.86447  1.0000
  Ti  Ti21      1.0  0.27227  0.69148  0.33834  1.0000
  Ti  Ti22      1.0  0.32681  0.87000  0.72485  1.0000
  Ti  Ti23      1.0  0.45654  0.89477  0.08166  1.0000
  Ti  Ti24      1.0  0.49393  0.72641  0.60317  1.0000
  Ti  Ti25      1.0  0.64940  0.20096  0.47443  1.0000
  Ti  Ti26      1.0  0.63844  0.19806  0.81418  1.0000
  Ti  Ti27      1.0  0.63705  0.20308  0.12695  1.0000
  Ti  Ti28      1.0  0.63090  0.39337  0.12359  1.0000
  Ti  Ti29      1.0  0.71641  0.40612  0.53047  1.0000
  Ti  Ti30      1.0  0.67033  0.41014  0.82749  1.0000
  Ti  Ti31      1.0  0.61081  0.61703  0.31548  1.0000
  Ti  Ti32      1.0  0.69916  0.61224  0.64627  1.0000
  Ti  Ti33      1.0  0.72407  0.58742  0.01816  1.0000
  Ti  Ti34      1.0  0.77825  0.71605  0.11843  1.0000
  Ti  Ti35      1.0  0.74703  0.77115  0.48097  1.0000
  Ti  Ti36      1.0  0.74333  0.73526  0.80039  1.0000
  Ti  Ti37      1.0  0.82637  0.15459  0.10818  1.0000
  Ti  Ti38      1.0  0.82261  0.14437  0.41230  1.0000
  Ti  Ti39      1.0  0.84562  0.12528  0.76298  1.0000
  Ti  Ti40      1.0  0.91143  0.33975  0.00927  1.0000
  Ti  Ti41      1.0  0.98914  0.24419  0.43701  1.0000
  Ti  Ti42      1.0  0.13915  0.08328  0.50013  1.0000
  Ti  Ti43      1.0  0.94088  0.49015  0.28964  1.0000
  Ti  Ti44      1.0  0.92555  0.46025  0.65104  1.0000
  Ti  Ti45      1.0  0.92997  0.51315  0.91679  1.0000
  Ti  Ti46      1.0  0.77114  0.97875  0.30989  1.0000
  Ti  Ti47      1.0  0.78371  0.95760  0.65202  1.0000
  Ti  Ti48      1.0  0.67541  0.99014  0.89846  1.0000
  Ti  Ti49      1.0  0.30921  0.03579  0.49083  1.0000
  Ti  Ti50      1.0  0.18271  0.04422  0.89788  1.0000
  Ti  Ti51      1.0  0.20879  0.03533  0.22659  1.0000
  Ti  Ti52      1.0  0.17481  0.22806  0.14484  1.0000
  Ti  Ti53      1.0  0.10664  0.28474  0.56372  1.0000
  Ti  Ti54      1.0  0.14403  0.26365  0.82314  1.0000
  Ti  Ti55      1.0  0.97516  0.67542  0.40124  1.0000
  Ti  Ti56      1.0  0.96868  0.80976  0.75504  1.0000
  Ti  Ti57      1.0  0.92050  0.75793  0.07258  1.0000
  Ti  Ti58      1.0  0.95619  0.97244  0.08355  1.0000
  Ti  Ti59      1.0  0.97264  0.89098  0.38757  1.0000
  Ti  Ti60      1.0  0.16388  0.80693  0.66468  1.0000
  Ti  Ti61      1.0  0.39226  0.25213  0.00011  1.0000
  Ti  Ti62      1.0  0.38139  0.31147  0.31273  1.0000
  Ti  Ti63      1.0  0.44504  0.14789  0.74176  1.0000
  Ti  Ti64      1.0  0.38597  0.42228  0.82686  1.0000
  Ti  Ti65      1.0  0.22585  0.48647  0.99871  1.0000
  Ti  Ti66      1.0  0.13333  0.46692  0.25518  1.0000
  Ti  Ti67      1.0  0.25216  0.77679  0.20482  1.0000
  Ti  Ti68      1.0  0.41465  0.64584  0.00699  1.0000
  Ti  Ti69      1.0  0.24736  0.62245  0.35748  1.0000
  Ti  Ti70      1.0  0.41786  0.79952  0.68254  1.0000
  Ti  Ti71      1.0  0.42719  0.96192  0.96877  1.0000
  Ti  Ti72      1.0  0.47998  0.83745  0.23734  1.0000
  Ti  Ti73      1.0  0.59647  0.20799  0.29691  1.0000
  Ti  Ti74      1.0  0.58904  0.20074  0.64865  1.0000
  Ti  Ti75      1.0  0.58405  0.20741  0.97434  1.0000
  Ti  Ti76      1.0  0.59433  0.45224  0.94265  1.0000
  Ti  Ti77      1.0  0.54028  0.41651  0.23405  1.0000
  Ti  Ti78      1.0  0.63674  0.43871  0.64584  1.0000
  Ti  Ti79      1.0  0.62400  0.63136  0.10422  1.0000
  Ti  Ti80      1.0  0.56875  0.56598  0.39488  1.0000
  Ti  Ti81      1.0  0.68704  0.61433  0.82364  1.0000
  Ti  Ti82      1.0  0.70971  0.78143  0.97330  1.0000
  Ti  Ti83      1.0  0.67612  0.82318  0.33541  1.0000
  Ti  Ti84      1.0  0.66654  0.79335  0.66849  1.0000
  Ti  Ti85      1.0  0.80316  0.19001  0.91016  1.0000
  Ti  Ti86      1.0  0.79052  0.21239  0.27558  1.0000
  Ti  Ti87      1.0  0.80776  0.19062  0.59154  1.0000
  Ti  Ti88      1.0  0.83926  0.38946  0.96732  1.0000
  Ti  Ti89      1.0  0.90148  0.31803  0.50728  1.0000
  Ti  Ti90      1.0  0.03579  0.13357  0.45218  1.0000
  Ti  Ti91      1.0  0.97627  0.56309  0.99260  1.0000
  Ti  Ti92      1.0  0.92011  0.50327  0.45084  1.0000
  Ti  Ti93      1.0  0.95230  0.51579  0.74093  1.0000
  Ti  Ti94      1.0  0.63514  0.98421  0.07457  1.0000
  Ti  Ti95      1.0  0.78081  0.93439  0.46655  1.0000
  Ti  Ti96      1.0  0.69137  0.95087  0.70592  1.0000
  I   I1        1.0  0.20948  0.00489  0.80672  1.0000
  I   I2        1.0  0.19412  0.99862  0.14748  1.0000
  I   I3        1.0  0.27347  0.00425  0.44488  1.0000
  I   I4        1.0  0.07545  0.24446  0.56755  1.0000
  I   I5        1.0  0.13935  0.24728  0.69350  1.0000
  I   I6        1.0  0.19566  0.19166  0.04675  1.0000
  I   I7        1.0  0.00203  0.77824  0.84519  1.0000
  I   I8        1.0  0.84281  0.79625  0.77210  1.0000
  I   I9        1.0  0.96734  0.66280  0.28476  1.0000
  I   I10       1.0  0.96740  0.97217  0.39655  1.0000
  I   I11       1.0  0.19398  0.83290  0.59398  1.0000
  I   I12       1.0  0.96534  0.92330  0.01974  1.0000
  I   I13       1.0  0.34918  0.31916  0.20595  1.0000
  I   I14       1.0  0.40862  0.13338  0.66486  1.0000
  I   I15       1.0  0.37160  0.21111  0.93023  1.0000
  I   I16       1.0  0.29238  0.42990  0.94360  1.0000
  I   I17       1.0  0.14303  0.47029  0.12895  1.0000
  I   I18       1.0  0.44701  0.37249  0.79054  1.0000
  I   I19       1.0  0.44975  0.71823  0.86097  1.0000
  I   I20       1.0  0.18592  0.63465  0.38240  1.0000
  I   I21       1.0  0.22870  0.75553  0.32894  1.0000
  I   I22       1.0  0.38271  0.97304  0.88941  1.0000
  I   I23       1.0  0.39453  0.95149  0.04992  1.0000
  I   I24       1.0  0.42962  0.73955  0.62220  1.0000
  I   I25       1.0  0.60884  0.17206  0.53529  1.0000
  I   I26       1.0  0.60625  0.16590  0.87571  1.0000
  I   I27       1.0  0.60512  0.17436  0.19734  1.0000
  I   I28       1.0  0.57529  0.38678  0.12718  1.0000
  I   I29       1.0  0.65587  0.41630  0.52028  1.0000
  I   I30       1.0  0.61183  0.41378  0.85200  1.0000
  I   I31       1.0  0.55815  0.60811  0.28619  1.0000
  I   I32       1.0  0.66841  0.58908  0.73238  1.0000
  I   I33       1.0  0.65772  0.59037  0.02263  1.0000
  I   I34       1.0  0.66285  0.79158  0.25481  1.0000
  I   I35       1.0  0.67731  0.76890  0.55625  1.0000
  I   I36       1.0  0.68943  0.76236  0.88143  1.0000
  I   I37       1.0  0.76656  0.19718  0.15067  1.0000
  I   I38       1.0  0.77210  0.19607  0.49021  1.0000
  I   I39       1.0  0.78580  0.16171  0.81659  1.0000
  I   I40       1.0  0.90182  0.37280  0.48053  1.0000
  I   I41       1.0  0.00902  0.19042  0.35657  1.0000
  I   I42       1.0  0.82289  0.37722  0.07069  1.0000
  I   I43       1.0  0.88635  0.54324  0.34703  1.0000
  I   I44       1.0  0.90425  0.52578  0.66828  1.0000
  I   I45       1.0  0.93274  0.57316  0.90987  1.0000
  I   I46       1.0  0.82431  0.91533  0.37258  1.0000
  I   I47       1.0  0.75400  0.91335  0.65828  1.0000
  I   I48       1.0  0.63565  0.96208  0.95733  1.0000
  I   I49       1.0  0.34243  0.06170  0.54631  1.0000
  I   I50       1.0  0.16934  0.06834  0.01440  1.0000
  I   I51       1.0  0.25380  0.04636  0.30473  1.0000
  I   I52       1.0  0.14811  0.28186  0.22328  1.0000
  I   I53       1.0  0.13515  0.31960  0.58087  1.0000
  I   I54       1.0  0.16599  0.28362  0.91856  1.0000
  I   I55       1.0  0.97990  0.69387  0.50961  1.0000
  I   I56       1.0  0.92053  0.82589  0.66541  1.0000
  I   I57       1.0  0.90917  0.73112  0.18997  1.0000
  I   I58       1.0  0.03306  0.97100  0.28477  1.0000
  I   I59       1.0  0.92344  0.91169  0.45772  1.0000
  I   I60       1.0  0.13221  0.79403  0.75051  1.0000
  I   I61       1.0  0.41060  0.28570  0.06688  1.0000
  I   I62       1.0  0.41273  0.27162  0.39228  1.0000
  I   I63       1.0  0.48305  0.15426  0.82853  1.0000
  I   I64       1.0  0.33570  0.47681  0.87448  1.0000
  I   I65       1.0  0.17943  0.53023  0.07321  1.0000
  I   I66       1.0  0.14111  0.47181  0.37311  1.0000
  I   I67       1.0  0.29648  0.77373  0.13122  1.0000
  I   I68       1.0  0.44414  0.64555  0.76300  1.0000
  I   I69       1.0  0.23198  0.67624  0.26460  1.0000
  I   I70       1.0  0.39200  0.86735  0.71422  1.0000
  I   I71       1.0  0.48445  0.93945  0.06600  1.0000
  I   I72       1.0  0.50841  0.77030  0.23330  1.0000
  I   I73       1.0  0.59052  0.23817  0.41361  1.0000
  I   I74       1.0  0.58278  0.23648  0.75039  1.0000
  I   I75       1.0  0.57450  0.24228  0.09115  1.0000
  I   I76       1.0  0.59227  0.46099  0.06004  1.0000
  I   I77       1.0  0.49119  0.41556  0.17974  1.0000
  I   I78       1.0  0.62933  0.47107  0.74727  1.0000
  I   I79       1.0  0.58598  0.66807  0.22975  1.0000
  I   I80       1.0  0.55883  0.58743  0.50420  1.0000
  I   I81       1.0  0.69582  0.64185  0.92906  1.0000
  I   I82       1.0  0.73228  0.78585  0.10140  1.0000
  I   I83       1.0  0.70999  0.83417  0.42645  1.0000
  I   I84       1.0  0.70459  0.80677  0.74517  1.0000
  I   I85       1.0  0.83277  0.19475  0.01225  1.0000
  I   I86       1.0  0.82434  0.20168  0.36824  1.0000
  I   I87       1.0  0.84573  0.18422  0.69051  1.0000
  I   I88       1.0  0.89205  0.38308  0.89587  1.0000
  I   I89       1.0  0.93077  0.25135  0.50289  1.0000
  I   I90       1.0  0.07430  0.08847  0.53727  1.0000
  I   I91       1.0  0.98075  0.56786  0.10651  1.0000
  I   I92       1.0  0.95774  0.46273  0.54394  1.0000
  I   I93       1.0  0.98888  0.48692  0.84007  1.0000
  I   I94       1.0  0.58110  0.00229  0.13775  1.0000
  I   I95       1.0  0.73892  0.98080  0.54673  1.0000
  I   I96       1.0  0.64724  0.99667  0.78786  1.0000
  I   I97       1.0  0.34159  0.01515  0.38474  1.0000
  I   I98       1.0  0.34910  0.04960  0.74195  1.0000
  I   I99       1.0  0.25353  0.02339  0.14141  1.0000
  I   I100      1.0  0.21110  0.26197  0.06694  1.0000
  I   I101      1.0  0.18625  0.21594  0.36004  1.0000
  I   I102      1.0  0.18645  0.28402  0.75334  1.0000
  I   I103      1.0  0.96799  0.73640  0.34845  1.0000
  I   I104      1.0  0.01894  0.60735  0.60416  1.0000
  I   I105      1.0  0.87007  0.81471  0.10293  1.0000
  I   I106      1.0  0.10738  0.84559  0.89497  1.0000
  I   I107      1.0  0.02094  0.89710  0.31003  1.0000
  I   I108      1.0  0.13906  0.87120  0.72773  1.0000
  I   I109      1.0  0.43789  0.18144  0.01482  1.0000
  I   I110      1.0  0.44219  0.26999  0.24496  1.0000
  I   I111      1.0  0.49025  0.08668  0.69108  1.0000
  I   I112      1.0  0.42241  0.46045  0.85977  1.0000
  I   I113      1.0  0.27103  0.50235  0.03711  1.0000
  I   I114      1.0  0.14436  0.52849  0.23908  1.0000
  I   I115      1.0  0.30065  0.70474  0.23479  1.0000
  I   I116      1.0  0.35687  0.80684  0.09506  1.0000
  I   I117      1.0  0.45777  0.59525  0.92997  1.0000
  I   I118      1.0  0.47184  0.76555  0.73507  1.0000
  I   I119      1.0  0.29009  0.92315  0.65684  1.0000
  I   I120      1.0  0.43869  0.90212  0.20098  1.0000
  I   I121      1.0  0.62417  0.24436  0.23427  1.0000
  I   I122      1.0  0.62519  0.23440  0.59406  1.0000
  I   I123      1.0  0.61362  0.24347  0.90373  1.0000
  I   I124      1.0  0.65843  0.44616  0.93253  1.0000
  I   I125      1.0  0.60210  0.42238  0.23258  1.0000
  I   I126      1.0  0.67988  0.46068  0.61398  1.0000
  I   I127      1.0  0.70002  0.62064  0.10894  1.0000
  I   I128      1.0  0.57725  0.65470  0.40040  1.0000
  I   I129      1.0  0.73967  0.59716  0.75775  1.0000
  I   I130      1.0  0.76326  0.76075  0.90415  1.0000
  I   I131      1.0  0.80839  0.72913  0.20345  1.0000
  I   I132      1.0  0.74296  0.79762  0.58065  1.0000
  I   I133      1.0  0.86266  0.13185  0.87733  1.0000
  I   I134      1.0  0.84980  0.17357  0.21637  1.0000
  I   I135      1.0  0.85724  0.15328  0.51334  1.0000
  I   I136      1.0  0.18107  0.09586  0.45025  1.0000
  I   I137      1.0  0.97097  0.31914  0.96747  1.0000
  I   I138      1.0  0.02237  0.18692  0.51821  1.0000
  I   I139      1.0  0.97609  0.50312  0.01653  1.0000
  I   I140      1.0  0.93845  0.44483  0.37876  1.0000
  I   I141      1.0  0.96169  0.44116  0.74139  1.0000
  I   I142      1.0  0.61411  0.03714  0.98932  1.0000
  I   I143      1.0  0.79093  0.98881  0.41821  1.0000
  I   I144      1.0  0.72410  0.99140  0.69501  1.0000
  I   I145      1.0  0.36184  0.97797  0.53999  1.0000
  I   I146      1.0  0.19197  0.98908  0.96206  1.0000
  I   I147      1.0  0.25428  0.97344  0.28655  1.0000
  I   I148      1.0  0.23337  0.19661  0.20484  1.0000
  I   I149      1.0  0.17258  0.22739  0.55120  1.0000
  I   I150      1.0  0.21224  0.20882  0.86590  1.0000
  I   I151      1.0  0.04385  0.64513  0.37924  1.0000
  I   I152      1.0  0.88981  0.77594  0.63692  1.0000
  I   I153      1.0  0.97727  0.69506  0.10077  1.0000
  I   I154      1.0  0.94161  0.00049  0.19599  1.0000
  I   I155      1.0  0.07175  0.93521  0.59063  1.0000
  I   I156      1.0  0.21333  0.78359  0.74188  1.0000
  I   I157      1.0  0.36744  0.23777  0.10602  1.0000
  I   I158      1.0  0.41496  0.17364  0.51904  1.0000
  I   I159      1.0  0.41301  0.13240  0.83765  1.0000
  I   I160      1.0  0.39073  0.39461  0.93198  1.0000
  I   I161      1.0  0.23565  0.43425  0.08508  1.0000
  I   I162      1.0  0.47343  0.44106  0.64328  1.0000
  I   I163      1.0  0.28615  0.80196  0.28433  1.0000
  I   I164      1.0  0.37858  0.61566  0.00707  1.0000
  I   I165      1.0  0.22950  0.68134  0.41376  1.0000
  I   I166      1.0  0.37705  0.80245  0.77119  1.0000
  I   I167      1.0  0.47770  0.88247  0.97378  1.0000
  I   I168      1.0  0.48940  0.72006  0.48437  1.0000
  I   I169      1.0  0.65901  0.17563  0.36085  1.0000
  I   I170      1.0  0.63873  0.14977  0.72057  1.0000
  I   I171      1.0  0.64368  0.16648  0.02822  1.0000
  I   I172      1.0  0.63653  0.37719  0.00945  1.0000
  I   I173      1.0  0.71398  0.45249  0.46627  1.0000
  I   I174      1.0  0.68812  0.38635  0.71372  1.0000
  I   I175      1.0  0.64364  0.58265  0.19828  1.0000
  I   I176      1.0  0.64862  0.63224  0.58223  1.0000
  I   I177      1.0  0.72500  0.55685  0.89343  1.0000
  I   I178      1.0  0.74573  0.71200  0.01424  1.0000
  I   I179      1.0  0.72033  0.76082  0.37866  1.0000
  I   I180      1.0  0.70796  0.72759  0.71845  1.0000
  I   I181      1.0  0.79490  0.15149  0.99738  1.0000
  I   I182      1.0  0.77885  0.15811  0.32656  1.0000
  I   I183      1.0  0.81698  0.12774  0.66332  1.0000
  I   I184      1.0  0.88189  0.40858  0.03183  1.0000
  I   I185      1.0  0.95633  0.28622  0.35800  1.0000
  I   I186      1.0  0.09279  0.13702  0.43120  1.0000
  I   I187      1.0  0.94462  0.53846  0.23398  1.0000
  I   I188      1.0  0.87438  0.49442  0.51051  1.0000
  I   I189      1.0  0.89280  0.53031  0.81698  1.0000
  I   I190      1.0  0.75662  0.95593  0.21534  1.0000
  I   I191      1.0  0.82678  0.92228  0.54809  1.0000
  I   I192      1.0  0.72267  0.94202  0.82986  1.0000
  I   I193      1.0  0.42267  0.00586  0.62994  1.0000
  I   I194      1.0  0.25028  0.03006  0.95849  1.0000
  I   I195      1.0  0.33818  0.96292  0.24475  1.0000
  I   I196      1.0  0.16957  0.30144  0.36118  1.0000
  I   I197      1.0  0.22718  0.28054  0.60163  1.0000
  I   I198      1.0  0.25188  0.26616  0.91828  1.0000
  I   I199      1.0  0.08578  0.63248  0.55293  1.0000
  I   I200      1.0  0.90561  0.82319  0.82839  1.0000
  I   I201      1.0  0.96142  0.78357  0.20732  1.0000
  I   I202      1.0  0.99825  0.92459  0.15884  1.0000
  I   I203      1.0  0.15172  0.93857  0.61183  1.0000
  I   I204      1.0  0.17346  0.87262  0.87129  1.0000
  I   I205      1.0  0.45859  0.19901  0.17088  1.0000
  I   I206      1.0  0.51061  0.09464  0.51314  1.0000
  I   I207      1.0  0.46910  0.08528  0.97507  1.0000
  I   I208      1.0  0.36859  0.47480  0.02235  1.0000
  I   I209      1.0  0.24219  0.49802  0.20615  1.0000
  I   I210      1.0  0.44233  0.52396  0.74470  1.0000
  I   I211      1.0  0.36874  0.77085  0.25096  1.0000
  I   I212      1.0  0.46882  0.66168  0.99524  1.0000
  I   I213      1.0  0.31188  0.61939  0.31934  1.0000
  I   I214      1.0  0.32587  0.90046  0.81715  1.0000
  I   I215      1.0  0.51105  0.84625  0.14384  1.0000
  I   I216      1.0  0.55168  0.71904  0.62567  1.0000
  I   I217      1.0  0.66952  0.24731  0.47084  1.0000
  I   I218      1.0  0.66310  0.23124  0.75626  1.0000
  I   I219      1.0  0.65688  0.23939  0.07167  1.0000
  I   I220      1.0  0.67580  0.41671  0.12808  1.0000
  I   I221      1.0  0.76943  0.38811  0.60030  1.0000
  I   I222      1.0  0.70990  0.43568  0.81790  1.0000
  I   I223      1.0  0.67141  0.60412  0.34553  1.0000
  I   I224      1.0  0.73445  0.63243  0.59329  1.0000
  I   I225      1.0  0.77655  0.59300  0.01589  1.0000
  I   I226      1.0  0.83732  0.68722  0.06083  1.0000
  I   I227      1.0  0.80190  0.76805  0.43852  1.0000
  I   I228      1.0  0.78775  0.73791  0.73226  1.0000
  I   I229      1.0  0.89232  0.11619  0.09586  1.0000
  I   I230      1.0  0.87850  0.10907  0.36171  1.0000
  I   I231      1.0  0.90123  0.09291  0.71320  1.0000
  I   I232      1.0  0.88403  0.30705  0.97032  1.0000
  I   I233      1.0  0.97550  0.29718  0.50534  1.0000
  I   I234      1.0  0.15787  0.02290  0.48238  1.0000
  I   I235      1.0  0.99357  0.43581  0.25164  1.0000
  I   I236      1.0  0.93747  0.40204  0.60854  1.0000
  I   I237      1.0  0.95019  0.44918  0.93172  1.0000
  I   I238      1.0  0.72407  0.03659  0.28546  1.0000
  I   I239      1.0  0.81272  0.99183  0.62453  1.0000
  I   I240      1.0  0.68328  0.04100  0.87088  1.0000
  I   I241      1.0  0.37552  0.96343  0.69136  1.0000
  I   I242      1.0  0.28421  0.95132  0.03791  1.0000
  I   I243      1.0  0.33711  0.91809  0.38532  1.0000
  I   I244      1.0  0.25630  0.25583  0.29829  1.0000
  I   I245      1.0  0.23903  0.20154  0.68525  1.0000
  I   I246      1.0  0.28299  0.18264  0.98176  1.0000
  I   I247      1.0  0.07971  0.56034  0.48851  1.0000
  I   I248      1.0  0.93222  0.73127  0.78860  1.0000
  I   I249      1.0  0.02825  0.69653  0.22541  1.0000
  I   I250      1.0  0.93168  0.93453  0.28635  1.0000
  I   I251      1.0  0.14069  0.88327  0.48178  1.0000
  I   I252      1.0  0.19730  0.77521  0.89014  1.0000
  I   I253      1.0  0.38482  0.22956  0.27782  1.0000
  I   I254      1.0  0.44150  0.07959  0.55729  1.0000
  I   I255      1.0  0.38269  0.14147  0.04028  1.0000
  I   I256      1.0  0.34700  0.40616  0.09486  1.0000
  I   I257      1.0  0.20341  0.43825  0.24574  1.0000
  I   I258      1.0  0.51008  0.43141  0.79314  1.0000
  I   I259      1.0  0.31272  0.87138  0.21654  1.0000
  I   I260      1.0  0.52273  0.62517  0.85262  1.0000
  I   I261      1.0  0.29113  0.70564  0.42968  1.0000
  I   I262      1.0  0.28312  0.85099  0.74954  1.0000
  I   I263      1.0  0.42653  0.85922  0.06815  1.0000
  I   I264      1.0  0.51503  0.66355  0.62445  1.0000
  I   I265      1.0  0.70097  0.15105  0.50799  1.0000
  I   I266      1.0  0.69284  0.15957  0.85691  1.0000
  I   I267      1.0  0.69344  0.15196  0.16037  1.0000
  I   I268      1.0  0.66870  0.33809  0.16400  1.0000
  I   I269      1.0  0.73524  0.35591  0.45515  1.0000
  I   I270      1.0  0.70329  0.34893  0.86797  1.0000
  I   I271      1.0  0.63011  0.55995  0.38393  1.0000
  I   I272      1.0  0.72520  0.55488  0.59427  1.0000
  I   I273      1.0  0.74860  0.53262  0.07522  1.0000
  I   I274      1.0  0.76829  0.67346  0.17470  1.0000
  I   I275      1.0  0.77179  0.70935  0.50675  1.0000
  I   I276      1.0  0.78400  0.67364  0.81991  1.0000
  I   I277      1.0  0.82134  0.10415  0.13318  1.0000
  I   I278      1.0  0.81890  0.09710  0.47103  1.0000
  I   I279      1.0  0.84040  0.07234  0.79082  1.0000
  I   I280      1.0  0.93091  0.31070  0.11034  1.0000
  I   I281      1.0  0.04406  0.24296  0.40386  1.0000
  I   I282      1.0  0.15115  0.08070  0.61237  1.0000
  I   I283      1.0  0.90119  0.48120  0.22970  1.0000
  I   I284      1.0  0.87185  0.46815  0.69153  1.0000
  I   I285      1.0  0.87638  0.53746  0.97338  1.0000
  I   I286      1.0  0.81688  0.98337  0.25136  1.0000
  I   I287      1.0  0.81902  0.91938  0.73224  1.0000
  I   I288      1.0  0.71503  0.97095  0.98235  1.0000
  I   I289      1.0  0.28783  0.03663  0.60243  1.0000
  I   I290      1.0  0.12484  0.06105  0.84877  1.0000
  I   I291      1.0  0.16729  0.04228  0.31624  1.0000
  I   I292      1.0  0.15090  0.18841  0.19157  1.0000
  I   I293      1.0  0.05820  0.32283  0.63294  1.0000
  I   I294      1.0  0.10855  0.24105  0.87081  1.0000
  I   I295      1.0  0.99303  0.61627  0.45427  1.0000
  I   I296      1.0  0.00855  0.78920  0.66422  1.0000
  I   I297      1.0  0.94767  0.78084  0.00139  1.0000
  I   I298      1.0  0.89305  0.99909  0.06696  1.0000
  I   I299      1.0  0.01807  0.88015  0.46910  1.0000
  I   I300      1.0  0.18603  0.75196  0.61765  1.0000
  I   I301      1.0  0.33544  0.29884  0.97500  1.0000
  I   I302      1.0  0.33031  0.33194  0.38901  1.0000
  I   I303      1.0  0.40096  0.21358  0.74798  1.0000
  I   I304      1.0  0.34388  0.40651  0.78472  1.0000
  I   I305      1.0  0.19583  0.45832  0.95216  1.0000
  I   I306      1.0  0.13412  0.41092  0.28675  1.0000
  I   I307      1.0  0.19487  0.82303  0.22589  1.0000
  I   I308      1.0  0.39096  0.69384  0.93183  1.0000
  I   I309      1.0  0.25449  0.57799  0.27982  1.0000
  I   I310      1.0  0.36073  0.82980  0.61522  1.0000
  I   I311      1.0  0.42211  0.01791  0.99171  1.0000
  I   I312      1.0  0.42272  0.83699  0.26201  1.0000
  I   I313      1.0  0.58628  0.16506  0.35208  1.0000
  I   I314      1.0  0.55762  0.17186  0.69852  1.0000
  I   I315      1.0  0.56939  0.15884  0.01587  1.0000
  I   I316      1.0  0.53329  0.46457  0.93808  1.0000
  I   I317      1.0  0.51691  0.47172  0.28622  1.0000
  I   I318      1.0  0.60665  0.40197  0.64950  1.0000
  I   I319      1.0  0.57071  0.63013  0.08886  1.0000
  I   I320      1.0  0.59779  0.50455  0.42323  1.0000
  I   I321      1.0  0.62638  0.64176  0.87956  1.0000
  I   I322      1.0  0.65620  0.79317  0.03282  1.0000
  I   I323      1.0  0.62433  0.84279  0.39336  1.0000
  I   I324      1.0  0.61952  0.78767  0.71576  1.0000
  I   I325      1.0  0.74941  0.24735  0.89280  1.0000
  I   I326      1.0  0.72841  0.24610  0.32129  1.0000
  I   I327      1.0  0.75293  0.22257  0.64242  1.0000
  I   I328      1.0  0.79722  0.45297  0.96331  1.0000
  I   I329      1.0  0.84443  0.34159  0.46913  1.0000
  I   I330      1.0  0.05248  0.08164  0.37907  1.0000
  I   I331      1.0  0.95998  0.62823  0.99095  1.0000
  I   I332      1.0  0.89863  0.55992  0.50018  1.0000
  I   I333      1.0  0.94620  0.57534  0.74432  1.0000
  I   I334      1.0  0.66686  0.00829  0.13453  1.0000
  I   I335      1.0  0.77662  0.88090  0.48620  1.0000
  I   I336      1.0  0.67507  0.90444  0.72491  1.0000
  I   I337      1.0  0.26729  0.09612  0.47899  1.0000
  I   I338      1.0  0.17773  0.09989  0.86799  1.0000
  I   I339      1.0  0.17237  0.09640  0.19313  1.0000
  I   I340      1.0  0.11919  0.27486  0.08952  1.0000
  I   I341      1.0  0.07576  0.31725  0.47193  1.0000
  I   I342      1.0  0.09285  0.31612  0.79492  1.0000
  I   I343      1.0  0.90982  0.70187  0.42089  1.0000
  I   I344      1.0  0.97082  0.86362  0.76886  1.0000
  I   I345      1.0  0.88412  0.74830  0.99867  1.0000
  I   I346      1.0  0.97245  0.01595  0.03906  1.0000
  I   I347      1.0  0.98331  0.83197  0.36623  1.0000
  I   I348      1.0  0.11136  0.83988  0.58648  1.0000
  I   I349      1.0  0.42681  0.25816  0.90980  1.0000
  I   I350      1.0  0.39222  0.36023  0.33193  1.0000
  I   I351      1.0  0.48248  0.16003  0.65464  1.0000
  I   I352      1.0  0.39262  0.46124  0.71278  1.0000
  I   I353      1.0  0.20718  0.52653  0.91151  1.0000
  I   I354      1.0  0.07167  0.49272  0.24178  1.0000
  I   I355      1.0  0.22505  0.75680  0.13018  1.0000
  I   I356      1.0  0.41027  0.66580  0.11379  1.0000
  I   I357      1.0  0.27427  0.58433  0.44532  1.0000
  I   I358      1.0  0.45604  0.80149  0.58666  1.0000
  I   I359      1.0  0.48052  0.95008  0.90108  1.0000
  I   I360      1.0  0.49953  0.84459  0.33352  1.0000
  I   I361      1.0  0.53789  0.25506  0.27006  1.0000
  I   I362      1.0  0.53730  0.24286  0.60401  1.0000
  I   I363      1.0  0.52892  0.24053  0.93467  1.0000
  I   I364      1.0  0.57457  0.50978  0.89658  1.0000
  I   I365      1.0  0.55891  0.37444  0.31952  1.0000
  I   I366      1.0  0.58285  0.49502  0.62536  1.0000
  I   I367      1.0  0.61074  0.68893  0.05763  1.0000
  I   I368      1.0  0.51301  0.56809  0.38490  1.0000
  I   I369      1.0  0.66006  0.66647  0.74070  1.0000
  I   I370      1.0  0.69352  0.84588  0.95164  1.0000
  I   I371      1.0  0.68568  0.86800  0.26889  1.0000
  I   I372      1.0  0.63964  0.85655  0.63253  1.0000
  I   I373      1.0  0.83660  0.21172  0.84351  1.0000
  I   I374      1.0  0.79860  0.26031  0.22945  1.0000
  I   I375      1.0  0.81515  0.23999  0.55977  1.0000
  I   I376      1.0  0.80869  0.37241  0.90295  1.0000
  I   I377      1.0  0.89752  0.31944  0.62190  1.0000
  I   I378      1.0  0.98253  0.13382  0.48066  1.0000
  I   I379      1.0  0.03057  0.54821  0.93832  1.0000
  I   I380      1.0  0.97591  0.50396  0.39487  1.0000
  I   I381      1.0  0.00584  0.49651  0.67275  1.0000
  I   I382      1.0  0.66515  0.92522  0.10926  1.0000
  I   I383      1.0  0.73060  0.95291  0.38170  1.0000
  I   I384      1.0  0.65692  0.96962  0.61474  1.0000
