data_image0
_chemical_formula_structural       Ti96I384
_chemical_formula_sum              "Ti96 I384"
_cell_length_a       59.5016
_cell_length_b       59.919
_cell_length_c       29.018
_cell_angle_alpha    88.7757
_cell_angle_beta     88.7757
_cell_angle_gamma    62.1586

_space_group_name_H-M_alt    "P 1"
_space_group_IT_number       1

loop_
  _space_group_symop_operation_xyz
  'x, y, z'

loop_
  _atom_site_type_symbol
  _atom_site_label
  _atom_site_symmetry_multiplicity
  _atom_site_fract_x
  _atom_site_fract_y
  _atom_site_fract_z
  _atom_site_occupancy
  Ti  Ti1       1.0  0.91752  0.84543  0.74522  1.0000
  Ti  Ti2       1.0  0.75895  0.05492  0.67340  1.0000
  Ti  Ti3       1.0  0.78727  0.84624  0.79547  1.0000
  Ti  Ti4       1.0  0.40809  0.50195  0.39814  1.0000
  Ti  Ti5       1.0  0.05623  0.73810  0.20514  1.0000
  Ti  Ti6       1.0  0.35704  0.00669  0.16039  1.0000
  Ti  Ti7       1.0  0.08741  0.84941  0.02670  1.0000
  Ti  Ti8       1.0  0.21496  0.60336  0.21848  1.0000
  Ti  Ti9       1.0  0.78587  0.21874  0.31596  1.0000
  Ti  Ti10      1.0  0.72903  0.04384  0.39303  1.0000
  Ti  Ti11      1.0  0.06132  0.70421  0.93128  1.0000
  Ti  Ti12      1.0  0.43464  0.75399  0.17537  1.0000
  Ti  Ti13      1.0  0.39973  0.25618  0.55743  1.0000
  Ti  Ti14      1.0  0.08406  0.24063  0.98062  1.0000
  Ti  Ti15      1.0  0.25917  0.84517  0.89857  1.0000
  Ti  Ti16      1.0  0.84873  0.25215  0.64188  1.0000
  Ti  Ti17      1.0  0.10339  0.51632  0.99468  1.0000
  Ti  Ti18      1.0  0.99320  0.44022  0.44531  1.0000
  Ti  Ti19      1.0  0.68855  0.89268  0.34958  1.0000
  Ti  Ti20      1.0  0.48000  0.04693  0.99088  1.0000
  Ti  Ti21      1.0  0.31986  0.48568  0.75412  1.0000
  Ti  Ti22      1.0  0.49761  0.94431  0.32789  1.0000
  Ti  Ti23      1.0  0.49774  0.82208  0.86861  1.0000
  Ti  Ti24      1.0  0.41024  0.03881  0.51291  1.0000
  Ti  Ti25      1.0  0.15755  0.35877  0.29538  1.0000
  Ti  Ti26      1.0  0.21314  0.36745  0.65066  1.0000
  Ti  Ti27      1.0  0.45777  0.55677  0.68160  1.0000
  Ti  Ti28      1.0  0.64160  0.61433  0.70327  1.0000
  Ti  Ti29      1.0  0.99049  0.29163  0.39076  1.0000
  Ti  Ti30      1.0  0.80777  0.44463  0.87664  1.0000
  Ti  Ti31      1.0  0.80175  0.42998  0.32311  1.0000
  Ti  Ti32      1.0  0.88693  0.00478  0.05352  1.0000
  Ti  Ti33      1.0  0.40069  0.85876  0.54846  1.0000
  Ti  Ti34      1.0  0.87114  0.72665  0.52417  1.0000
  Ti  Ti35      1.0  0.69466  0.37400  0.06988  1.0000
  Ti  Ti36      1.0  0.90109  0.55006  0.71415  1.0000
  Ti  Ti37      1.0  0.11116  0.17219  0.59391  1.0000
  Ti  Ti38      1.0  0.54613  0.26283  0.42396  1.0000
  Ti  Ti39      1.0  0.39164  0.25766  0.19158  1.0000
  Ti  Ti40      1.0  0.12679  0.51598  0.25712  1.0000
  Ti  Ti41      1.0  0.62466  0.60465  0.42666  1.0000
  Ti  Ti42      1.0  0.27280  0.76172  0.66395  1.0000
  Ti  Ti43      1.0  0.10336  0.99246  0.39844  1.0000
  Ti  Ti44      1.0  0.74500  0.69135  0.95038  1.0000
  Ti  Ti45      1.0  0.76549  0.38274  0.66242  1.0000
  Ti  Ti46      1.0  0.94672  0.01728  0.33084  1.0000
  Ti  Ti47      1.0  0.60786  0.24809  0.11534  1.0000
  Ti  Ti48      1.0  0.46033  0.54469  0.10252  1.0000
  Ti  Ti49      1.0  0.87729  0.90750  0.70687  1.0000
  Ti  Ti50      1.0  0.59822  0.11264  0.07250  1.0000
  Ti  Ti51      1.0  0.74086  0.00215  0.63517  1.0000
  Ti  Ti52      1.0  0.45756  0.43855  0.42461  1.0000
  Ti  Ti53      1.0  0.00375  0.79153  0.13403  1.0000
  Ti  Ti54      1.0  0.32699  0.07374  0.18164  1.0000
  Ti  Ti55      1.0  0.05581  0.89953  0.90757  1.0000
  Ti  Ti56      1.0  0.25048  0.64502  0.18506  1.0000
  Ti  Ti57      1.0  0.82372  0.17559  0.24028  1.0000
  Ti  Ti58      1.0  0.09706  0.92989  0.41586  1.0000
  Ti  Ti59      1.0  0.72355  0.09821  0.39375  1.0000
  Ti  Ti60      1.0  0.43630  0.69282  0.08824  1.0000
  Ti  Ti61      1.0  0.27863  0.79089  0.93104  1.0000
  Ti  Ti62      1.0  0.40169  0.20632  0.52230  1.0000
  Ti  Ti63      1.0  0.11745  0.17737  0.06498  1.0000
  Ti  Ti64      1.0  0.99701  0.44042  0.31568  1.0000
  Ti  Ti65      1.0  0.93604  0.19917  0.63074  1.0000
  Ti  Ti66      1.0  0.59911  0.30622  0.84696  1.0000
  Ti  Ti67      1.0  0.72595  0.82137  0.30568  1.0000
  Ti  Ti68      1.0  0.47730  0.08179  0.89883  1.0000
  Ti  Ti69      1.0  0.29590  0.44896  0.79699  1.0000
  Ti  Ti70      1.0  0.46401  0.96762  0.46653  1.0000
  Ti  Ti71      1.0  0.46336  0.82273  0.94373  1.0000
  Ti  Ti72      1.0  0.92819  0.84660  0.43755  1.0000
  Ti  Ti73      1.0  0.38779  0.57672  0.76570  1.0000
  Ti  Ti74      1.0  0.22093  0.30568  0.30835  1.0000
  Ti  Ti75      1.0  0.13907  0.39518  0.69364  1.0000
  Ti  Ti76      1.0  0.79439  0.50512  0.88862  1.0000
  Ti  Ti77      1.0  0.58904  0.65023  0.69316  1.0000
  Ti  Ti78      1.0  0.05023  0.22743  0.37662  1.0000
  Ti  Ti79      1.0  0.44168  0.84367  0.48024  1.0000
  Ti  Ti80      1.0  0.76187  0.41737  0.24674  1.0000
  Ti  Ti81      1.0  0.86941  0.96803  0.00829  1.0000
  Ti  Ti82      1.0  0.88680  0.67744  0.60297  1.0000
  Ti  Ti83      1.0  0.70765  0.38783  0.98331  1.0000
  Ti  Ti84      1.0  0.95120  0.53492  0.75956  1.0000
  Ti  Ti85      1.0  0.13971  0.22933  0.55692  1.0000
  Ti  Ti86      1.0  0.53267  0.21974  0.48350  1.0000
  Ti  Ti87      1.0  0.35401  0.27791  0.06980  1.0000
  Ti  Ti88      1.0  0.06157  0.54866  0.16912  1.0000
  Ti  Ti89      1.0  0.62947  0.61724  0.28577  1.0000
  Ti  Ti90      1.0  0.23560  0.76800  0.56912  1.0000
  Ti  Ti91      1.0  0.70348  0.39961  0.69475  1.0000
  Ti  Ti92      1.0  0.99787  0.11991  0.01237  1.0000
  Ti  Ti93      1.0  0.77542  0.72475  0.01567  1.0000
  Ti  Ti94      1.0  0.38558  0.56481  0.02018  1.0000
  Ti  Ti95      1.0  0.92712  0.00375  0.43418  1.0000
  Ti  Ti96      1.0  0.60453  0.20632  0.01881  1.0000
  I   I1        1.0  0.63709  0.08199  0.01866  1.0000
  I   I2        1.0  0.78157  0.96884  0.60036  1.0000
  I   I3        1.0  0.87321  0.86872  0.66456  1.0000
  I   I4        1.0  0.00092  0.83345  0.09732  1.0000
  I   I5        1.0  0.35909  0.97750  0.22711  1.0000
  I   I6        1.0  0.31615  0.11104  0.25257  1.0000
  I   I7        1.0  0.28737  0.60585  0.14921  1.0000
  I   I8        1.0  0.23642  0.55419  0.20039  1.0000
  I   I9        1.0  0.75618  0.21288  0.37964  1.0000
  I   I10       1.0  0.69978  0.03094  0.44489  1.0000
  I   I11       1.0  0.07727  0.65990  0.89613  1.0000
  I   I12       1.0  0.09735  0.70583  0.15982  1.0000
  I   I13       1.0  0.43437  0.21064  0.59391  1.0000
  I   I14       1.0  0.03705  0.27455  0.99239  1.0000
  I   I15       1.0  0.24889  0.83054  0.98609  1.0000
  I   I16       1.0  0.89255  0.22535  0.56808  1.0000
  I   I17       1.0  0.60445  0.31597  0.75981  1.0000
  I   I18       1.0  0.99232  0.40264  0.39418  1.0000
  I   I19       1.0  0.46978  0.12423  0.93626  1.0000
  I   I20       1.0  0.02653  0.71828  0.00213  1.0000
  I   I21       1.0  0.34455  0.42531  0.77662  1.0000
  I   I22       1.0  0.46514  0.87512  0.89747  1.0000
  I   I23       1.0  0.44141  0.83102  0.86159  1.0000
  I   I24       1.0  0.41456  0.98765  0.50846  1.0000
  I   I25       1.0  0.24114  0.33895  0.29747  1.0000
  I   I26       1.0  0.17212  0.41793  0.67692  1.0000
  I   I27       1.0  0.49974  0.55216  0.71445  1.0000
  I   I28       1.0  0.58839  0.64264  0.60208  1.0000
  I   I29       1.0  0.04241  0.27989  0.41880  1.0000
  I   I30       1.0  0.85477  0.42168  0.90110  1.0000
  I   I31       1.0  0.75171  0.38045  0.24499  1.0000
  I   I32       1.0  0.82127  0.00066  0.00325  1.0000
  I   I33       1.0  0.39075  0.86687  0.44682  1.0000
  I   I34       1.0  0.71118  0.32608  0.10729  1.0000
  I   I35       1.0  0.98434  0.54656  0.72487  1.0000
  I   I36       1.0  0.88427  0.72572  0.61666  1.0000
  I   I37       1.0  0.10232  0.18912  0.67417  1.0000
  I   I38       1.0  0.35524  0.25212  0.15046  1.0000
  I   I39       1.0  0.11483  0.27780  0.54773  1.0000
  I   I40       1.0  0.66353  0.55996  0.45685  1.0000
  I   I41       1.0  0.28098  0.73486  0.57014  1.0000
  I   I42       1.0  0.05683  0.58312  0.10829  1.0000
  I   I43       1.0  0.07234  0.95899  0.48087  1.0000
  I   I44       1.0  0.78652  0.76043  0.01897  1.0000
  I   I45       1.0  0.76566  0.34996  0.59836  1.0000
  I   I46       1.0  0.98462  0.00189  0.39068  1.0000
  I   I47       1.0  0.58995  0.24000  0.18959  1.0000
  I   I48       1.0  0.47998  0.57515  0.07637  1.0000
  I   I49       1.0  0.91387  0.80964  0.78946  1.0000
  I   I50       1.0  0.74952  0.09786  0.62319  1.0000
  I   I51       1.0  0.79618  0.05421  0.72986  1.0000
  I   I52       1.0  0.36785  0.54044  0.43514  1.0000
  I   I53       1.0  0.00658  0.74550  0.16777  1.0000
  I   I54       1.0  0.34614  0.05372  0.10760  1.0000
  I   I55       1.0  0.13924  0.83127  0.05042  1.0000
  I   I56       1.0  0.23665  0.59686  0.29416  1.0000
  I   I57       1.0  0.86055  0.18266  0.26238  1.0000
  I   I58       1.0  0.77161  0.03422  0.44379  1.0000
  I   I59       1.0  0.76723  0.06345  0.34959  1.0000
  I   I60       1.0  0.43179  0.65538  0.11671  1.0000
  I   I61       1.0  0.44088  0.16318  0.50156  1.0000
  I   I62       1.0  0.37359  0.18769  0.55447  1.0000
  I   I63       1.0  0.13405  0.19443  0.98438  1.0000
  I   I64       1.0  0.83900  0.29728  0.67214  1.0000
  I   I65       1.0  0.93494  0.15676  0.64381  1.0000
  I   I66       1.0  0.63582  0.26745  0.88533  1.0000
  I   I67       1.0  0.76801  0.80519  0.26485  1.0000
  I   I68       1.0  0.47799  0.08000  0.04789  1.0000
  I   I69       1.0  0.29279  0.54225  0.75593  1.0000
  I   I70       1.0  0.51486  0.95653  0.40680  1.0000
  I   I71       1.0  0.51682  0.77243  0.87147  1.0000
  I   I72       1.0  0.90965  0.86427  0.52066  1.0000
  I   I73       1.0  0.39000  0.53356  0.78405  1.0000
  I   I74       1.0  0.11651  0.42530  0.62469  1.0000
  I   I75       1.0  0.11287  0.37076  0.70677  1.0000
  I   I76       1.0  0.68785  0.59077  0.73142  1.0000
  I   I77       1.0  0.65429  0.59008  0.61827  1.0000
  I   I78       1.0  0.00734  0.24000  0.43631  1.0000
  I   I79       1.0  0.48020  0.84942  0.45018  1.0000
  I   I80       1.0  0.81762  0.38058  0.27115  1.0000
  I   I81       1.0  0.91710  0.95258  0.04741  1.0000
  I   I82       1.0  0.83881  0.70215  0.55865  1.0000
  I   I83       1.0  0.64911  0.38179  0.09861  1.0000
  I   I84       1.0  0.92265  0.56969  0.81768  1.0000
  I   I85       1.0  0.09781  0.22062  0.57227  1.0000
  I   I86       1.0  0.50342  0.20387  0.43668  1.0000
  I   I87       1.0  0.37379  0.29588  0.25188  1.0000
  I   I88       1.0  0.13157  0.53978  0.33134  1.0000
  I   I89       1.0  0.64002  0.65307  0.26165  1.0000
  I   I90       1.0  0.23168  0.74814  0.65876  1.0000
  I   I91       1.0  0.68899  0.36943  0.65313  1.0000
  I   I92       1.0  0.96179  0.15582  0.05344  1.0000
  I   I93       1.0  0.79846  0.69839  0.93789  1.0000
  I   I94       1.0  0.46289  0.54464  0.19274  1.0000
  I   I95       1.0  0.96393  0.97298  0.48776  1.0000
  I   I96       1.0  0.63591  0.19760  0.09073  1.0000
  I   I97       1.0  0.75579  0.89154  0.81987  1.0000
  I   I98       1.0  0.88205  0.88156  0.79506  1.0000
  I   I99       1.0  0.71893  0.07040  0.72635  1.0000
  I   I100      1.0  0.37977  0.51134  0.32601  1.0000
  I   I101      1.0  0.50102  0.42239  0.46796  1.0000
  I   I102      1.0  0.07604  0.75934  0.25242  1.0000
  I   I103      1.0  0.09613  0.81098  0.97979  1.0000
  I   I104      1.0  0.03212  0.94609  0.92301  1.0000
  I   I105      1.0  0.77320  0.18434  0.26252  1.0000
  I   I106      1.0  0.47533  0.74705  0.13664  1.0000
  I   I107      1.0  0.75204  0.00310  0.34560  1.0000
  I   I108      1.0  0.43242  0.70825  0.17915  1.0000
  I   I109      1.0  0.29282  0.82781  0.82702  1.0000
  I   I110      1.0  0.37617  0.22897  0.44544  1.0000
  I   I111      1.0  0.10017  0.23667  0.07103  1.0000
  I   I112      1.0  0.99517  0.47603  0.25194  1.0000
  I   I113      1.0  0.89699  0.22976  0.68534  1.0000
  I   I114      1.0  0.08307  0.53730  0.91970  1.0000
  I   I115      1.0  0.67492  0.90709  0.42999  1.0000
  I   I116      1.0  0.71956  0.78228  0.27966  1.0000
  I   I117      1.0  0.43548  0.08384  0.94403  1.0000
  I   I118      1.0  0.45533  0.95036  0.38399  1.0000
  I   I119      1.0  0.47851  0.93367  0.25165  1.0000
  I   I120      1.0  0.92671  0.80379  0.44653  1.0000
  I   I121      1.0  0.46727  0.51496  0.64176  1.0000
  I   I122      1.0  0.24207  0.27621  0.23885  1.0000
  I   I123      1.0  0.23613  0.38876  0.59678  1.0000
  I   I124      1.0  0.83419  0.50489  0.93714  1.0000
  I   I125      1.0  0.64045  0.65327  0.67335  1.0000
  I   I126      1.0  0.08657  0.20082  0.42825  1.0000
  I   I127      1.0  0.39851  0.85481  0.63700  1.0000
  I   I128      1.0  0.85047  0.42287  0.30720  1.0000
  I   I129      1.0  0.86265  0.97260  0.10270  1.0000
  I   I130      1.0  0.87472  0.53724  0.66138  1.0000
  I   I131      1.0  0.82906  0.76550  0.49203  1.0000
  I   I132      1.0  0.74519  0.35639  0.04513  1.0000
  I   I133      1.0  0.39161  0.22579  0.25680  1.0000
  I   I134      1.0  0.55770  0.21236  0.40055  1.0000
  I   I135      1.0  0.53452  0.28667  0.33606  1.0000
  I   I136      1.0  0.25559  0.79673  0.72818  1.0000
  I   I137      1.0  0.07644  0.52092  0.25903  1.0000
  I   I138      1.0  0.58445  0.60739  0.46759  1.0000
  I   I139      1.0  0.79866  0.37765  0.72208  1.0000
  I   I140      1.0  0.02230  0.08282  0.06559  1.0000
  I   I141      1.0  0.81409  0.69417  0.05799  1.0000
  I   I142      1.0  0.35880  0.60876  0.04222  1.0000
  I   I143      1.0  0.89335  0.03668  0.34438  1.0000
  I   I144      1.0  0.57710  0.29739  0.12380  1.0000
  I   I145      1.0  0.92413  0.90345  0.69570  1.0000
  I   I146      1.0  0.69158  0.03140  0.61962  1.0000
  I   I147      1.0  0.83239  0.81454  0.81914  1.0000
  I   I148      1.0  0.46968  0.39364  0.40560  1.0000
  I   I149      1.0  0.98617  0.80910  0.21614  1.0000
  I   I150      1.0  0.33169  0.98902  0.11584  1.0000
  I   I151      1.0  0.08333  0.89689  0.83564  1.0000
  I   I152      1.0  0.28184  0.64511  0.24729  1.0000
  I   I153      1.0  0.74967  0.25864  0.27397  1.0000
  I   I154      1.0  0.06780  0.97920  0.36734  1.0000
  I   I155      1.0  0.09766  0.69767  0.98786  1.0000
  I   I156      1.0  0.45024  0.75674  0.26143  1.0000
  I   I157      1.0  0.32275  0.77226  0.97602  1.0000
  I   I158      1.0  0.13697  0.12971  0.03802  1.0000
  I   I159      1.0  0.29061  0.76637  0.85335  1.0000
  I   I160      1.0  0.98945  0.48401  0.48041  1.0000
  I   I161      1.0  0.08341  0.48648  0.00534  1.0000
  I   I162      1.0  0.96418  0.47662  0.36988  1.0000
  I   I163      1.0  0.74096  0.81175  0.39000  1.0000
  I   I164      1.0  0.52550  0.05530  0.92434  1.0000
  I   I165      1.0  0.29467  0.47053  0.69330  1.0000
  I   I166      1.0  0.48619  0.92009  0.49924  1.0000
  I   I167      1.0  0.53773  0.82966  0.87799  1.0000
  I   I168      1.0  0.41969  0.07678  0.50545  1.0000
  I   I169      1.0  0.17182  0.36672  0.21544  1.0000
  I   I170      1.0  0.18386  0.33724  0.37711  1.0000
  I   I171      1.0  0.39847  0.59807  0.67674  1.0000
  I   I172      1.0  0.75882  0.55169  0.89085  1.0000
  I   I173      1.0  0.07943  0.22791  0.30372  1.0000
  I   I174      1.0  0.81935  0.42880  0.79725  1.0000
  I   I175      1.0  0.78907  0.45586  0.24507  1.0000
  I   I176      1.0  0.88190  0.96793  0.92032  1.0000
  I   I177      1.0  0.41702  0.89538  0.52718  1.0000
  I   I178      1.0  0.90118  0.74673  0.49745  1.0000
  I   I179      1.0  0.68291  0.35886  0.99311  1.0000
  I   I180      1.0  0.92438  0.56998  0.65999  1.0000
  I   I181      1.0  0.12983  0.12360  0.62843  1.0000
  I   I182      1.0  0.56025  0.17948  0.53121  1.0000
  I   I183      1.0  0.43300  0.23769  0.14133  1.0000
  I   I184      1.0  0.14673  0.47186  0.28748  1.0000
  I   I185      1.0  0.63376  0.63500  0.47393  1.0000
  I   I186      1.0  0.22025  0.81253  0.62915  1.0000
  I   I187      1.0  0.97419  0.10538  0.95580  1.0000
  I   I188      1.0  0.77277  0.65708  0.01098  1.0000
  I   I189      1.0  0.69717  0.42290  0.61261  1.0000
  I   I190      1.0  0.94729  0.06036  0.31454  1.0000
  I   I191      1.0  0.62626  0.15993  0.01080  1.0000
  I   I192      1.0  0.43839  0.53934  0.01102  1.0000
  I   I193      1.0  0.85440  0.94868  0.75713  1.0000
  I   I194      1.0  0.62289  0.13007  0.12990  1.0000
  I   I195      1.0  0.76775  0.81449  0.81265  1.0000
  I   I196      1.0  0.43632  0.48594  0.47543  1.0000
  I   I197      1.0  0.13671  0.93917  0.37956  1.0000
  I   I198      1.0  0.37384  0.04353  0.21941  1.0000
  I   I199      1.0  0.09499  0.88655  0.97106  1.0000
  I   I200      1.0  0.24264  0.67709  0.11728  1.0000
  I   I201      1.0  0.80512  0.23500  0.38029  1.0000
  I   I202      1.0  0.75687  0.11229  0.41693  1.0000
  I   I203      1.0  0.27792  0.42294  0.75065  1.0000
  I   I204      1.0  0.42828  0.69693  0.99268  1.0000
  I   I205      1.0  0.40818  0.28735  0.61680  1.0000
  I   I206      1.0  0.15656  0.16597  0.11140  1.0000
  I   I207      1.0  0.26584  0.75563  0.97305  1.0000
  I   I208      1.0  0.81268  0.27236  0.57966  1.0000
  I   I209      1.0  0.11847  0.54691  0.03546  1.0000
  I   I210      1.0  0.00563  0.42016  0.52587  1.0000
  I   I211      1.0  0.70574  0.86924  0.25856  1.0000
  I   I212      1.0  0.51922  0.00944  0.02655  1.0000
  I   I213      1.0  0.34720  0.46593  0.83550  1.0000
  I   I214      1.0  0.53180  0.89870  0.35374  1.0000
  I   I215      1.0  0.50445  0.81827  0.99090  1.0000
  I   I216      1.0  0.36080  0.06889  0.51198  1.0000
  I   I217      1.0  0.10961  0.36883  0.29603  1.0000
  I   I218      1.0  0.25530  0.34077  0.69239  1.0000
  I   I219      1.0  0.44349  0.55025  0.77249  1.0000
  I   I220      1.0  0.54969  0.64662  0.72915  1.0000
  I   I221      1.0  0.04022  0.18834  0.36281  1.0000
  I   I222      1.0  0.78815  0.41414  0.89541  1.0000
  I   I223      1.0  0.74859  0.43119  0.16041  1.0000
  I   I224      1.0  0.84492  0.04687  0.04134  1.0000
  I   I225      1.0  0.35291  0.89399  0.53687  1.0000
  I   I226      1.0  0.93218  0.67239  0.57589  1.0000
  I   I227      1.0  0.69144  0.41202  0.12048  1.0000
  I   I228      1.0  0.95296  0.49517  0.69910  1.0000
  I   I229      1.0  0.17045  0.23046  0.62425  1.0000
  I   I230      1.0  0.54921  0.30337  0.44187  1.0000
  I   I231      1.0  0.31419  0.31700  0.09560  1.0000
  I   I232      1.0  0.16735  0.50559  0.20511  1.0000
  I   I233      1.0  0.60603  0.64420  0.36180  1.0000
  I   I234      1.0  0.21563  0.75461  0.50277  1.0000
  I   I235      1.0  0.12677  0.98570  0.46890  1.0000
  I   I236      1.0  0.75628  0.67707  0.86451  1.0000
  I   I237      1.0  0.78209  0.40115  0.58878  1.0000
  I   I238      1.0  0.94009  0.96834  0.34972  1.0000
  I   I239      1.0  0.56294  0.21336  0.05885  1.0000
  I   I240      1.0  0.37177  0.56087  0.93746  1.0000
  I   I241      1.0  0.93887  0.82201  0.66565  1.0000
  I   I242      1.0  0.75009  0.04126  0.59416  1.0000
  I   I243      1.0  0.78728  0.84128  0.70422  1.0000
  I   I244      1.0  0.43427  0.52502  0.35643  1.0000
  I   I245      1.0  0.05811  0.70524  0.26557  1.0000
  I   I246      1.0  0.40149  0.98231  0.12806  1.0000
  I   I247      1.0  0.03423  0.88836  0.99562  1.0000
  I   I248      1.0  0.20842  0.65798  0.23393  1.0000
  I   I249      1.0  0.82332  0.15784  0.33439  1.0000
  I   I250      1.0  0.70423  0.07495  0.32509  1.0000
  I   I251      1.0  0.05830  0.73874  0.87443  1.0000
  I   I252      1.0  0.41115  0.74534  0.09013  1.0000
  I   I253      1.0  0.35448  0.25362  0.56414  1.0000
  I   I254      1.0  0.09874  0.27272  0.94704  1.0000
  I   I255      1.0  0.23110  0.82089  0.88512  1.0000
  I   I256      1.0  0.96744  0.19488  0.69747  1.0000
  I   I257      1.0  0.14321  0.49011  0.94480  1.0000
  I   I258      1.0  0.03955  0.40579  0.28165  1.0000
  I   I259      1.0  0.73756  0.87617  0.36171  1.0000
  I   I260      1.0  0.48266  0.09957  0.81569  1.0000
  I   I261      1.0  0.27963  0.49821  0.81835  1.0000
  I   I262      1.0  0.51817  0.96854  0.28997  1.0000
  I   I263      1.0  0.49230  0.82895  0.77693  1.0000
  I   I264      1.0  0.40913  0.03896  0.60502  1.0000
  I   I265      1.0  0.13713  0.40626  0.32248  1.0000
  I   I266      1.0  0.18233  0.35108  0.70365  1.0000
  I   I267      1.0  0.46514  0.57006  0.60038  1.0000
  I   I268      1.0  0.61313  0.63412  0.79022  1.0000
  I   I269      1.0  0.94276  0.30179  0.40317  1.0000
  I   I270      1.0  0.77833  0.47820  0.96097  1.0000
  I   I271      1.0  0.79410  0.46451  0.38251  1.0000
  I   I272      1.0  0.90838  0.00889  0.12855  1.0000
  I   I273      1.0  0.38318  0.82475  0.53430  1.0000
  I   I274      1.0  0.89011  0.63681  0.56764  1.0000
  I   I275      1.0  0.73444  0.36757  0.90091  1.0000
  I   I276      1.0  0.89797  0.52737  0.79425  1.0000
  I   I277      1.0  0.06731  0.17303  0.59111  1.0000
  I   I278      1.0  0.56700  0.23940  0.50987  1.0000
  I   I279      1.0  0.37603  0.29436  0.00772  1.0000
  I   I280      1.0  0.01271  0.55757  0.16838  1.0000
  I   I281      1.0  0.60692  0.59201  0.33708  1.0000
  I   I282      1.0  0.30697  0.72480  0.70680  1.0000
  I   I283      1.0  0.06719  0.04068  0.41084  1.0000
  I   I284      1.0  0.72670  0.74181  0.94075  1.0000
  I   I285      1.0  0.73267  0.42504  0.71070  1.0000
  I   I286      1.0  0.96753  0.00118  0.25880  1.0000
  I   I287      1.0  0.59187  0.22621  0.93364  1.0000
  I   I288      1.0  0.50444  0.50081  0.10292  1.0000
  I   I289      1.0  0.94894  0.84690  0.79979  1.0000
  I   I290      1.0  0.59729  0.07748  0.12669  1.0000
  I   I291      1.0  0.77694  0.00740  0.69710  1.0000
  I   I292      1.0  0.46437  0.44799  0.33922  1.0000
  I   I293      1.0  0.95051  0.81168  0.11087  1.0000
  I   I294      1.0  0.30039  0.04620  0.19028  1.0000
  I   I295      1.0  0.08222  0.83042  0.10369  1.0000
  I   I296      1.0  0.21606  0.62624  0.12477  1.0000
  I   I297      1.0  0.82478  0.13781  0.19668  1.0000
  I   I298      1.0  0.07865  0.90897  0.36701  1.0000
  I   I299      1.0  0.70518  0.08807  0.46890  1.0000
  I   I300      1.0  0.48608  0.67211  0.08448  1.0000
  I   I301      1.0  0.28724  0.86036  0.94537  1.0000
  I   I302      1.0  0.38158  0.29727  0.50475  1.0000
  I   I303      1.0  0.07015  0.20523  0.95532  1.0000
  I   I304      1.0  0.03259  0.43900  0.40174  1.0000
  I   I305      1.0  0.83589  0.23009  0.70842  1.0000
  I   I306      1.0  0.55574  0.30928  0.87425  1.0000
  I   I307      1.0  0.68267  0.93567  0.31818  1.0000
  I   I308      1.0  0.45413  0.02210  0.01456  1.0000
  I   I309      1.0  0.34582  0.49921  0.69722  1.0000
  I   I310      1.0  0.47985  0.99186  0.52241  1.0000
  I   I311      1.0  0.42710  0.84990  0.99919  1.0000
  I   I312      1.0  0.91719  0.88187  0.37986  1.0000
  I   I313      1.0  0.34209  0.59838  0.73146  1.0000
  I   I314      1.0  0.17364  0.30818  0.27026  1.0000
  I   I315      1.0  0.20868  0.34430  0.58023  1.0000
  I   I316      1.0  0.75877  0.48350  0.85385  1.0000
  I   I317      1.0  0.55764  0.69562  0.70464  1.0000
  I   I318      1.0  0.97726  0.33635  0.35376  1.0000
  I   I319      1.0  0.45497  0.81864  0.56054  1.0000
  I   I320      1.0  0.81739  0.39449  0.39686  1.0000
  I   I321      1.0  0.91149  0.00209  0.97260  1.0000
  I   I322      1.0  0.88640  0.66360  0.68755  1.0000
  I   I323      1.0  0.65939  0.42444  0.97877  1.0000
  I   I324      1.0  0.98328  0.50123  0.82504  1.0000
  I   I325      1.0  0.17321  0.22110  0.49813  1.0000
  I   I326      1.0  0.49769  0.23989  0.55085  1.0000
  I   I327      1.0  0.34921  0.24419  0.02412  1.0000
  I   I328      1.0  0.08804  0.51536  0.11095  1.0000
  I   I329      1.0  0.67392  0.58342  0.31585  1.0000
  I   I330      1.0  0.29798  0.78181  0.62415  1.0000
  I   I331      1.0  0.65791  0.42895  0.71502  1.0000
  I   I332      1.0  0.13598  0.99411  0.33840  1.0000
  I   I333      1.0  0.73492  0.73407  0.07363  1.0000
  I   I334      1.0  0.35764  0.54428  0.05271  1.0000
  I   I335      1.0  0.89096  0.00050  0.47467  1.0000
  I   I336      1.0  0.65079  0.24577  0.14716  1.0000
  I   I337      1.0  0.85747  0.94034  0.64333  1.0000
  I   I338      1.0  0.55924  0.12692  0.02233  1.0000
  I   I339      1.0  0.72011  0.97151  0.66158  1.0000
  I   I340      1.0  0.40665  0.45678  0.43490  1.0000
  I   I341      1.0  0.05594  0.76428  0.10729  1.0000
  I   I342      1.0  0.28482  0.10923  0.14072  1.0000
  I   I343      1.0  0.03186  0.87984  0.86350  1.0000
  I   I344      1.0  0.16990  0.61043  0.23252  1.0000
  I   I345      1.0  0.80854  0.21332  0.17256  1.0000
  I   I346      1.0  0.12821  0.88934  0.45590  1.0000
  I   I347      1.0  0.69628  0.14860  0.37344  1.0000
  I   I348      1.0  0.40504  0.80181  0.17033  1.0000
  I   I349      1.0  0.23049  0.89361  0.88141  1.0000
  I   I350      1.0  0.43242  0.23416  0.47368  1.0000
  I   I351      1.0  0.08837  0.17782  0.12973  1.0000
  I   I352      1.0  0.97034  0.43052  0.25616  1.0000
  I   I353      1.0  0.97883  0.16929  0.57505  1.0000
  I   I354      1.0  0.59486  0.34807  0.88392  1.0000
  I   I355      1.0  0.67542  0.85494  0.35459  1.0000
  I   I356      1.0  0.48757  0.02700  0.90577  1.0000
  I   I357      1.0  0.29879  0.43454  0.88061  1.0000
  I   I358      1.0  0.43250  0.01966  0.42600  1.0000
  I   I359      1.0  0.45735  0.78201  0.96353  1.0000
  I   I360      1.0  0.97662  0.83630  0.43446  1.0000
  I   I361      1.0  0.38779  0.60389  0.83713  1.0000
  I   I362      1.0  0.23716  0.27196  0.37120  1.0000
  I   I363      1.0  0.11871  0.42846  0.75139  1.0000
  I   I364      1.0  0.82588  0.48921  0.81489  1.0000
  I   I365      1.0  0.61063  0.59359  0.70244  1.0000
  I   I366      1.0  0.00738  0.26585  0.31202  1.0000
  I   I367      1.0  0.45109  0.80382  0.42749  1.0000
  I   I368      1.0  0.72205  0.44207  0.29810  1.0000
  I   I369      1.0  0.86561  0.92588  0.00350  1.0000
  I   I370      1.0  0.87980  0.69834  0.44948  1.0000
  I   I371      1.0  0.72361  0.42096  0.98856  1.0000
  I   I372      1.0  0.86462  0.59534  0.74162  1.0000
  I   I373      1.0  0.16303  0.17242  0.58721  1.0000
  I   I374      1.0  0.49229  0.28389  0.42838  1.0000
  I   I375      1.0  0.38340  0.30080  0.12254  1.0000
  I   I376      1.0  0.09204  0.56584  0.22713  1.0000
  I   I377      1.0  0.63257  0.59490  0.20846  1.0000
  I   I378      1.0  0.24771  0.78912  0.49893  1.0000
  I   I379      1.0  0.75012  0.35261  0.72476  1.0000
  I   I380      1.0  0.02720  0.13391  0.96521  1.0000
  I   I381      1.0  0.69908  0.69286  0.97793  1.0000
  I   I382      1.0  0.40462  0.55823  0.11387  1.0000
  I   I383      1.0  0.92582  0.04703  0.46985  1.0000
  I   I384      1.0  0.61394  0.25152  0.01267  1.0000
