data_image0
_chemical_formula_structural       Ti96I384
_chemical_formula_sum              "Ti96 I384"
_cell_length_a       67.3185
_cell_length_b       67.3272
_cell_length_c       32.9405
_cell_angle_alpha    88.7757
_cell_angle_beta     88.7757
_cell_angle_gamma    62.1586

_space_group_name_H-M_alt    "P 1"
_space_group_IT_number       1

loop_
  _space_group_symop_operation_xyz
  'x, y, z'

loop_
  _atom_site_type_symbol
  _atom_site_label
  _atom_site_symmetry_multiplicity
  _atom_site_fract_x
  _atom_site_fract_y
  _atom_site_fract_z
  _atom_site_occupancy
  Ti  Ti1       1.0  0.09426  0.79929  0.05285  1.0000
  Ti  Ti2       1.0  0.63029  0.97568  0.94950  1.0000
  Ti  Ti3       1.0  0.63651  0.90049  0.33468  1.0000
  Ti  Ti4       1.0  0.88454  0.17702  0.21752  1.0000
  Ti  Ti5       1.0  0.62016  0.80204  0.31428  1.0000
  Ti  Ti6       1.0  0.97766  0.66204  0.89705  1.0000
  Ti  Ti7       1.0  0.82546  0.28836  0.57164  1.0000
  Ti  Ti8       1.0  0.26856  0.03126  0.37924  1.0000
  Ti  Ti9       1.0  0.27021  0.89836  0.16087  1.0000
  Ti  Ti10      1.0  0.87403  0.86850  0.32688  1.0000
  Ti  Ti11      1.0  0.12283  0.18036  0.32897  1.0000
  Ti  Ti12      1.0  0.16749  0.60197  0.60895  1.0000
  Ti  Ti13      1.0  0.15671  0.06459  0.13215  1.0000
  Ti  Ti14      1.0  0.96617  0.08201  0.52573  1.0000
  Ti  Ti15      1.0  0.75430  0.00003  0.55956  1.0000
  Ti  Ti16      1.0  0.83880  0.86026  0.46065  1.0000
  Ti  Ti17      1.0  0.29346  0.02150  0.70407  1.0000
  Ti  Ti18      1.0  0.83130  0.73009  0.99525  1.0000
  Ti  Ti19      1.0  0.60438  0.43631  0.99145  1.0000
  Ti  Ti20      1.0  0.12951  0.03898  0.72274  1.0000
  Ti  Ti21      1.0  0.20366  0.02799  0.36481  1.0000
  Ti  Ti22      1.0  0.79063  0.80868  0.42490  1.0000
  Ti  Ti23      1.0  0.52846  0.00137  0.63720  1.0000
  Ti  Ti24      1.0  0.33393  0.76483  0.86739  1.0000
  Ti  Ti25      1.0  0.56899  0.84665  0.73302  1.0000
  Ti  Ti26      1.0  0.33518  0.83999  0.38361  1.0000
  Ti  Ti27      1.0  0.81105  0.13819  0.62586  1.0000
  Ti  Ti28      1.0  0.63174  0.53960  0.55093  1.0000
  Ti  Ti29      1.0  0.00781  0.85257  0.05719  1.0000
  Ti  Ti30      1.0  0.50966  0.03731  0.98211  1.0000
  Ti  Ti31      1.0  0.12457  0.68520  0.88419  1.0000
  Ti  Ti32      1.0  0.87970  0.30258  0.03108  1.0000
  Ti  Ti33      1.0  0.12108  0.85523  0.36944  1.0000
  Ti  Ti34      1.0  0.38426  0.42768  0.75620  1.0000
  Ti  Ti35      1.0  0.61992  0.66381  0.84447  1.0000
  Ti  Ti36      1.0  0.82339  0.08193  0.90389  1.0000
  Ti  Ti37      1.0  0.18404  0.44257  0.40783  1.0000
  Ti  Ti38      1.0  0.47241  0.35591  0.01849  1.0000
  Ti  Ti39      1.0  0.89648  0.62297  0.23732  1.0000
  Ti  Ti40      1.0  0.28504  0.41317  0.94089  1.0000
  Ti  Ti41      1.0  0.53611  0.60837  0.67035  1.0000
  Ti  Ti42      1.0  0.99763  0.30810  0.30878  1.0000
  Ti  Ti43      1.0  0.52181  0.07900  0.32024  1.0000
  Ti  Ti44      1.0  0.87971  0.52341  0.69941  1.0000
  Ti  Ti45      1.0  0.34718  0.63334  0.61612  1.0000
  Ti  Ti46      1.0  0.58853  0.40842  0.31396  1.0000
  Ti  Ti47      1.0  0.26242  0.50116  0.27917  1.0000
  Ti  Ti48      1.0  0.66042  0.23092  0.94605  1.0000
  Ti  Ti49      1.0  0.88259  0.50021  0.27852  1.0000
  Ti  Ti50      1.0  0.99653  0.30433  0.79333  1.0000
  Ti  Ti51      1.0  0.61324  0.04789  0.90191  1.0000
  Ti  Ti52      1.0  0.86387  0.12838  0.32606  1.0000
  Ti  Ti53      1.0  0.42638  0.68537  0.11311  1.0000
  Ti  Ti54      1.0  0.97006  0.62564  0.93872  1.0000
  Ti  Ti55      1.0  0.82918  0.31370  0.45548  1.0000
  Ti  Ti56      1.0  0.16675  0.44812  0.78997  1.0000
  Ti  Ti57      1.0  0.28990  0.90518  0.02721  1.0000
  Ti  Ti58      1.0  0.58791  0.21647  0.38552  1.0000
  Ti  Ti59      1.0  0.23549  0.31380  0.11058  1.0000
  Ti  Ti60      1.0  0.21702  0.56859  0.57688  1.0000
  Ti  Ti61      1.0  0.69355  0.99823  0.57717  1.0000
  Ti  Ti62      1.0  0.10484  0.06950  0.21687  1.0000
  Ti  Ti63      1.0  0.99108  0.12388  0.58182  1.0000
  Ti  Ti64      1.0  0.86246  0.72365  0.09008  1.0000
  Ti  Ti65      1.0  0.75689  0.80257  0.79681  1.0000
  Ti  Ti66      1.0  0.52976  0.22760  0.02943  1.0000
  Ti  Ti67      1.0  0.60311  0.48056  0.98299  1.0000
  Ti  Ti68      1.0  0.91915  0.47975  0.97791  1.0000
  Ti  Ti69      1.0  0.48269  0.73048  0.84251  1.0000
  Ti  Ti70      1.0  0.58897  0.77676  0.47511  1.0000
  Ti  Ti71      1.0  0.46635  0.07309  0.62810  1.0000
  Ti  Ti72      1.0  0.97621  0.21444  0.11742  1.0000
  Ti  Ti73      1.0  0.82875  0.17296  0.65117  1.0000
  Ti  Ti74      1.0  0.62259  0.82343  0.72726  1.0000
  Ti  Ti75      1.0  0.35583  0.81557  0.50700  1.0000
  Ti  Ti76      1.0  0.52219  0.98973  0.01869  1.0000
  Ti  Ti77      1.0  0.65261  0.50899  0.62633  1.0000
  Ti  Ti78      1.0  0.94470  0.87047  0.04775  1.0000
  Ti  Ti79      1.0  0.70739  0.29532  0.75909  1.0000
  Ti  Ti80      1.0  0.73052  0.33455  0.19426  1.0000
  Ti  Ti81      1.0  0.91139  0.33482  0.04482  1.0000
  Ti  Ti82      1.0  0.32460  0.43363  0.69505  1.0000
  Ti  Ti83      1.0  0.63181  0.70482  0.84228  1.0000
  Ti  Ti84      1.0  0.83268  0.02242  0.92954  1.0000
  Ti  Ti85      1.0  0.21860  0.37564  0.44148  1.0000
  Ti  Ti86      1.0  0.53093  0.28916  0.06959  1.0000
  Ti  Ti87      1.0  0.83451  0.61859  0.18372  1.0000
  Ti  Ti88      1.0  0.52914  0.53933  0.28813  1.0000
  Ti  Ti89      1.0  0.47714  0.63889  0.58019  1.0000
  Ti  Ti90      1.0  0.95837  0.33834  0.25209  1.0000
  Ti  Ti91      1.0  0.30936  0.65031  0.72184  1.0000
  Ti  Ti92      1.0  0.27594  0.52709  0.89929  1.0000
  Ti  Ti93      1.0  0.87435  0.47032  0.77124  1.0000
  Ti  Ti94      1.0  0.70720  0.20348  0.96813  1.0000
  Ti  Ti95      1.0  0.62518  0.35133  0.35781  1.0000
  Ti  Ti96      1.0  0.28639  0.51734  0.18352  1.0000
  I   I1        1.0  0.28380  0.47632  0.20442  1.0000
  I   I2        1.0  0.57052  0.07873  0.86148  1.0000
  I   I3        1.0  0.89037  0.46748  0.23321  1.0000
  I   I4        1.0  0.40878  0.67591  0.05438  1.0000
  I   I5        1.0  0.94604  0.67541  0.96057  1.0000
  I   I6        1.0  0.96713  0.62420  0.02749  1.0000
  I   I7        1.0  0.25598  0.99564  0.36127  1.0000
  I   I8        1.0  0.13497  0.48910  0.80269  1.0000
  I   I9        1.0  0.30483  0.89992  0.11020  1.0000
  I   I10       1.0  0.86218  0.82532  0.50915  1.0000
  I   I11       1.0  0.11661  0.16846  0.25759  1.0000
  I   I12       1.0  0.65074  0.78249  0.25494  1.0000
  I   I13       1.0  0.12323  0.09670  0.18133  1.0000
  I   I14       1.0  0.99934  0.08123  0.58858  1.0000
  I   I15       1.0  0.75315  0.03605  0.59257  1.0000
  I   I16       1.0  0.79331  0.87503  0.46503  1.0000
  I   I17       1.0  0.49809  0.21532  0.05030  1.0000
  I   I18       1.0  0.86453  0.76003  0.11801  1.0000
  I   I19       1.0  0.16268  0.99822  0.72150  1.0000
  I   I20       1.0  0.08926  0.17385  0.35576  1.0000
  I   I21       1.0  0.16151  0.05371  0.35842  1.0000
  I   I22       1.0  0.55417  0.99784  0.70121  1.0000
  I   I23       1.0  0.44454  0.10555  0.67304  1.0000
  I   I24       1.0  0.63244  0.76456  0.49105  1.0000
  I   I25       1.0  0.63538  0.83101  0.65600  1.0000
  I   I26       1.0  0.31629  0.81902  0.45681  1.0000
  I   I27       1.0  0.85428  0.13080  0.60556  1.0000
  I   I28       1.0  0.60539  0.52212  0.61437  1.0000
  I   I29       1.0  0.97208  0.87067  0.11497  1.0000
  I   I30       1.0  0.53328  0.05747  0.98355  1.0000
  I   I31       1.0  0.70808  0.35219  0.25704  1.0000
  I   I32       1.0  0.95371  0.31621  0.05119  1.0000
  I   I33       1.0  0.72987  0.28393  0.82597  1.0000
  I   I34       1.0  0.62192  0.64278  0.91164  1.0000
  I   I35       1.0  0.79382  0.10718  0.96189  1.0000
  I   I36       1.0  0.38087  0.45577  0.80648  1.0000
  I   I37       1.0  0.23173  0.35840  0.50999  1.0000
  I   I38       1.0  0.82990  0.58337  0.20206  1.0000
  I   I39       1.0  0.24885  0.38660  0.40739  1.0000
  I   I40       1.0  0.52388  0.61384  0.58008  1.0000
  I   I41       1.0  0.95815  0.34900  0.17194  1.0000
  I   I42       1.0  0.31322  0.40803  0.88377  1.0000
  I   I43       1.0  0.55038  0.24304  0.42294  1.0000
  I   I44       1.0  0.88098  0.51945  0.61830  1.0000
  I   I45       1.0  0.32138  0.67719  0.66845  1.0000
  I   I46       1.0  0.66843  0.33311  0.35270  1.0000
  I   I47       1.0  0.26081  0.50193  0.35539  1.0000
  I   I48       1.0  0.66161  0.26296  0.89484  1.0000
  I   I49       1.0  0.83931  0.51587  0.26279  1.0000
  I   I50       1.0  0.59904  0.96013  0.94920  1.0000
  I   I51       1.0  0.59795  0.01481  0.91092  1.0000
  I   I52       1.0  0.84407  0.20968  0.23922  1.0000
  I   I53       1.0  0.40834  0.72523  0.14994  1.0000
  I   I54       1.0  0.98791  0.58160  0.93735  1.0000
  I   I55       1.0  0.80722  0.31373  0.63743  1.0000
  I   I56       1.0  0.27105  0.06471  0.33534  1.0000
  I   I57       1.0  0.24639  0.93885  0.19030  1.0000
  I   I58       1.0  0.84126  0.89390  0.27345  1.0000
  I   I59       1.0  0.27478  0.31258  0.10795  1.0000
  I   I60       1.0  0.19405  0.61702  0.54945  1.0000
  I   I61       1.0  0.06183  0.08436  0.23151  1.0000
  I   I62       1.0  0.17206  0.04095  0.06825  1.0000
  I   I63       1.0  0.94403  0.08440  0.45730  1.0000
  I   I64       1.0  0.83181  0.87196  0.37467  1.0000
  I   I65       1.0  0.78632  0.76052  0.77683  1.0000
  I   I66       1.0  0.55012  0.19117  0.07585  1.0000
  I   I67       1.0  0.56390  0.47778  0.95345  1.0000
  I   I68       1.0  0.12001  0.05049  0.79646  1.0000
  I   I69       1.0  0.45495  0.71275  0.84825  1.0000
  I   I70       1.0  0.56183  0.80436  0.52325  1.0000
  I   I71       1.0  0.55651  0.98800  0.57967  1.0000
  I   I72       1.0  0.95744  0.23652  0.05143  1.0000
  I   I73       1.0  0.82257  0.19659  0.58478  1.0000
  I   I74       1.0  0.30051  0.87819  0.38924  1.0000
  I   I75       1.0  0.34945  0.85370  0.45821  1.0000
  I   I76       1.0  0.59068  0.56219  0.51305  1.0000
  I   I77       1.0  0.68143  0.46177  0.63232  1.0000
  I   I78       1.0  0.96599  0.89174  0.01687  1.0000
  I   I79       1.0  0.09992  0.87947  0.30456  1.0000
  I   I80       1.0  0.13230  0.65749  0.82841  1.0000
  I   I81       1.0  0.91689  0.33414  0.95824  1.0000
  I   I82       1.0  0.30936  0.41029  0.65463  1.0000
  I   I83       1.0  0.59466  0.69878  0.88718  1.0000
  I   I84       1.0  0.84840  0.03093  0.99465  1.0000
  I   I85       1.0  0.17351  0.39578  0.43603  1.0000
  I   I86       1.0  0.50961  0.31326  0.99144  1.0000
  I   I87       1.0  0.90404  0.65674  0.21099  1.0000
  I   I88       1.0  0.27603  0.38180  0.89899  1.0000
  I   I89       1.0  0.45837  0.61667  0.60587  1.0000
  I   I90       1.0  0.92278  0.37273  0.28724  1.0000
  I   I91       1.0  0.34912  0.61451  0.72042  1.0000
  I   I92       1.0  0.30654  0.50865  0.95364  1.0000
  I   I93       1.0  0.85437  0.56932  0.70184  1.0000
  I   I94       1.0  0.72658  0.22040  0.91773  1.0000
  I   I95       1.0  0.59064  0.44290  0.28654  1.0000
  I   I96       1.0  0.31851  0.49408  0.13394  1.0000
  I   I97       1.0  0.65576  0.91658  0.28135  1.0000
  I   I98       1.0  0.10752  0.79379  0.96939  1.0000
  I   I99       1.0  0.65944  0.94891  0.90106  1.0000
  I   I100      1.0  0.89606  0.18197  0.28979  1.0000
  I   I101      1.0  0.88280  0.08340  0.33535  1.0000
  I   I102      1.0  0.59545  0.83952  0.27058  1.0000
  I   I103      1.0  0.87035  0.30336  0.45040  1.0000
  I   I104      1.0  0.82926  0.25510  0.62008  1.0000
  I   I105      1.0  0.28461  0.88196  0.97001  1.0000
  I   I106      1.0  0.14915  0.58787  0.66505  1.0000
  I   I107      1.0  0.90516  0.88081  0.30774  1.0000
  I   I108      1.0  0.14494  0.64657  0.63702  1.0000
  I   I109      1.0  0.79634  0.97482  0.56229  1.0000
  I   I110      1.0  0.11145  0.05958  0.13779  1.0000
  I   I111      1.0  0.95528  0.16449  0.57341  1.0000
  I   I112      1.0  0.86979  0.73013  0.00667  1.0000
  I   I113      1.0  0.77471  0.82972  0.79593  1.0000
  I   I114      1.0  0.33295  0.98415  0.73287  1.0000
  I   I115      1.0  0.64093  0.43960  0.94824  1.0000
  I   I116      1.0  0.61663  0.40182  0.94072  1.0000
  I   I117      1.0  0.95712  0.44544  0.99980  1.0000
  I   I118      1.0  0.79879  0.82154  0.49444  1.0000
  I   I119      1.0  0.59005  0.80939  0.42450  1.0000
  I   I120      1.0  0.99019  0.17220  0.11340  1.0000
  I   I121      1.0  0.82077  0.20525  0.70695  1.0000
  I   I122      1.0  0.53518  0.88324  0.75073  1.0000
  I   I123      1.0  0.37451  0.79889  0.42712  1.0000
  I   I124      1.0  0.54833  0.00281  0.05288  1.0000
  I   I125      1.0  0.63231  0.57048  0.50190  1.0000
  I   I126      1.0  0.91206  0.87425  0.99985  1.0000
  I   I127      1.0  0.16122  0.83950  0.34257  1.0000
  I   I128      1.0  0.76660  0.34210  0.18867  1.0000
  I   I129      1.0  0.90884  0.30175  0.09448  1.0000
  I   I130      1.0  0.81580  0.11160  0.85034  1.0000
  I   I131      1.0  0.34266  0.46517  0.72806  1.0000
  I   I132      1.0  0.62383  0.68858  0.77369  1.0000
  I   I133      1.0  0.91983  0.60685  0.29871  1.0000
  I   I134      1.0  0.43441  0.37831  0.06109  1.0000
  I   I135      1.0  0.56683  0.29093  0.08988  1.0000
  I   I136      1.0  0.02945  0.30981  0.34861  1.0000
  I   I137      1.0  0.50369  0.52657  0.32569  1.0000
  I   I138      1.0  0.55941  0.62812  0.66453  1.0000
  I   I139      1.0  0.34626  0.59436  0.60746  1.0000
  I   I140      1.0  0.29307  0.51711  0.82697  1.0000
  I   I141      1.0  0.90675  0.47398  0.70843  1.0000
  I   I142      1.0  0.73665  0.19225  0.02343  1.0000
  I   I143      1.0  0.61225  0.34094  0.42562  1.0000
  I   I144      1.0  0.30529  0.50340  0.27919  1.0000
  I   I145      1.0  0.08635  0.84297  0.05906  1.0000
  I   I146      1.0  0.64738  0.97138  0.01816  1.0000
  I   I147      1.0  0.60794  0.93341  0.36963  1.0000
  I   I148      1.0  0.88253  0.13804  0.25832  1.0000
  I   I149      1.0  0.63588  0.81804  0.36598  1.0000
  I   I150      1.0  0.95153  0.69000  0.84369  1.0000
  I   I151      1.0  0.80512  0.35635  0.41957  1.0000
  I   I152      1.0  0.26138  0.04468  0.45603  1.0000
  I   I153      1.0  0.32518  0.90720  0.99774  1.0000
  I   I154      1.0  0.51671  0.07519  0.39626  1.0000
  I   I155      1.0  0.15789  0.14261  0.35049  1.0000
  I   I156      1.0  0.21024  0.53219  0.59527  1.0000
  I   I157      1.0  0.75132  0.98687  0.63717  1.0000
  I   I158      1.0  0.00138  0.12874  0.65354  1.0000
  I   I159      1.0  0.68991  0.96817  0.62402  1.0000
  I   I160      1.0  0.85159  0.68792  0.97906  1.0000
  I   I161      1.0  0.30506  0.05181  0.69119  1.0000
  I   I162      1.0  0.85146  0.71410  0.15951  1.0000
  I   I163      1.0  0.56847  0.43784  0.03031  1.0000
  I   I164      1.0  0.90663  0.51219  0.02709  1.0000
  I   I165      1.0  0.19840  0.99090  0.37404  1.0000
  I   I166      1.0  0.75258  0.83663  0.38840  1.0000
  I   I167      1.0  0.49399  0.02706  0.57874  1.0000
  I   I168      1.0  0.34517  0.72840  0.90496  1.0000
  I   I169      1.0  0.61270  0.79154  0.69717  1.0000
  I   I170      1.0  0.56545  0.85036  0.64895  1.0000
  I   I171      1.0  0.78230  0.15322  0.56602  1.0000
  I   I172      1.0  0.54174  0.94604  0.00544  1.0000
  I   I173      1.0  0.04724  0.81651  0.08900  1.0000
  I   I174      1.0  0.47767  0.06804  0.03290  1.0000
  I   I175      1.0  0.14675  0.66401  0.94984  1.0000
  I   I176      1.0  0.84810  0.32010  0.97474  1.0000
  I   I177      1.0  0.73377  0.27844  0.70170  1.0000
  I   I178      1.0  0.30238  0.42652  0.75359  1.0000
  I   I179      1.0  0.63040  0.72908  0.90158  1.0000
  I   I180      1.0  0.85517  0.98642  0.88411  1.0000
  I   I181      1.0  0.21956  0.34229  0.40432  1.0000
  I   I182      1.0  0.55893  0.24648  0.02121  1.0000
  I   I183      1.0  0.79473  0.65163  0.16347  1.0000
  I   I184      1.0  0.54811  0.50789  0.23197  1.0000
  I   I185      1.0  0.52833  0.60180  0.74638  1.0000
  I   I186      1.0  0.99025  0.35144  0.27256  1.0000
  I   I187      1.0  0.24970  0.51283  0.92687  1.0000
  I   I188      1.0  0.90663  0.53748  0.72944  1.0000
  I   I189      1.0  0.30100  0.64608  0.63628  1.0000
  I   I190      1.0  0.62502  0.31596  0.32397  1.0000
  I   I191      1.0  0.99665  0.30221  0.71096  1.0000
  I   I192      1.0  0.61992  0.23740  0.94157  1.0000
  I   I193      1.0  0.11072  0.79895  0.12356  1.0000
  I   I194      1.0  0.97659  0.28328  0.80683  1.0000
  I   I195      1.0  0.66945  0.87245  0.38059  1.0000
  I   I196      1.0  0.91547  0.18423  0.17480  1.0000
  I   I197      1.0  0.61566  0.20087  0.44164  1.0000
  I   I198      1.0  0.00398  0.68245  0.90432  1.0000
  I   I199      1.0  0.81993  0.27732  0.49619  1.0000
  I   I200      1.0  0.15057  0.42206  0.82209  1.0000
  I   I201      1.0  0.30744  0.87239  0.19839  1.0000
  I   I202      1.0  0.22408  0.32388  0.18644  1.0000
  I   I203      1.0  0.50348  0.71263  0.90989  1.0000
  I   I204      1.0  0.21344  0.59089  0.63960  1.0000
  I   I205      1.0  0.18111  0.03925  0.19027  1.0000
  I   I206      1.0  0.02731  0.12421  0.53714  1.0000
  I   I207      1.0  0.67281  0.03423  0.61927  1.0000
  I   I208      1.0  0.82923  0.89631  0.50390  1.0000
  I   I209      1.0  0.24962  0.04435  0.72019  1.0000
  I   I210      1.0  0.82152  0.74467  0.92122  1.0000
  I   I211      1.0  0.61642  0.50740  0.94656  1.0000
  I   I212      1.0  0.10184  0.04453  0.66688  1.0000
  I   I213      1.0  0.50571  0.71296  0.77543  1.0000
  I   I214      1.0  0.81956  0.81635  0.37887  1.0000
  I   I215      1.0  0.46976  0.08409  0.55793  1.0000
  I   I216      1.0  0.36339  0.77097  0.82160  1.0000
  I   I217      1.0  0.59747  0.82899  0.79724  1.0000
  I   I218      1.0  0.37710  0.77713  0.54693  1.0000
  I   I219      1.0  0.82688  0.10593  0.55779  1.0000
  I   I220      1.0  0.63771  0.50209  0.51575  1.0000
  I   I221      1.0  0.00835  0.89314  0.06184  1.0000
  I   I222      1.0  0.53411  0.99310  0.93193  1.0000
  I   I223      1.0  0.13138  0.72113  0.86569  1.0000
  I   I224      1.0  0.90648  0.27141  0.98078  1.0000
  I   I225      1.0  0.12185  0.88045  0.42793  1.0000
  I   I226      1.0  0.29352  0.47222  0.65845  1.0000
  I   I227      1.0  0.67717  0.67223  0.84503  1.0000
  I   I228      1.0  0.85126  0.08885  0.94773  1.0000
  I   I229      1.0  0.20669  0.46523  0.38212  1.0000
  I   I230      1.0  0.47545  0.38873  0.98193  1.0000
  I   I231      1.0  0.85064  0.60751  0.11311  1.0000
  I   I232      1.0  0.94397  0.07607  0.58117  1.0000
  I   I233      1.0  0.54897  0.56658  0.65626  1.0000
  I   I234      1.0  0.94928  0.30196  0.24038  1.0000
  I   I235      1.0  0.49064  0.11489  0.28965  1.0000
  I   I236      1.0  0.89109  0.42950  0.73961  1.0000
  I   I237      1.0  0.30993  0.67392  0.78054  1.0000
  I   I238      1.0  0.62664  0.39228  0.34796  1.0000
  I   I239      1.0  0.30074  0.54555  0.18498  1.0000
  I   I240      1.0  0.68143  0.24645  0.99172  1.0000
  I   I241      1.0  0.87546  0.49427  0.35523  1.0000
  I   I242      1.0  0.63296  0.06214  0.85144  1.0000
  I   I243      1.0  0.61636  0.89620  0.26847  1.0000
  I   I244      1.0  0.88682  0.13410  0.38380  1.0000
  I   I245      1.0  0.43833  0.64642  0.14682  1.0000
  I   I246      1.0  0.93359  0.62023  0.92766  1.0000
  I   I247      1.0  0.82874  0.29199  0.39028  1.0000
  I   I248      1.0  0.31341  0.00102  0.35531  1.0000
  I   I249      1.0  0.25262  0.90692  0.08434  1.0000
  I   I250      1.0  0.20295  0.34747  0.07566  1.0000
  I   I251      1.0  0.12403  0.21871  0.32173  1.0000
  I   I252      1.0  0.18586  0.57348  0.51994  1.0000
  I   I253      1.0  0.11430  0.07601  0.29248  1.0000
  I   I254      1.0  0.96450  0.12368  0.51231  1.0000
  I   I255      1.0  0.66757  0.99562  0.51680  1.0000
  I   I256      1.0  0.72334  0.80201  0.84189  1.0000
  I   I257      1.0  0.29160  0.01135  0.62834  1.0000
  I   I258      1.0  0.82351  0.71880  0.07014  1.0000
  I   I259      1.0  0.57793  0.50264  0.04548  1.0000
  I   I260      1.0  0.89083  0.46319  0.98190  1.0000
  I   I261      1.0  0.20397  0.01874  0.44572  1.0000
  I   I262      1.0  0.80343  0.76673  0.42176  1.0000
  I   I263      1.0  0.43472  0.06116  0.62955  1.0000
  I   I264      1.0  0.32202  0.79633  0.91623  1.0000
  I   I265      1.0  0.55370  0.81637  0.72220  1.0000
  I   I266      1.0  0.35680  0.84833  0.32157  1.0000
  I   I267      1.0  0.83756  0.14791  0.72316  1.0000
  I   I268      1.0  0.68177  0.51263  0.55768  1.0000
  I   I269      1.0  0.91438  0.90231  0.09968  1.0000
  I   I270      1.0  0.47891  0.02196  0.98314  1.0000
  I   I271      1.0  0.08509  0.69237  0.91190  1.0000
  I   I272      1.0  0.86330  0.35180  0.04455  1.0000
  I   I273      1.0  0.11742  0.81914  0.36514  1.0000
  I   I274      1.0  0.36583  0.40334  0.69375  1.0000
  I   I275      1.0  0.58604  0.65484  0.81484  1.0000
  I   I276      1.0  0.79634  0.05437  0.88427  1.0000
  I   I277      1.0  0.14448  0.47156  0.41239  1.0000
  I   I278      1.0  0.50846  0.33527  0.08129  1.0000
  I   I279      1.0  0.91982  0.58927  0.18414  1.0000
  I   I280      1.0  0.50622  0.58211  0.26855  1.0000
  I   I281      1.0  0.47555  0.62849  0.49289  1.0000
  I   I282      1.0  0.02293  0.26303  0.30571  1.0000
  I   I283      1.0  0.54457  0.04894  0.26058  1.0000
  I   I284      1.0  0.90961  0.45523  0.81710  1.0000
  I   I285      1.0  0.34437  0.63068  0.53804  1.0000
  I   I286      1.0  0.60299  0.38341  0.24448  1.0000
  I   I287      1.0  0.25905  0.54391  0.12423  1.0000
  I   I288      1.0  0.67000  0.20729  0.87933  1.0000
  I   I289      1.0  0.89268  0.53147  0.25431  1.0000
  I   I290      1.0  0.03976  0.28221  0.79801  1.0000
  I   I291      1.0  0.64599  0.00872  0.93842  1.0000
  I   I292      1.0  0.82365  0.14833  0.31433  1.0000
  I   I293      1.0  0.46424  0.68186  0.08868  1.0000
  I   I294      1.0  0.97391  0.62767  0.86206  1.0000
  I   I295      1.0  0.86597  0.27984  0.56739  1.0000
  I   I296      1.0  0.18113  0.44995  0.71735  1.0000
  I   I297      1.0  0.25687  0.94257  0.00627  1.0000
  I   I298      1.0  0.60962  0.23575  0.34500  1.0000
  I   I299      1.0  0.90008  0.83117  0.29520  1.0000
  I   I300      1.0  0.25921  0.54846  0.55616  1.0000
  I   I301      1.0  0.73688  0.96868  0.54061  1.0000
  I   I302      1.0  0.17435  0.09038  0.11876  1.0000
  I   I303      1.0  0.29870  0.41447  0.01198  1.0000
  I   I304      1.0  0.81736  0.77658  0.03074  1.0000
  I   I305      1.0  0.88123  0.86789  0.40270  1.0000
  I   I306      1.0  0.50167  0.27215  0.05529  1.0000
  I   I307      1.0  0.62502  0.39932  0.04081  1.0000
  I   I308      1.0  0.14819  0.06466  0.70513  1.0000
  I   I309      1.0  0.21907  0.06084  0.37477  1.0000
  I   I310      1.0  0.57087  0.74825  0.45700  1.0000
  I   I311      1.0  0.51532  0.97512  0.67620  1.0000
  I   I312      1.0  0.01476  0.21409  0.13002  1.0000
  I   I313      1.0  0.80173  0.11138  0.66726  1.0000
  I   I314      1.0  0.59981  0.86809  0.71080  1.0000
  I   I315      1.0  0.32616  0.84022  0.55871  1.0000
  I   I316      1.0  0.49069  0.00433  0.07926  1.0000
  I   I317      1.0  0.63588  0.55490  0.62788  1.0000
  I   I318      1.0  0.02968  0.83793  0.98843  1.0000
  I   I319      1.0  0.66921  0.29587  0.75125  1.0000
  I   I320      1.0  0.71507  0.34309  0.12323  1.0000
  I   I321      1.0  0.86372  0.28379  0.08394  1.0000
  I   I322      1.0  0.41127  0.43143  0.69909  1.0000
  I   I323      1.0  0.64574  0.61990  0.80762  1.0000
  I   I324      1.0  0.86383  0.04090  0.89283  1.0000
  I   I325      1.0  0.18338  0.42503  0.33890  1.0000
  I   I326      1.0  0.54060  0.26123  0.13613  1.0000
  I   I327      1.0  0.85322  0.65151  0.20487  1.0000
  I   I328      1.0  0.24762  0.45284  0.94229  1.0000
  I   I329      1.0  0.48927  0.64628  0.65696  1.0000
  I   I330      1.0  0.00018  0.30124  0.22679  1.0000
  I   I331      1.0  0.38486  0.62561  0.64181  1.0000
  I   I332      1.0  0.58475  0.18660  0.34596  1.0000
  I   I333      1.0  0.85661  0.51903  0.76249  1.0000
  I   I334      1.0  0.67842  0.18476  0.99083  1.0000
  I   I335      1.0  0.55055  0.42768  0.36196  1.0000
  I   I336      1.0  0.24425  0.53949  0.22904  1.0000
  I   I337      1.0  0.09337  0.76171  0.04873  1.0000
  I   I338      1.0  0.96283  0.34668  0.81033  1.0000
  I   I339      1.0  0.60151  0.07506  0.96031  1.0000
  I   I340      1.0  0.88123  0.15441  0.15663  1.0000
  I   I341      1.0  0.61428  0.76583  0.33816  1.0000
  I   I342      1.0  0.01252  0.62241  0.93915  1.0000
  I   I343      1.0  0.80433  0.33546  0.52726  1.0000
  I   I344      1.0  0.20470  0.43668  0.83225  1.0000
  I   I345      1.0  0.23278  0.89521  0.18951  1.0000
  I   I346      1.0  0.54436  0.10309  0.33125  1.0000
  I   I347      1.0  0.21674  0.28938  0.07912  1.0000
  I   I348      1.0  0.13361  0.62031  0.55914  1.0000
  I   I349      1.0  0.72392  0.03084  0.50922  1.0000
  I   I350      1.0  0.10765  0.03044  0.24368  1.0000
  I   I351      1.0  0.00736  0.04239  0.50830  1.0000
  I   I352      1.0  0.90707  0.69630  0.09235  1.0000
  I   I353      1.0  0.72883  0.81860  0.73384  1.0000
  I   I354      1.0  0.53246  0.20999  0.95454  1.0000
  I   I355      1.0  0.63067  0.45268  0.04445  1.0000
  I   I356      1.0  0.91786  0.50322  0.91341  1.0000
  I   I357      1.0  0.45674  0.77307  0.82679  1.0000
  I   I358      1.0  0.30690  0.76501  0.80879  1.0000
  I   I359      1.0  0.50964  0.05172  0.65850  1.0000
  I   I360      1.0  0.95346  0.22475  0.18280  1.0000
  I   I361      1.0  0.78848  0.17801  0.65246  1.0000
  I   I362      1.0  0.66686  0.79752  0.75658  1.0000
  I   I363      1.0  0.33056  0.81198  0.33893  1.0000
  I   I364      1.0  0.50824  0.05150  0.90461  1.0000
  I   I365      1.0  0.66507  0.50533  0.70093  1.0000
  I   I366      1.0  0.97041  0.82394  0.06267  1.0000
  I   I367      1.0  0.69623  0.33852  0.74717  1.0000
  I   I368      1.0  0.74243  0.29183  0.19689  1.0000
  I   I369      1.0  0.91070  0.37248  0.05361  1.0000
  I   I370      1.0  0.40761  0.38758  0.78705  1.0000
  I   I371      1.0  0.61313  0.74229  0.79309  1.0000
  I   I372      1.0  0.81059  0.00354  0.95910  1.0000
  I   I373      1.0  0.20544  0.42017  0.47776  1.0000
  I   I374      1.0  0.44618  0.34873  0.96984  1.0000
  I   I375      1.0  0.86877  0.60446  0.24365  1.0000
  I   I376      1.0  0.56858  0.52556  0.32466  1.0000
  I   I377      1.0  0.44967  0.68336  0.56289  1.0000
  I   I378      1.0  0.97005  0.31690  0.36621  1.0000
  I   I379      1.0  0.28247  0.63834  0.76162  1.0000
  I   I380      1.0  0.24232  0.56849  0.88533  1.0000
  I   I381      1.0  0.83178  0.48132  0.75298  1.0000
  I   I382      1.0  0.73613  0.16705  0.90345  1.0000
  I   I383      1.0  0.57394  0.37598  0.35276  1.0000
  I   I384      1.0  0.23093  0.49250  0.25734  1.0000
