data_image0
_chemical_formula_structural       Ti96I384
_chemical_formula_sum              "Ti96 I384"
_cell_length_a       51.243
_cell_length_b       51.2379
_cell_length_c       24.7508
_cell_angle_alpha    88.7757
_cell_angle_beta     88.7757
_cell_angle_gamma    62.1586

_space_group_name_H-M_alt    "P 1"
_space_group_IT_number       1

loop_
  _space_group_symop_operation_xyz
  'x, y, z'

loop_
  _atom_site_type_symbol
  _atom_site_label
  _atom_site_symmetry_multiplicity
  _atom_site_fract_x
  _atom_site_fract_y
  _atom_site_fract_z
  _atom_site_occupancy
  Ti  Ti1       1.0  0.40068  0.83976  0.39253  1.0000
  Ti  Ti2       1.0  0.13355  0.00235  0.86425  1.0000
  Ti  Ti3       1.0  0.36016  0.87645  0.11727  1.0000
  Ti  Ti4       1.0  0.22518  0.05495  0.54884  1.0000
  Ti  Ti5       1.0  0.09823  0.39079  0.65854  1.0000
  Ti  Ti6       1.0  0.14725  0.21701  0.76250  1.0000
  Ti  Ti7       1.0  0.92202  0.71655  0.98113  1.0000
  Ti  Ti8       1.0  0.90456  0.04528  0.40228  1.0000
  Ti  Ti9       1.0  0.92921  0.78037  0.22037  1.0000
  Ti  Ti10      1.0  0.20740  0.80652  0.92396  1.0000
  Ti  Ti11      1.0  0.04333  0.75054  0.73663  1.0000
  Ti  Ti12      1.0  0.93770  0.88939  0.59970  1.0000
  Ti  Ti13      1.0  0.39350  0.15405  0.36624  1.0000
  Ti  Ti14      1.0  0.42044  0.02545  0.72883  1.0000
  Ti  Ti15      1.0  0.35148  0.08580  0.12806  1.0000
  Ti  Ti16      1.0  0.31230  0.53133  0.08363  1.0000
  Ti  Ti17      1.0  0.15834  0.66870  0.18534  1.0000
  Ti  Ti18      1.0  0.21792  0.48742  0.62522  1.0000
  Ti  Ti19      1.0  0.45698  0.62382  0.29307  1.0000
  Ti  Ti20      1.0  0.66109  0.69339  0.64372  1.0000
  Ti  Ti21      1.0  0.35720  0.63762  0.55083  1.0000
  Ti  Ti22      1.0  0.42344  0.76173  0.73153  1.0000
  Ti  Ti23      1.0  0.63490  0.82716  0.89363  1.0000
  Ti  Ti24      1.0  0.49249  0.73213  0.02182  1.0000
  Ti  Ti25      1.0  0.41018  0.35831  0.88325  1.0000
  Ti  Ti26      1.0  0.29693  0.34970  0.11729  1.0000
  Ti  Ti27      1.0  0.64279  0.31809  0.49995  1.0000
  Ti  Ti28      1.0  0.53676  0.35478  0.19107  1.0000
  Ti  Ti29      1.0  0.61640  0.53793  0.03527  1.0000
  Ti  Ti30      1.0  0.51408  0.55576  0.77755  1.0000
  Ti  Ti31      1.0  0.93437  0.54833  0.01899  1.0000
  Ti  Ti32      1.0  0.78488  0.42531  0.68720  1.0000
  Ti  Ti33      1.0  0.85174  0.51157  0.81879  1.0000
  Ti  Ti34      1.0  0.74642  0.95188  0.20401  1.0000
  Ti  Ti35      1.0  0.64662  0.69990  0.15367  1.0000
  Ti  Ti36      1.0  0.82762  0.67257  0.58678  1.0000
  Ti  Ti37      1.0  0.71941  0.20461  0.30419  1.0000
  Ti  Ti38      1.0  0.78246  0.27867  0.20359  1.0000
  Ti  Ti39      1.0  0.72580  0.21731  0.91845  1.0000
  Ti  Ti40      1.0  0.89976  0.32949  0.02740  1.0000
  Ti  Ti41      1.0  0.86369  0.24340  0.57470  1.0000
  Ti  Ti42      1.0  0.26168  0.85635  0.57453  1.0000
  Ti  Ti43      1.0  0.08505  0.35270  0.25165  1.0000
  Ti  Ti44      1.0  0.01318  0.61944  0.48460  1.0000
  Ti  Ti45      1.0  0.06655  0.58266  0.77487  1.0000
  Ti  Ti46      1.0  0.71616  0.85475  0.49883  1.0000
  Ti  Ti47      1.0  0.63069  0.03023  0.51857  1.0000
  Ti  Ti48      1.0  0.52308  0.18482  0.08493  1.0000
  Ti  Ti49      1.0  0.34289  0.90298  0.28734  1.0000
  Ti  Ti50      1.0  0.06986  0.01251  0.98223  1.0000
  Ti  Ti51      1.0  0.20380  0.01579  0.87497  1.0000
  Ti  Ti52      1.0  0.14920  0.07195  0.53060  1.0000
  Ti  Ti53      1.0  0.09167  0.37309  0.54895  1.0000
  Ti  Ti54      1.0  0.15220  0.20408  0.93768  1.0000
  Ti  Ti55      1.0  0.86859  0.79993  0.06147  1.0000
  Ti  Ti56      1.0  0.84825  0.06130  0.52703  1.0000
  Ti  Ti57      1.0  0.95463  0.80674  0.30100  1.0000
  Ti  Ti58      1.0  0.14085  0.84141  0.81605  1.0000
  Ti  Ti59      1.0  0.29183  0.73859  0.98818  1.0000
  Ti  Ti60      1.0  0.00742  0.82083  0.63567  1.0000
  Ti  Ti61      1.0  0.38541  0.09448  0.25055  1.0000
  Ti  Ti62      1.0  0.32815  0.24119  0.38188  1.0000
  Ti  Ti63      1.0  0.38036  0.08599  0.73935  1.0000
  Ti  Ti64      1.0  0.25268  0.41686  0.54621  1.0000
  Ti  Ti65      1.0  0.23228  0.58622  0.13303  1.0000
  Ti  Ti66      1.0  0.13099  0.69699  0.33873  1.0000
  Ti  Ti67      1.0  0.40288  0.66533  0.37154  1.0000
  Ti  Ti68      1.0  0.66780  0.67248  0.79456  1.0000
  Ti  Ti69      1.0  0.30001  0.61286  0.64249  1.0000
  Ti  Ti70      1.0  0.44836  0.74210  0.87823  1.0000
  Ti  Ti71      1.0  0.55818  0.88714  0.81363  1.0000
  Ti  Ti72      1.0  0.68746  0.82871  0.04288  1.0000
  Ti  Ti73      1.0  0.58001  0.36433  0.53430  1.0000
  Ti  Ti74      1.0  0.33873  0.35951  0.95004  1.0000
  Ti  Ti75      1.0  0.21212  0.39071  0.18791  1.0000
  Ti  Ti76      1.0  0.56976  0.56892  0.66951  1.0000
  Ti  Ti77      1.0  0.48841  0.41408  0.12671  1.0000
  Ti  Ti78      1.0  0.58192  0.52334  0.89852  1.0000
  Ti  Ti79      1.0  0.93867  0.47888  0.90810  1.0000
  Ti  Ti80      1.0  0.00126  0.53563  0.13477  1.0000
  Ti  Ti81      1.0  0.85455  0.42892  0.75580  1.0000
  Ti  Ti82      1.0  0.72576  0.02685  0.25945  1.0000
  Ti  Ti83      1.0  0.67759  0.71915  0.29796  1.0000
  Ti  Ti84      1.0  0.78307  0.70034  0.49366  1.0000
  Ti  Ti85      1.0  0.67632  0.17083  0.35745  1.0000
  Ti  Ti86      1.0  0.79401  0.19483  0.21211  1.0000
  Ti  Ti87      1.0  0.68001  0.29821  0.88931  1.0000
  Ti  Ti88      1.0  0.97238  0.28446  0.98772  1.0000
  Ti  Ti89      1.0  0.86504  0.19972  0.69169  1.0000
  Ti  Ti90      1.0  0.20750  0.85751  0.49965  1.0000
  Ti  Ti91      1.0  0.10846  0.54897  0.89849  1.0000
  Ti  Ti92      1.0  0.03274  0.34205  0.28965  1.0000
  Ti  Ti93      1.0  0.01652  0.58952  0.62364  1.0000
  Ti  Ti94      1.0  0.45872  0.16901  0.10182  1.0000
  Ti  Ti95      1.0  0.64998  0.93586  0.50637  1.0000
  Ti  Ti96      1.0  0.55792  0.11145  0.45283  1.0000
  I   I1        1.0  0.03387  0.99298  0.95497  1.0000
  I   I2        1.0  0.15220  0.02997  0.94752  1.0000
  I   I3        1.0  0.31041  0.96154  0.27085  1.0000
  I   I4        1.0  0.06065  0.34837  0.50715  1.0000
  I   I5        1.0  0.13087  0.17919  0.99929  1.0000
  I   I6        1.0  0.13850  0.18634  0.69123  1.0000
  I   I7        1.0  0.86557  0.09903  0.47161  1.0000
  I   I8        1.0  0.93823  0.00122  0.34764  1.0000
  I   I9        1.0  0.93866  0.76882  0.10712  1.0000
  I   I10       1.0  0.24371  0.73817  0.92964  1.0000
  I   I11       1.0  0.06179  0.80835  0.64166  1.0000
  I   I12       1.0  0.16143  0.86743  0.75487  1.0000
  I   I13       1.0  0.35681  0.20508  0.29758  1.0000
  I   I14       1.0  0.44204  0.05390  0.79712  1.0000
  I   I15       1.0  0.36885  0.04918  0.23290  1.0000
  I   I16       1.0  0.29207  0.56350  0.18837  1.0000
  I   I17       1.0  0.16343  0.64028  0.28750  1.0000
  I   I18       1.0  0.29290  0.41443  0.62083  1.0000
  I   I19       1.0  0.64633  0.63528  0.80531  1.0000
  I   I20       1.0  0.24909  0.62239  0.59023  1.0000
  I   I21       1.0  0.39700  0.65186  0.58837  1.0000
  I   I22       1.0  0.56022  0.92581  0.75098  1.0000
  I   I23       1.0  0.63246  0.84986  0.79609  1.0000
  I   I24       1.0  0.43124  0.75883  0.98553  1.0000
  I   I25       1.0  0.37340  0.33327  0.85429  1.0000
  I   I26       1.0  0.24455  0.38312  0.06869  1.0000
  I   I27       1.0  0.53303  0.35419  0.52065  1.0000
  I   I28       1.0  0.46206  0.40248  0.21664  1.0000
  I   I29       1.0  0.59916  0.49416  0.00401  1.0000
  I   I30       1.0  0.55189  0.52059  0.69029  1.0000
  I   I31       1.0  0.99862  0.51652  0.02897  1.0000
  I   I32       1.0  0.83757  0.42404  0.65433  1.0000
  I   I33       1.0  0.92029  0.48558  0.80407  1.0000
  I   I34       1.0  0.70056  0.67698  0.19088  1.0000
  I   I35       1.0  0.83292  0.66289  0.43471  1.0000
  I   I36       1.0  0.67569  0.07075  0.29736  1.0000
  I   I37       1.0  0.72463  0.23571  0.21259  1.0000
  I   I38       1.0  0.68745  0.34372  0.85884  1.0000
  I   I39       1.0  0.63570  0.16236  0.30365  1.0000
  I   I40       1.0  0.87526  0.14767  0.72112  1.0000
  I   I41       1.0  0.21198  0.81436  0.43200  1.0000
  I   I42       1.0  0.94142  0.29480  0.09783  1.0000
  I   I43       1.0  0.99603  0.36516  0.37308  1.0000
  I   I44       1.0  0.00938  0.56717  0.52498  1.0000
  I   I45       1.0  0.02116  0.57596  0.81801  1.0000
  I   I46       1.0  0.66983  0.88826  0.57385  1.0000
  I   I47       1.0  0.56470  0.05938  0.51371  1.0000
  I   I48       1.0  0.44518  0.13415  0.04702  1.0000
  I   I49       1.0  0.37349  0.83817  0.28963  1.0000
  I   I50       1.0  0.08332  0.04730  0.89885  1.0000
  I   I51       1.0  0.25156  0.00187  0.80868  1.0000
  I   I52       1.0  0.21817  0.04918  0.65619  1.0000
  I   I53       1.0  0.06663  0.35941  0.65541  1.0000
  I   I54       1.0  0.16710  0.23932  0.85976  1.0000
  I   I55       1.0  0.81140  0.83395  0.03849  1.0000
  I   I56       1.0  0.85001  0.00764  0.54865  1.0000
  I   I57       1.0  0.93948  0.83131  0.18503  1.0000
  I   I58       1.0  0.21687  0.79514  0.02967  1.0000
  I   I59       1.0  0.29376  0.70375  0.06557  1.0000
  I   I60       1.0  0.94519  0.83789  0.65438  1.0000
  I   I61       1.0  0.41543  0.13168  0.27074  1.0000
  I   I62       1.0  0.35408  0.27301  0.35684  1.0000
  I   I63       1.0  0.35817  0.08512  0.83179  1.0000
  I   I64       1.0  0.30669  0.51819  0.98564  1.0000
  I   I65       1.0  0.17542  0.61113  0.12148  1.0000
  I   I66       1.0  0.12472  0.66403  0.41260  1.0000
  I   I67       1.0  0.37941  0.70266  0.28755  1.0000
  I   I68       1.0  0.61081  0.69234  0.65192  1.0000
  I   I69       1.0  0.31428  0.68667  0.59418  1.0000
  I   I70       1.0  0.48016  0.72727  0.77524  1.0000
  I   I71       1.0  0.60376  0.80112  0.86601  1.0000
  I   I72       1.0  0.68144  0.81595  0.14648  1.0000
  I   I73       1.0  0.60047  0.30673  0.57974  1.0000
  I   I74       1.0  0.31026  0.39314  0.04796  1.0000
  I   I75       1.0  0.22389  0.36363  0.27735  1.0000
  I   I76       1.0  0.53133  0.32438  0.27393  1.0000
  I   I77       1.0  0.54363  0.38393  0.09363  1.0000
  I   I78       1.0  0.57273  0.54905  0.79717  1.0000
  I   I79       1.0  0.94409  0.49144  0.02171  1.0000
  I   I80       1.0  0.97195  0.58080  0.19731  1.0000
  I   I81       1.0  0.84949  0.45615  0.85582  1.0000
  I   I82       1.0  0.79296  0.92631  0.27474  1.0000
  I   I83       1.0  0.61328  0.67558  0.18262  1.0000
  I   I84       1.0  0.76849  0.74958  0.44050  1.0000
  I   I85       1.0  0.70344  0.16913  0.24895  1.0000
  I   I86       1.0  0.84968  0.15137  0.22975  1.0000
  I   I87       1.0  0.78250  0.20205  0.89500  1.0000
  I   I88       1.0  0.86337  0.38170  0.99745  1.0000
  I   I89       1.0  0.81966  0.26687  0.51032  1.0000
  I   I90       1.0  0.20483  0.90528  0.57109  1.0000
  I   I91       1.0  0.16508  0.52669  0.89221  1.0000
  I   I92       1.0  0.00324  0.31687  0.24481  1.0000
  I   I93       1.0  0.03135  0.62791  0.71542  1.0000
  I   I94       1.0  0.40713  0.20506  0.13019  1.0000
  I   I95       1.0  0.63157  0.98541  0.44381  1.0000
  I   I96       1.0  0.56882  0.14070  0.37424  1.0000
  I   I97       1.0  0.30819  0.89241  0.20798  1.0000
  I   I98       1.0  0.45538  0.81136  0.37449  1.0000
  I   I99       1.0  0.16059  0.03026  0.79640  1.0000
  I   I100      1.0  0.11880  0.09707  0.44319  1.0000
  I   I101      1.0  0.27022  0.00518  0.52248  1.0000
  I   I102      1.0  0.13032  0.36508  0.74202  1.0000
  I   I103      1.0  0.87140  0.79035  0.17273  1.0000
  I   I104      1.0  0.96904  0.70925  0.92988  1.0000
  I   I105      1.0  0.95591  0.76827  0.37490  1.0000
  I   I106      1.0  0.89747  0.88385  0.55380  1.0000
  I   I107      1.0  0.27090  0.78433  0.90811  1.0000
  I   I108      1.0  0.00990  0.76403  0.63559  1.0000
  I   I109      1.0  0.42371  0.05515  0.32035  1.0000
  I   I110      1.0  0.42943  0.17297  0.39298  1.0000
  I   I111      1.0  0.42634  0.98583  0.80608  1.0000
  I   I112      1.0  0.19531  0.45896  0.53980  1.0000
  I   I113      1.0  0.27086  0.59815  0.06681  1.0000
  I   I114      1.0  0.09776  0.67819  0.20977  1.0000
  I   I115      1.0  0.36279  0.65413  0.44260  1.0000
  I   I116      1.0  0.50856  0.57632  0.28361  1.0000
  I   I117      1.0  0.65852  0.74262  0.59392  1.0000
  I   I118      1.0  0.48040  0.77188  0.91077  1.0000
  I   I119      1.0  0.43555  0.72348  0.65838  1.0000
  I   I120      1.0  0.69061  0.78207  0.87613  1.0000
  I   I121      1.0  0.62416  0.29706  0.42857  1.0000
  I   I122      1.0  0.39497  0.34543  0.99009  1.0000
  I   I123      1.0  0.26723  0.39658  0.19315  1.0000
  I   I124      1.0  0.50440  0.59683  0.69749  1.0000
  I   I125      1.0  0.59145  0.31576  0.16803  1.0000
  I   I126      1.0  0.55944  0.56757  0.97832  1.0000
  I   I127      1.0  0.87230  0.51817  0.92920  1.0000
  I   I128      1.0  0.93819  0.53723  0.12772  1.0000
  I   I129      1.0  0.79053  0.46252  0.76329  1.0000
  I   I130      1.0  0.81087  0.62597  0.58612  1.0000
  I   I131      1.0  0.71577  0.97446  0.29964  1.0000
  I   I132      1.0  0.66063  0.75343  0.37922  1.0000
  I   I133      1.0  0.62539  0.33253  0.87874  1.0000
  I   I134      1.0  0.77724  0.16390  0.30237  1.0000
  I   I135      1.0  0.74505  0.31828  0.13824  1.0000
  I   I136      1.0  0.30095  0.87311  0.60338  1.0000
  I   I137      1.0  0.97118  0.23533  0.00085  1.0000
  I   I138      1.0  0.87483  0.18793  0.57183  1.0000
  I   I139      1.0  0.06863  0.61209  0.86645  1.0000
  I   I140      1.0  0.02256  0.39188  0.22327  1.0000
  I   I141      1.0  0.05805  0.59827  0.56064  1.0000
  I   I142      1.0  0.47655  0.18578  0.01613  1.0000
  I   I143      1.0  0.71314  0.91566  0.51045  1.0000
  I   I144      1.0  0.62175  0.07860  0.44991  1.0000
  I   I145      1.0  0.31805  0.89762  0.37640  1.0000
  I   I146      1.0  0.12457  0.96648  0.93702  1.0000
  I   I147      1.0  0.32856  0.91750  0.04279  1.0000
  I   I148      1.0  0.19572  0.08604  0.45734  1.0000
  I   I149      1.0  0.05546  0.43035  0.57813  1.0000
  I   I150      1.0  0.15553  0.17298  0.84500  1.0000
  I   I151      1.0  0.88225  0.73911  0.05932  1.0000
  I   I152      1.0  0.93508  0.02419  0.49738  1.0000
  I   I153      1.0  0.98977  0.76243  0.23439  1.0000
  I   I154      1.0  0.15635  0.79887  0.90848  1.0000
  I   I155      1.0  0.07674  0.71254  0.64733  1.0000
  I   I156      1.0  0.00136  0.83987  0.53491  1.0000
  I   I157      1.0  0.35658  0.12242  0.34305  1.0000
  I   I158      1.0  0.35931  0.03919  0.71120  1.0000
  I   I159      1.0  0.29662  0.09877  0.16619  1.0000
  I   I160      1.0  0.17016  0.53975  0.61587  1.0000
  I   I161      1.0  0.21594  0.64771  0.18468  1.0000
  I   I162      1.0  0.25302  0.49271  0.68582  1.0000
  I   I163      1.0  0.40524  0.62522  0.27679  1.0000
  I   I164      1.0  0.62401  0.70977  0.85668  1.0000
  I   I165      1.0  0.35601  0.60955  0.66726  1.0000
  I   I166      1.0  0.41411  0.79167  0.83545  1.0000
  I   I167      1.0  0.59073  0.88478  0.90472  1.0000
  I   I168      1.0  0.54786  0.71487  0.00337  1.0000
  I   I169      1.0  0.40333  0.38350  0.78767  1.0000
  I   I170      1.0  0.33797  0.31171  0.03944  1.0000
  I   I171      1.0  0.67788  0.33018  0.43350  1.0000
  I   I172      1.0  0.56283  0.57895  0.56332  1.0000
  I   I173      1.0  0.58322  0.56513  0.11626  1.0000
  I   I174      1.0  0.53028  0.51354  0.85779  1.0000
  I   I175      1.0  0.93377  0.54049  0.91444  1.0000
  I   I176      1.0  0.80592  0.37193  0.64590  1.0000
  I   I177      1.0  0.85924  0.48553  0.72178  1.0000
  I   I178      1.0  0.71134  0.00785  0.15944  1.0000
  I   I179      1.0  0.62331  0.72577  0.28498  1.0000
  I   I180      1.0  0.82178  0.72370  0.55022  1.0000
  I   I181      1.0  0.65386  0.23204  0.31985  1.0000
  I   I182      1.0  0.80260  0.22797  0.28934  1.0000
  I   I183      1.0  0.73593  0.18739  0.00871  1.0000
  I   I184      1.0  0.92039  0.30094  0.93129  1.0000
  I   I185      1.0  0.86778  0.28274  0.63966  1.0000
  I   I186      1.0  0.18850  0.84119  0.58417  1.0000
  I   I187      1.0  0.13432  0.30651  0.27127  1.0000
  I   I188      1.0  0.96087  0.63326  0.45119  1.0000
  I   I189      1.0  0.06780  0.55012  0.67913  1.0000
  I   I190      1.0  0.69125  0.82128  0.47655  1.0000
  I   I191      1.0  0.62081  0.98665  0.57197  1.0000
  I   I192      1.0  0.55287  0.13819  0.02645  1.0000
  I   I193      1.0  0.38451  0.80262  0.43136  1.0000
  I   I194      1.0  0.11888  0.98996  0.77021  1.0000
  I   I195      1.0  0.40903  0.85422  0.06878  1.0000
  I   I196      1.0  0.25276  0.08540  0.55504  1.0000
  I   I197      1.0  0.05115  0.42774  0.72522  1.0000
  I   I198      1.0  0.18479  0.22805  0.71386  1.0000
  I   I199      1.0  0.89037  0.71005  0.90729  1.0000
  I   I200      1.0  0.79279  0.10085  0.51101  1.0000
  I   I201      1.0  0.88905  0.81399  0.29411  1.0000
  I   I202      1.0  0.18437  0.86376  0.92519  1.0000
  I   I203      1.0  0.09199  0.72993  0.79134  1.0000
  I   I204      1.0  0.94036  0.93355  0.55424  1.0000
  I   I205      1.0  0.41414  0.11217  0.43576  1.0000
  I   I206      1.0  0.45705  0.98792  0.65381  1.0000
  I   I207      1.0  0.31641  0.11551  0.04575  1.0000
  I   I208      1.0  0.36111  0.53271  0.06113  1.0000
  I   I209      1.0  0.14453  0.69518  0.09145  1.0000
  I   I210      1.0  0.19456  0.47508  0.70919  1.0000
  I   I211      1.0  0.44999  0.67519  0.33811  1.0000
  I   I212      1.0  0.70730  0.65656  0.86939  1.0000
  I   I213      1.0  0.32319  0.61110  0.53409  1.0000
  I   I214      1.0  0.43630  0.79728  0.67884  1.0000
  I   I215      1.0  0.64632  0.80687  0.00575  1.0000
  I   I216      1.0  0.48101  0.77038  0.09665  1.0000
  I   I217      1.0  0.43475  0.38930  0.92098  1.0000
  I   I218      1.0  0.34652  0.34020  0.17193  1.0000
  I   I219      1.0  0.64346  0.35540  0.58007  1.0000
  I   I220      1.0  0.55083  0.39468  0.23726  1.0000
  I   I221      1.0  0.65502  0.49284  0.09448  1.0000
  I   I222      1.0  0.49655  0.59424  0.86046  1.0000
  I   I223      1.0  0.87626  0.57469  0.03064  1.0000
  I   I224      1.0  0.73725  0.42643  0.72346  1.0000
  I   I225      1.0  0.79828  0.53913  0.84558  1.0000
  I   I226      1.0  0.72710  0.92455  0.14248  1.0000
  I   I227      1.0  0.61933  0.75777  0.13131  1.0000
  I   I228      1.0  0.82700  0.67671  0.69496  1.0000
  I   I229      1.0  0.71132  0.18681  0.42312  1.0000
  I   I230      1.0  0.83547  0.27568  0.21272  1.0000
  I   I231      1.0  0.72205  0.27150  0.96635  1.0000
  I   I232      1.0  0.86662  0.30329  0.05790  1.0000
  I   I233      1.0  0.86571  0.21527  0.79195  1.0000
  I   I234      1.0  0.27023  0.80172  0.55524  1.0000
  I   I235      1.0  0.09570  0.38538  0.18067  1.0000
  I   I236      1.0  0.01726  0.67039  0.46781  1.0000
  I   I237      1.0  0.11540  0.58717  0.75858  1.0000
  I   I238      1.0  0.74528  0.85542  0.41047  1.0000
  I   I239      1.0  0.68616  0.00615  0.49299  1.0000
  I   I240      1.0  0.52834  0.22283  0.01081  1.0000
  I   I241      1.0  0.39325  0.86285  0.48708  1.0000
  I   I242      1.0  0.19066  0.95895  0.85980  1.0000
  I   I243      1.0  0.35510  0.82709  0.12638  1.0000
  I   I244      1.0  0.19370  0.01980  0.49962  1.0000
  I   I245      1.0  0.11951  0.42623  0.63495  1.0000
  I   I246      1.0  0.09315  0.25594  0.76424  1.0000
  I   I247      1.0  0.95544  0.66423  0.03297  1.0000
  I   I248      1.0  0.85301  0.04384  0.40496  1.0000
  I   I249      1.0  0.93833  0.72880  0.26660  1.0000
  I   I250      1.0  0.20785  0.79420  0.81576  1.0000
  I   I251      1.0  0.01621  0.73259  0.80464  1.0000
  I   I252      1.0  0.90225  0.91999  0.67357  1.0000
  I   I253      1.0  0.35333  0.18861  0.44386  1.0000
  I   I254      1.0  0.41899  0.06959  0.65422  1.0000
  I   I255      1.0  0.37936  0.03899  0.06769  1.0000
  I   I256      1.0  0.32611  0.48433  0.14362  1.0000
  I   I257      1.0  0.15444  0.71669  0.23669  1.0000
  I   I258      1.0  0.27876  0.39947  0.45641  1.0000
  I   I259      1.0  0.47304  0.63686  0.19743  1.0000
  I   I260      1.0  0.66479  0.72397  0.74176  1.0000
  I   I261      1.0  0.41074  0.58421  0.56142  1.0000
  I   I262      1.0  0.36525  0.78458  0.73107  1.0000
  I   I263      1.0  0.68792  0.84430  0.92951  1.0000
  I   I264      1.0  0.49225  0.68801  0.06784  1.0000
  I   I265      1.0  0.45802  0.30533  0.86066  1.0000
  I   I266      1.0  0.26986  0.32182  0.17329  1.0000
  I   I267      1.0  0.68854  0.26481  0.53217  1.0000
  I   I268      1.0  0.50082  0.35182  0.12454  1.0000
  I   I269      1.0  0.65639  0.55638  0.03930  1.0000
  I   I270      1.0  0.46346  0.56544  0.74357  1.0000
  I   I271      1.0  0.94291  0.59577  0.06517  1.0000
  I   I272      1.0  0.76818  0.45501  0.59412  1.0000
  I   I273      1.0  0.85122  0.56063  0.78504  1.0000
  I   I274      1.0  0.78796  0.93390  0.11781  1.0000
  I   I275      1.0  0.66003  0.68320  0.05466  1.0000
  I   I276      1.0  0.88004  0.62610  0.57732  1.0000
  I   I277      1.0  0.71939  0.24743  0.36167  1.0000
  I   I278      1.0  0.76046  0.31680  0.28770  1.0000
  I   I279      1.0  0.71495  0.18093  0.86796  1.0000
  I   I280      1.0  0.00422  0.27004  0.89290  1.0000
  I   I281      1.0  0.81017  0.24965  0.65521  1.0000
  I   I282      1.0  0.25835  0.84785  0.68423  1.0000
  I   I283      1.0  0.06317  0.36579  0.35002  1.0000
  I   I284      1.0  0.03208  0.59636  0.38994  1.0000
  I   I285      1.0  0.10163  0.51974  0.80989  1.0000
  I   I286      1.0  0.75791  0.81521  0.56331  1.0000
  I   I287      1.0  0.63597  0.06092  0.59788  1.0000
  I   I288      1.0  0.56977  0.17500  0.14848  1.0000
  I   I289      1.0  0.39240  0.89391  0.33937  1.0000
  I   I290      1.0  0.08180  0.99400  0.07991  1.0000
  I   I291      1.0  0.22597  0.97809  0.95758  1.0000
  I   I292      1.0  0.12194  0.04731  0.58155  1.0000
  I   I293      1.0  0.11756  0.38342  0.46432  1.0000
  I   I294      1.0  0.20555  0.17308  0.97222  1.0000
  I   I295      1.0  0.88744  0.77873  0.95242  1.0000
  I   I296      1.0  0.84649  0.08660  0.61970  1.0000
  I   I297      1.0  0.01068  0.80404  0.30176  1.0000
  I   I298      1.0  0.12413  0.80899  0.76333  1.0000
  I   I299      1.0  0.30736  0.77467  0.03164  1.0000
  I   I300      1.0  0.99576  0.87316  0.67289  1.0000
  I   I301      1.0  0.34375  0.14106  0.17957  1.0000
  I   I302      1.0  0.30538  0.27059  0.46995  1.0000
  I   I303      1.0  0.32974  0.11828  0.68907  1.0000
  I   I304      1.0  0.25417  0.36849  0.57520  1.0000
  I   I305      1.0  0.21779  0.56806  0.22599  1.0000
  I   I306      1.0  0.08210  0.74346  0.37323  1.0000
  I   I307      1.0  0.44271  0.60368  0.39524  1.0000
  I   I308      1.0  0.67763  0.65778  0.56344  1.0000
  I   I309      1.0  0.31104  0.55990  0.68593  1.0000
  I   I310      1.0  0.41044  0.72297  0.85911  1.0000
  I   I311      1.0  0.55164  0.85108  0.75551  1.0000
  I   I312      1.0  0.66320  0.88571  0.07346  1.0000
  I   I313      1.0  0.56858  0.39431  0.62235  1.0000
  I   I314      1.0  0.28568  0.37827  0.90510  1.0000
  I   I315      1.0  0.17575  0.37674  0.14264  1.0000
  I   I316      1.0  0.62120  0.52631  0.66631  1.0000
  I   I317      1.0  0.48831  0.46097  0.17310  1.0000
  I   I318      1.0  0.61041  0.47099  0.84656  1.0000
  I   I319      1.0  0.99470  0.45600  0.90027  1.0000
  I   I320      1.0  0.03622  0.55496  0.09732  1.0000
  I   I321      1.0  0.90717  0.40166  0.72216  1.0000
  I   I322      1.0  0.76383  0.02065  0.33439  1.0000
  I   I323      1.0  0.71964  0.73186  0.26048  1.0000
  I   I324      1.0  0.76425  0.71187  0.59184  1.0000
  I   I325      1.0  0.71713  0.11496  0.36609  1.0000
  I   I326      1.0  0.79272  0.23127  0.13877  1.0000
  I   I327      1.0  0.66556  0.25298  0.93232  1.0000
  I   I328      1.0  0.01683  0.28118  0.04857  1.0000
  I   I329      1.0  0.90278  0.24084  0.50895  1.0000
  I   I330      1.0  0.16716  0.90271  0.45314  1.0000
  I   I331      1.0  0.10666  0.50613  0.95897  1.0000
  I   I332      1.0  0.06958  0.28972  0.32835  1.0000
  I   I333      1.0  0.98041  0.58241  0.68631  1.0000
  I   I334      1.0  0.47492  0.21114  0.15209  1.0000
  I   I335      1.0  0.59504  0.94190  0.49412  1.0000
  I   I336      1.0  0.53535  0.15104  0.53108  1.0000
  I   I337      1.0  0.37499  0.90663  0.18769  1.0000
  I   I338      1.0  0.03049  0.06314  0.02282  1.0000
  I   I339      1.0  0.20129  0.06394  0.90740  1.0000
  I   I340      1.0  0.13658  0.11059  0.60744  1.0000
  I   I341      1.0  0.14403  0.33036  0.58622  1.0000
  I   I342      1.0  0.13638  0.25024  0.00657  1.0000
  I   I343      1.0  0.88481  0.84016  0.04515  1.0000
  I   I344      1.0  0.92655  0.07723  0.35778  1.0000
  I   I345      1.0  0.92157  0.85957  0.34082  1.0000
  I   I346      1.0  0.09215  0.87237  0.86988  1.0000
  I   I347      1.0  0.33852  0.70848  0.92758  1.0000
  I   I348      1.0  0.01320  0.80657  0.76183  1.0000
  I   I349      1.0  0.41051  0.08481  0.15093  1.0000
  I   I350      1.0  0.27699  0.27531  0.33046  1.0000
  I   I351      1.0  0.37630  0.13855  0.76809  1.0000
  I   I352      1.0  0.24893  0.48042  0.53079  1.0000
  I   I353      1.0  0.24761  0.53590  0.07222  1.0000
  I   I354      1.0  0.17799  0.69957  0.39070  1.0000
  I   I355      1.0  0.39232  0.70437  0.45030  1.0000
  I   I356      1.0  0.70408  0.64389  0.70447  1.0000
  I   I357      1.0  0.28021  0.64476  0.72744  1.0000
  I   I358      1.0  0.50335  0.69406  0.91937  1.0000
  I   I359      1.0  0.50713  0.91808  0.85346  1.0000
  I   I360      1.0  0.74231  0.80862  0.03901  1.0000
  I   I361      1.0  0.57979  0.38863  0.44633  1.0000
  I   I362      1.0  0.33749  0.40829  0.91296  1.0000
  I   I363      1.0  0.17774  0.44485  0.20479  1.0000
  I   I364      1.0  0.57626  0.61409  0.68964  1.0000
  I   I365      1.0  0.45628  0.43164  0.04342  1.0000
  I   I366      1.0  0.63015  0.53131  0.89605  1.0000
  I   I367      1.0  0.93297  0.43270  0.92703  1.0000
  I   I368      1.0  0.02508  0.50008  0.21010  1.0000
  I   I369      1.0  0.85018  0.38646  0.81112  1.0000
  I   I370      1.0  0.75090  0.04975  0.19507  1.0000
  I   I371      1.0  0.71065  0.66927  0.34818  1.0000
  I   I372      1.0  0.73911  0.69320  0.46544  1.0000
  I   I373      1.0  0.64879  0.16366  0.44884  1.0000
  I   I374      1.0  0.77757  0.16661  0.14338  1.0000
  I   I375      1.0  0.69619  0.27186  0.79553  1.0000
  I   I376      1.0  0.94093  0.34727  0.98857  1.0000
  I   I377      1.0  0.91175  0.20845  0.67347  1.0000
  I   I378      1.0  0.24898  0.87446  0.46664  1.0000
  I   I379      1.0  0.11071  0.57538  0.98855  1.0000
  I   I380      1.0  0.07137  0.31469  0.19567  1.0000
  I   I381      1.0  0.97648  0.64512  0.60259  1.0000
  I   I382      1.0  0.48058  0.12720  0.17904  1.0000
  I   I383      1.0  0.66874  0.90152  0.41389  1.0000
  I   I384      1.0  0.51602  0.10760  0.40542  1.0000
