data_image0
_chemical_formula_structural       Ti96I384
_chemical_formula_sum              "Ti96 I384"
_cell_length_a       68.9309
_cell_length_b       68.7569
_cell_length_c       33.7017
_cell_angle_alpha    88.7757
_cell_angle_beta     88.7757
_cell_angle_gamma    62.1586

_space_group_name_H-M_alt    "P 1"
_space_group_IT_number       1

loop_
  _space_group_symop_operation_xyz
  'x, y, z'

loop_
  _atom_site_type_symbol
  _atom_site_label
  _atom_site_symmetry_multiplicity
  _atom_site_fract_x
  _atom_site_fract_y
  _atom_site_fract_z
  _atom_site_occupancy
  Ti  Ti1       1.0  0.08271  0.81173  0.86165  1.0000
  Ti  Ti2       1.0  0.99107  0.14611  0.26351  1.0000
  Ti  Ti3       1.0  0.49141  0.97031  0.75725  1.0000
  Ti  Ti4       1.0  0.92639  0.36034  0.34245  1.0000
  Ti  Ti5       1.0  0.38528  0.76609  0.25250  1.0000
  Ti  Ti6       1.0  0.74167  0.94213  0.16659  1.0000
  Ti  Ti7       1.0  0.96451  0.53105  0.59002  1.0000
  Ti  Ti8       1.0  0.17248  0.73372  0.44609  1.0000
  Ti  Ti9       1.0  0.26174  0.04910  0.84384  1.0000
  Ti  Ti10      1.0  0.05962  0.61054  0.50767  1.0000
  Ti  Ti11      1.0  0.20925  0.37222  0.45387  1.0000
  Ti  Ti12      1.0  0.07928  0.58919  0.07637  1.0000
  Ti  Ti13      1.0  0.85737  0.16596  0.55519  1.0000
  Ti  Ti14      1.0  0.96289  0.00004  0.69096  1.0000
  Ti  Ti15      1.0  0.84509  0.88707  0.38419  1.0000
  Ti  Ti16      1.0  0.09898  0.62893  0.50740  1.0000
  Ti  Ti17      1.0  0.29378  0.99902  0.46982  1.0000
  Ti  Ti18      1.0  0.50579  0.82861  0.77678  1.0000
  Ti  Ti19      1.0  0.53636  0.66400  0.66805  1.0000
  Ti  Ti20      1.0  0.27917  0.15275  0.59952  1.0000
  Ti  Ti21      1.0  0.24907  0.68198  0.44476  1.0000
  Ti  Ti22      1.0  0.60370  0.88741  0.35447  1.0000
  Ti  Ti23      1.0  0.40267  0.15652  0.37899  1.0000
  Ti  Ti24      1.0  0.29179  0.71893  0.66427  1.0000
  Ti  Ti25      1.0  0.42566  0.00948  0.33673  1.0000
  Ti  Ti26      1.0  0.28994  0.81247  0.97329  1.0000
  Ti  Ti27      1.0  0.73362  0.18208  0.83006  1.0000
  Ti  Ti28      1.0  0.68697  0.67397  0.10514  1.0000
  Ti  Ti29      1.0  0.06597  0.75850  0.35538  1.0000
  Ti  Ti30      1.0  0.39352  0.92218  0.89020  1.0000
  Ti  Ti31      1.0  0.21282  0.40187  0.16694  1.0000
  Ti  Ti32      1.0  0.07805  0.15396  0.65664  1.0000
  Ti  Ti33      1.0  0.19624  0.87824  0.59909  1.0000
  Ti  Ti34      1.0  0.34410  0.28282  0.27966  1.0000
  Ti  Ti35      1.0  0.69683  0.55480  0.52481  1.0000
  Ti  Ti36      1.0  0.17485  0.07695  0.14100  1.0000
  Ti  Ti37      1.0  0.10027  0.28446  0.44098  1.0000
  Ti  Ti38      1.0  0.38308  0.48274  0.17218  1.0000
  Ti  Ti39      1.0  0.02202  0.51471  0.29049  1.0000
  Ti  Ti40      1.0  0.17197  0.40917  0.70304  1.0000
  Ti  Ti41      1.0  0.44163  0.34582  0.61961  1.0000
  Ti  Ti42      1.0  0.20594  0.98044  0.51992  1.0000
  Ti  Ti43      1.0  0.29716  0.96405  0.06208  1.0000
  Ti  Ti44      1.0  0.73829  0.75091  0.37440  1.0000
  Ti  Ti45      1.0  0.16436  0.50142  0.31044  1.0000
  Ti  Ti46      1.0  0.78640  0.37395  0.47783  1.0000
  Ti  Ti47      1.0  0.37529  0.61398  0.59554  1.0000
  Ti  Ti48      1.0  0.81175  0.00626  0.30135  1.0000
  Ti  Ti49      1.0  0.01257  0.14870  0.49638  1.0000
  Ti  Ti50      1.0  0.10986  0.33350  0.87090  1.0000
  Ti  Ti51      1.0  0.96891  0.20146  0.21837  1.0000
  Ti  Ti52      1.0  0.74228  0.15371  0.49968  1.0000
  Ti  Ti53      1.0  0.39244  0.72408  0.50166  1.0000
  Ti  Ti54      1.0  0.81596  0.93638  0.06256  1.0000
  Ti  Ti55      1.0  0.98888  0.47810  0.49980  1.0000
  Ti  Ti56      1.0  0.81753  0.34958  0.00010  1.0000
  Ti  Ti57      1.0  0.30124  0.05698  0.79768  1.0000
  Ti  Ti58      1.0  0.63212  0.34460  0.62577  1.0000
  Ti  Ti59      1.0  0.46181  0.33757  0.83456  1.0000
  Ti  Ti60      1.0  0.10818  0.58897  0.98216  1.0000
  Ti  Ti61      1.0  0.87530  0.87650  0.46859  1.0000
  Ti  Ti62      1.0  0.81434  0.16407  0.48495  1.0000
  Ti  Ti63      1.0  0.97117  0.94709  0.70723  1.0000
  Ti  Ti64      1.0  0.56137  0.83252  0.81953  1.0000
  Ti  Ti65      1.0  0.75595  0.05864  0.81761  1.0000
  Ti  Ti66      1.0  0.42739  0.21011  0.92647  1.0000
  Ti  Ti67      1.0  0.50199  0.75661  0.53910  1.0000
  Ti  Ti68      1.0  0.56986  0.63478  0.71739  1.0000
  Ti  Ti69      1.0  0.24385  0.85033  0.90549  1.0000
  Ti  Ti70      1.0  0.33444  0.95357  0.17562  1.0000
  Ti  Ti71      1.0  0.38019  0.11289  0.34390  1.0000
  Ti  Ti72      1.0  0.28552  0.35481  0.82592  1.0000
  Ti  Ti73      1.0  0.80003  0.15794  0.84789  1.0000
  Ti  Ti74      1.0  0.48738  0.00645  0.38389  1.0000
  Ti  Ti75      1.0  0.32551  0.79705  0.84108  1.0000
  Ti  Ti76      1.0  0.35976  0.87891  0.87835  1.0000
  Ti  Ti77      1.0  0.66192  0.66841  0.21154  1.0000
  Ti  Ti78      1.0  0.02120  0.75515  0.36617  1.0000
  Ti  Ti79      1.0  0.65091  0.54243  0.15935  1.0000
  Ti  Ti80      1.0  0.94013  0.30366  0.31214  1.0000
  Ti  Ti81      1.0  0.02377  0.19873  0.68132  1.0000
  Ti  Ti82      1.0  0.40317  0.27287  0.40905  1.0000
  Ti  Ti83      1.0  0.74140  0.54733  0.64172  1.0000
  Ti  Ti84      1.0  0.14245  0.14193  0.11898  1.0000
  Ti  Ti85      1.0  0.07845  0.25783  0.43516  1.0000
  Ti  Ti86      1.0  0.41552  0.17479  0.92260  1.0000
  Ti  Ti87      1.0  0.08713  0.52463  0.30663  1.0000
  Ti  Ti88      1.0  0.67257  0.16694  0.34134  1.0000
  Ti  Ti89      1.0  0.39071  0.35753  0.61101  1.0000
  Ti  Ti90      1.0  0.14689  0.03429  0.50543  1.0000
  Ti  Ti91      1.0  0.19419  0.70909  0.71463  1.0000
  Ti  Ti92      1.0  0.33611  0.66887  0.99603  1.0000
  Ti  Ti93      1.0  0.05886  0.77229  0.04398  1.0000
  Ti  Ti94      1.0  0.74421  0.05652  0.28557  1.0000
  Ti  Ti95      1.0  0.75015  0.40337  0.54605  1.0000
  Ti  Ti96      1.0  0.33977  0.57334  0.60386  1.0000
  I   I1        1.0  0.34669  0.65926  0.58255  1.0000
  I   I2        1.0  0.98592  0.18597  0.14803  1.0000
  I   I3        1.0  0.97729  0.18506  0.48991  1.0000
  I   I4        1.0  0.39426  0.71015  0.42737  1.0000
  I   I5        1.0  0.74395  0.91369  0.22298  1.0000
  I   I6        1.0  0.84395  0.95152  0.07271  1.0000
  I   I7        1.0  0.15083  0.75952  0.38614  1.0000
  I   I8        1.0  0.80957  0.33553  0.07021  1.0000
  I   I9        1.0  0.29533  0.05656  0.71996  1.0000
  I   I10       1.0  0.11689  0.61359  0.57404  1.0000
  I   I11       1.0  0.18831  0.38228  0.52249  1.0000
  I   I12       1.0  0.35009  0.80266  0.23415  1.0000
  I   I13       1.0  0.84456  0.19658  0.49570  1.0000
  I   I14       1.0  0.98699  0.01984  0.66666  1.0000
  I   I15       1.0  0.85684  0.91790  0.41271  1.0000
  I   I16       1.0  0.13078  0.61622  0.45540  1.0000
  I   I17       1.0  0.39186  0.22087  0.97794  1.0000
  I   I18       1.0  0.53365  0.80753  0.84063  1.0000
  I   I19       1.0  0.26688  0.17458  0.52967  1.0000
  I   I20       1.0  0.20648  0.33925  0.41092  1.0000
  I   I21       1.0  0.20390  0.69454  0.48776  1.0000
  I   I22       1.0  0.38742  0.18534  0.43736  1.0000
  I   I23       1.0  0.41631  0.12663  0.32238  1.0000
  I   I24       1.0  0.37435  0.95444  0.19026  1.0000
  I   I25       1.0  0.47645  0.04760  0.39774  1.0000
  I   I26       1.0  0.34201  0.76096  0.80478  1.0000
  I   I27       1.0  0.82195  0.16580  0.79860  1.0000
  I   I28       1.0  0.71613  0.63836  0.06001  1.0000
  I   I29       1.0  0.06277  0.71656  0.36466  1.0000
  I   I30       1.0  0.35392  0.95588  0.89932  1.0000
  I   I31       1.0  0.93337  0.30672  0.22532  1.0000
  I   I32       1.0  0.03831  0.15474  0.67305  1.0000
  I   I33       1.0  0.67747  0.51131  0.11480  1.0000
  I   I34       1.0  0.65253  0.57415  0.53264  1.0000
  I   I35       1.0  0.19988  0.04564  0.08346  1.0000
  I   I36       1.0  0.30707  0.28775  0.26405  1.0000
  I   I37       1.0  0.06118  0.24432  0.38140  1.0000
  I   I38       1.0  0.04330  0.53987  0.25860  1.0000
  I   I39       1.0  0.04692  0.30261  0.43247  1.0000
  I   I40       1.0  0.44739  0.36157  0.68928  1.0000
  I   I41       1.0  0.22089  0.93925  0.49238  1.0000
  I   I42       1.0  0.19978  0.36545  0.70378  1.0000
  I   I43       1.0  0.59352  0.36680  0.65850  1.0000
  I   I44       1.0  0.77302  0.71719  0.34821  1.0000
  I   I45       1.0  0.12758  0.52230  0.26359  1.0000
  I   I46       1.0  0.73287  0.38013  0.51991  1.0000
  I   I47       1.0  0.40360  0.61629  0.54518  1.0000
  I   I48       1.0  0.79380  0.04165  0.25032  1.0000
  I   I49       1.0  0.02006  0.13194  0.42733  1.0000
  I   I50       1.0  0.93695  0.23916  0.17872  1.0000
  I   I51       1.0  0.98967  0.22758  0.22917  1.0000
  I   I52       1.0  0.88867  0.36224  0.31680  1.0000
  I   I53       1.0  0.35145  0.75125  0.52712  1.0000
  I   I54       1.0  0.81223  0.94732  0.98646  1.0000
  I   I55       1.0  0.95368  0.52872  0.51653  1.0000
  I   I56       1.0  0.27862  0.67625  0.38756  1.0000
  I   I57       1.0  0.22622  0.06769  0.87879  1.0000
  I   I58       1.0  0.01656  0.63760  0.48280  1.0000
  I   I59       1.0  0.42125  0.36711  0.82653  1.0000
  I   I60       1.0  0.10383  0.62296  0.93918  1.0000
  I   I61       1.0  0.80214  0.19037  0.55179  1.0000
  I   I62       1.0  0.84886  0.18175  0.62791  1.0000
  I   I63       1.0  0.00370  0.96024  0.71513  1.0000
  I   I64       1.0  0.04838  0.65267  0.53731  1.0000
  I   I65       1.0  0.78023  0.04033  0.88288  1.0000
  I   I66       1.0  0.45293  0.22560  0.95513  1.0000
  I   I67       1.0  0.54347  0.65940  0.59251  1.0000
  I   I68       1.0  0.32003  0.13956  0.61373  1.0000
  I   I69       1.0  0.20951  0.85536  0.95334  1.0000
  I   I70       1.0  0.31733  0.95335  0.24334  1.0000
  I   I71       1.0  0.38915  0.18332  0.31117  1.0000
  I   I72       1.0  0.29310  0.38698  0.84840  1.0000
  I   I73       1.0  0.81478  0.11746  0.82561  1.0000
  I   I74       1.0  0.32087  0.82172  0.98691  1.0000
  I   I75       1.0  0.29257  0.83478  0.87524  1.0000
  I   I76       1.0  0.69439  0.64143  0.16354  1.0000
  I   I77       1.0  0.66912  0.70227  0.16294  1.0000
  I   I78       1.0  0.06119  0.83255  0.79871  1.0000
  I   I79       1.0  0.19270  0.90979  0.64474  1.0000
  I   I80       1.0  0.24547  0.41108  0.17434  1.0000
  I   I81       1.0  0.08500  0.16609  0.72281  1.0000
  I   I82       1.0  0.38489  0.31670  0.41011  1.0000
  I   I83       1.0  0.71780  0.57423  0.69684  1.0000
  I   I84       1.0  0.20313  0.08028  0.18275  1.0000
  I   I85       1.0  0.12199  0.23732  0.42448  1.0000
  I   I86       1.0  0.44818  0.13205  0.90470  1.0000
  I   I87       1.0  0.03605  0.47091  0.28841  1.0000
  I   I88       1.0  0.16087  0.41646  0.63337  1.0000
  I   I89       1.0  0.35261  0.39194  0.62603  1.0000
  I   I90       1.0  0.14245  0.06768  0.45805  1.0000
  I   I91       1.0  0.20728  0.70388  0.64175  1.0000
  I   I92       1.0  0.32736  0.70602  0.96164  1.0000
  I   I93       1.0  0.75568  0.76528  0.42863  1.0000
  I   I94       1.0  0.74967  0.07128  0.35365  1.0000
  I   I95       1.0  0.82964  0.36038  0.47561  1.0000
  I   I96       1.0  0.33350  0.57780  0.52905  1.0000
  I   I97       1.0  0.52468  0.97632  0.77231  1.0000
  I   I98       1.0  0.06598  0.83544  0.92322  1.0000
  I   I99       1.0  0.02531  0.15645  0.24088  1.0000
  I   I100      1.0  0.90074  0.40584  0.35991  1.0000
  I   I101      1.0  0.74953  0.17770  0.55409  1.0000
  I   I102      1.0  0.37612  0.76220  0.32679  1.0000
  I   I103      1.0  0.00735  0.49614  0.55696  1.0000
  I   I104      1.0  0.97375  0.52199  0.67144  1.0000
  I   I105      1.0  0.27973  0.01157  0.89240  1.0000
  I   I106      1.0  0.09429  0.58515  0.14699  1.0000
  I   I107      1.0  0.04702  0.60074  0.57062  1.0000
  I   I108      1.0  0.09641  0.61600  0.04752  1.0000
  I   I109      1.0  0.80680  0.90113  0.37000  1.0000
  I   I110      1.0  0.84471  0.14683  0.42764  1.0000
  I   I111      1.0  0.97005  0.94399  0.78463  1.0000
  I   I112      1.0  0.58867  0.84984  0.80460  1.0000
  I   I113      1.0  0.73610  0.09721  0.86048  1.0000
  I   I114      1.0  0.31244  0.01689  0.41658  1.0000
  I   I115      1.0  0.50402  0.75599  0.62073  1.0000
  I   I116      1.0  0.46035  0.77381  0.53437  1.0000
  I   I117      1.0  0.56208  0.61115  0.76628  1.0000
  I   I118      1.0  0.57331  0.92659  0.36867  1.0000
  I   I119      1.0  0.35828  0.91004  0.17299  1.0000
  I   I120      1.0  0.26768  0.33079  0.84844  1.0000
  I   I121      1.0  0.76360  0.15355  0.88103  1.0000
  I   I122      1.0  0.39030  0.03656  0.38207  1.0000
  I   I123      1.0  0.31187  0.78440  0.92418  1.0000
  I   I124      1.0  0.39484  0.89463  0.83491  1.0000
  I   I125      1.0  0.69346  0.69608  0.04800  1.0000
  I   I126      1.0  0.04359  0.76658  0.43270  1.0000
  I   I127      1.0  0.15577  0.89802  0.56593  1.0000
  I   I128      1.0  0.96058  0.37048  0.36005  1.0000
  I   I129      1.0  0.08859  0.11266  0.66938  1.0000
  I   I130      1.0  0.13531  0.10441  0.09968  1.0000
  I   I131      1.0  0.38667  0.27087  0.32920  1.0000
  I   I132      1.0  0.71065  0.53319  0.61348  1.0000
  I   I133      1.0  0.00701  0.50948  0.22087  1.0000
  I   I134      1.0  0.39869  0.44006  0.16388  1.0000
  I   I135      1.0  0.38762  0.19978  0.86990  1.0000
  I   I136      1.0  0.12705  0.01877  0.45005  1.0000
  I   I137      1.0  0.70613  0.14690  0.29395  1.0000
  I   I138      1.0  0.47558  0.34710  0.57750  1.0000
  I   I139      1.0  0.21849  0.67521  0.75470  1.0000
  I   I140      1.0  0.34539  0.63367  0.95815  1.0000
  I   I141      1.0  0.03914  0.76348  0.98871  1.0000
  I   I142      1.0  0.76489  0.01184  0.27641  1.0000
  I   I143      1.0  0.78989  0.33485  0.49272  1.0000
  I   I144      1.0  0.30171  0.58015  0.63661  1.0000
  I   I145      1.0  0.12520  0.80229  0.86964  1.0000
  I   I146      1.0  0.00303  0.11326  0.21506  1.0000
  I   I147      1.0  0.48774  0.93594  0.75394  1.0000
  I   I148      1.0  0.74818  0.13922  0.42511  1.0000
  I   I149      1.0  0.40453  0.79200  0.25533  1.0000
  I   I150      1.0  0.76994  0.91208  0.11838  1.0000
  I   I151      1.0  0.03227  0.44397  0.49639  1.0000
  I   I152      1.0  0.14160  0.72708  0.47489  1.0000
  I   I153      1.0  0.33444  0.06578  0.80230  1.0000
  I   I154      1.0  0.33726  0.93126  0.04064  1.0000
  I   I155      1.0  0.21356  0.40100  0.41382  1.0000
  I   I156      1.0  0.10174  0.57302  0.91788  1.0000
  I   I157      1.0  0.87464  0.87908  0.32102  1.0000
  I   I158      1.0  0.98778  0.90504  0.68615  1.0000
  I   I159      1.0  0.90853  0.84091  0.50196  1.0000
  I   I160      1.0  0.46801  0.83277  0.79054  1.0000
  I   I161      1.0  0.30308  0.01143  0.54330  1.0000
  I   I162      1.0  0.48574  0.85998  0.72388  1.0000
  I   I163      1.0  0.53387  0.62539  0.66718  1.0000
  I   I164      1.0  0.60275  0.63655  0.75704  1.0000
  I   I165      1.0  0.26884  0.63927  0.43108  1.0000
  I   I166      1.0  0.62835  0.88802  0.29656  1.0000
  I   I167      1.0  0.34023  0.11792  0.34971  1.0000
  I   I168      1.0  0.33420  0.69491  0.67968  1.0000
  I   I169      1.0  0.45679  0.98677  0.39687  1.0000
  I   I170      1.0  0.50837  0.98728  0.44659  1.0000
  I   I171      1.0  0.76639  0.20172  0.84570  1.0000
  I   I172      1.0  0.31966  0.90960  0.86687  1.0000
  I   I173      1.0  0.00729  0.74774  0.29856  1.0000
  I   I174      1.0  0.37686  0.89793  0.94136  1.0000
  I   I175      1.0  0.19545  0.40614  0.23619  1.0000
  I   I176      1.0  0.10717  0.14957  0.60374  1.0000
  I   I177      1.0  0.67255  0.56242  0.19293  1.0000
  I   I178      1.0  0.40097  0.28245  0.49144  1.0000
  I   I179      1.0  0.76197  0.52711  0.57377  1.0000
  I   I180      1.0  0.13759  0.12216  0.18058  1.0000
  I   I181      1.0  0.09315  0.27423  0.52327  1.0000
  I   I182      1.0  0.45077  0.17231  0.87462  1.0000
  I   I183      1.0  0.12361  0.50662  0.35606  1.0000
  I   I184      1.0  0.65927  0.13897  0.36404  1.0000
  I   I185      1.0  0.46688  0.30463  0.66515  1.0000
  I   I186      1.0  0.24046  0.96798  0.56962  1.0000
  I   I187      1.0  0.37107  0.66786  0.02515  1.0000
  I   I188      1.0  0.73346  0.78290  0.32511  1.0000
  I   I189      1.0  0.18838  0.49240  0.24290  1.0000
  I   I190      1.0  0.76298  0.38236  0.41074  1.0000
  I   I191      1.0  0.07838  0.35777  0.82576  1.0000
  I   I192      1.0  0.85016  0.00448  0.33334  1.0000
  I   I193      1.0  0.11011  0.73263  0.33774  1.0000
  I   I194      1.0  0.09558  0.30493  0.88936  1.0000
  I   I195      1.0  0.48776  0.98931  0.68645  1.0000
  I   I196      1.0  0.94981  0.33591  0.27706  1.0000
  I   I197      1.0  0.66037  0.31789  0.67993  1.0000
  I   I198      1.0  0.70488  0.96071  0.13026  1.0000
  I   I199      1.0  0.97144  0.56616  0.59492  1.0000
  I   I200      1.0  0.77590  0.36483  0.98513  1.0000
  I   I201      1.0  0.24166  0.05798  0.76840  1.0000
  I   I202      1.0  0.49623  0.34215  0.81997  1.0000
  I   I203      1.0  0.22438  0.84510  0.84936  1.0000
  I   I204      1.0  0.05858  0.59464  0.99600  1.0000
  I   I205      1.0  0.89928  0.14404  0.56342  1.0000
  I   I206      1.0  0.97398  0.96817  0.62656  1.0000
  I   I207      1.0  0.90773  0.88379  0.44955  1.0000
  I   I208      1.0  0.06539  0.63800  0.44721  1.0000
  I   I209      1.0  0.30112  0.95933  0.46130  1.0000
  I   I210      1.0  0.52677  0.79545  0.72781  1.0000
  I   I211      1.0  0.51461  0.78179  0.50728  1.0000
  I   I212      1.0  0.27934  0.11448  0.60399  1.0000
  I   I213      1.0  0.23662  0.89033  0.88682  1.0000
  I   I214      1.0  0.61639  0.87773  0.42546  1.0000
  I   I215      1.0  0.36109  0.15472  0.38621  1.0000
  I   I216      1.0  0.27188  0.75735  0.69818  1.0000
  I   I217      1.0  0.40260  0.02369  0.26684  1.0000
  I   I218      1.0  0.32047  0.82340  0.77719  1.0000
  I   I219      1.0  0.70777  0.16242  0.83648  1.0000
  I   I220      1.0  0.62643  0.70362  0.25144  1.0000
  I   I221      1.0  0.04334  0.78339  0.28998  1.0000
  I   I222      1.0  0.39418  0.94648  0.82811  1.0000
  I   I223      1.0  0.17889  0.42088  0.12643  1.0000
  I   I224      1.0  0.05089  0.18953  0.60095  1.0000
  I   I225      1.0  0.23951  0.86085  0.58070  1.0000
  I   I226      1.0  0.44807  0.25289  0.40758  1.0000
  I   I227      1.0  0.77504  0.52283  0.68367  1.0000
  I   I228      1.0  0.14414  0.17270  0.16844  1.0000
  I   I229      1.0  0.13307  0.28820  0.47469  1.0000
  I   I230      1.0  0.34766  0.49679  0.12899  1.0000
  I   I231      1.0  0.98191  0.53961  0.31843  1.0000
  I   I232      1.0  0.92388  0.03281  0.67028  1.0000
  I   I233      1.0  0.41209  0.38389  0.59251  1.0000
  I   I234      1.0  0.10791  0.06613  0.53253  1.0000
  I   I235      1.0  0.30952  0.98925  0.01404  1.0000
  I   I236      1.0  0.03234  0.79539  0.10098  1.0000
  I   I237      1.0  0.15355  0.71575  0.70769  1.0000
  I   I238      1.0  0.71387  0.44429  0.53575  1.0000
  I   I239      1.0  0.36711  0.53073  0.61023  1.0000
  I   I240      1.0  0.82440  0.97297  0.25930  1.0000
  I   I241      1.0  0.03781  0.16503  0.50828  1.0000
  I   I242      1.0  0.95203  0.16950  0.21570  1.0000
  I   I243      1.0  0.45951  0.00063  0.80759  1.0000
  I   I244      1.0  0.70427  0.18549  0.49057  1.0000
  I   I245      1.0  0.41402  0.69523  0.55169  1.0000
  I   I246      1.0  0.76305  0.95843  0.21139  1.0000
  I   I247      1.0  0.98495  0.45550  0.55883  1.0000
  I   I248      1.0  0.21525  0.71371  0.39140  1.0000
  I   I249      1.0  0.26171  0.09564  0.80959  1.0000
  I   I250      1.0  0.46811  0.33733  0.91254  1.0000
  I   I251      1.0  0.24890  0.35286  0.48830  1.0000
  I   I252      1.0  0.11406  0.54766  0.04143  1.0000
  I   I253      1.0  0.79793  0.13777  0.47902  1.0000
  I   I254      1.0  0.92753  0.98131  0.71627  1.0000
  I   I255      1.0  0.87000  0.89167  0.54600  1.0000
  I   I256      1.0  0.72144  0.05454  0.83157  1.0000
  I   I257      1.0  0.25303  0.01767  0.49533  1.0000
  I   I258      1.0  0.57044  0.81492  0.74812  1.0000
  I   I259      1.0  0.52040  0.72085  0.49996  1.0000
  I   I260      1.0  0.53427  0.67456  0.74797  1.0000
  I   I261      1.0  0.18245  0.76389  0.46815  1.0000
  I   I262      1.0  0.58904  0.85999  0.33469  1.0000
  I   I263      1.0  0.40566  0.08803  0.40255  1.0000
  I   I264      1.0  0.26750  0.69813  0.67702  1.0000
  I   I265      1.0  0.45900  0.02026  0.31821  1.0000
  I   I266      1.0  0.25883  0.85888  0.97846  1.0000
  I   I267      1.0  0.82190  0.15423  0.91347  1.0000
  I   I268      1.0  0.63196  0.65671  0.19125  1.0000
  I   I269      1.0  0.99290  0.79875  0.38934  1.0000
  I   I270      1.0  0.36022  0.85413  0.93329  1.0000
  I   I271      1.0  0.22684  0.35846  0.14829  1.0000
  I   I272      1.0  0.02178  0.20563  0.76136  1.0000
  I   I273      1.0  0.18696  0.84971  0.63472  1.0000
  I   I274      1.0  0.34697  0.31078  0.22806  1.0000
  I   I275      1.0  0.69447  0.59026  0.57609  1.0000
  I   I276      1.0  0.11682  0.17098  0.06047  1.0000
  I   I277      1.0  0.37008  0.26302  0.42628  1.0000
  I   I278      1.0  0.39747  0.49044  0.24095  1.0000
  I   I279      1.0  0.05582  0.50898  0.34989  1.0000
  I   I280      1.0  0.67166  0.18907  0.40170  1.0000
  I   I281      1.0  0.39371  0.34175  0.68519  1.0000
  I   I282      1.0  0.18030  0.02966  0.55035  1.0000
  I   I283      1.0  0.28496  0.94522  0.01136  1.0000
  I   I284      1.0  0.09238  0.74033  0.07958  1.0000
  I   I285      1.0  0.16486  0.53174  0.36051  1.0000
  I   I286      1.0  0.77977  0.41732  0.50455  1.0000
  I   I287      1.0  0.33515  0.61594  0.62561  1.0000
  I   I288      1.0  0.70490  0.06190  0.27846  1.0000
  I   I289      1.0  0.02759  0.11530  0.53924  1.0000
  I   I290      1.0  0.13923  0.31442  0.81432  1.0000
  I   I291      1.0  0.97355  0.18820  0.30200  1.0000
  I   I292      1.0  0.74069  0.12060  0.53188  1.0000
  I   I293      1.0  0.40457  0.75351  0.50501  1.0000
  I   I294      1.0  0.77990  0.97387  0.08324  1.0000
  I   I295      1.0  0.92580  0.54974  0.62964  1.0000
  I   I296      1.0  0.82405  0.38411  0.02065  1.0000
  I   I297      1.0  0.30220  0.01383  0.80231  1.0000
  I   I298      1.0  0.64822  0.36484  0.58199  1.0000
  I   I299      1.0  0.09676  0.56957  0.50891  1.0000
  I   I300      1.0  0.15144  0.56075  0.97713  1.0000
  I   I301      1.0  0.83229  0.88171  0.46027  1.0000
  I   I302      1.0  0.84929  0.13375  0.53605  1.0000
  I   I303      1.0  0.13629  0.41627  0.73855  1.0000
  I   I304      1.0  0.52164  0.86469  0.80560  1.0000
  I   I305      1.0  0.10136  0.66872  0.52033  1.0000
  I   I306      1.0  0.41417  0.23251  0.86029  1.0000
  I   I307      1.0  0.56930  0.67607  0.66633  1.0000
  I   I308      1.0  0.26945  0.18612  0.64763  1.0000
  I   I309      1.0  0.26313  0.69489  0.50169  1.0000
  I   I310      1.0  0.32250  0.97968  0.11215  1.0000
  I   I311      1.0  0.43700  0.15815  0.38579  1.0000
  I   I312      1.0  0.25514  0.38473  0.77947  1.0000
  I   I313      1.0  0.72181  0.19634  0.75891  1.0000
  I   I314      1.0  0.42328  0.97339  0.32241  1.0000
  I   I315      1.0  0.36027  0.79691  0.87494  1.0000
  I   I316      1.0  0.37677  0.84917  0.82238  1.0000
  I   I317      1.0  0.65025  0.68137  0.06729  1.0000
  I   I318      1.0  0.00049  0.74068  0.41272  1.0000
  I   I319      1.0  0.62895  0.57344  0.10884  1.0000
  I   I320      1.0  0.93301  0.32629  0.38741  1.0000
  I   I321      1.0  0.00560  0.24313  0.66849  1.0000
  I   I322      1.0  0.36502  0.24210  0.24742  1.0000
  I   I323      1.0  0.70635  0.51702  0.50455  1.0000
  I   I324      1.0  0.15821  0.05190  0.16634  1.0000
  I   I325      1.0  0.09439  0.30718  0.37438  1.0000
  I   I326      1.0  0.44702  0.17617  0.97852  1.0000
  I   I327      1.0  0.09849  0.49247  0.25121  1.0000
  I   I328      1.0  0.19217  0.43273  0.71261  1.0000
  I   I329      1.0  0.42359  0.31799  0.59216  1.0000
  I   I330      1.0  0.19499  0.00255  0.45313  1.0000
  I   I331      1.0  0.17036  0.45970  0.32482  1.0000
  I   I332      1.0  0.63322  0.31232  0.58378  1.0000
  I   I333      1.0  0.70842  0.73955  0.35167  1.0000
  I   I334      1.0  0.81228  0.99782  0.38073  1.0000
  I   I335      1.0  0.79405  0.37273  0.56856  1.0000
  I   I336      1.0  0.38965  0.56659  0.58224  1.0000
  I   I337      1.0  0.08469  0.77113  0.85498  1.0000
  I   I338      1.0  0.13542  0.34206  0.91953  1.0000
  I   I339      1.0  0.98933  0.12608  0.32766  1.0000
  I   I340      1.0  0.91985  0.28144  0.33041  1.0000
  I   I341      1.0  0.39310  0.74877  0.17954  1.0000
  I   I342      1.0  0.82873  0.90530  0.11673  1.0000
  I   I343      1.0  0.97873  0.46093  0.44212  1.0000
  I   I344      1.0  0.84022  0.31331  0.96081  1.0000
  I   I345      1.0  0.29322  0.05575  0.88260  1.0000
  I   I346      1.0  0.29644  0.94460  0.13179  1.0000
  I   I347      1.0  0.46904  0.29750  0.81914  1.0000
  I   I348      1.0  0.03510  0.60871  0.10392  1.0000
  I   I349      1.0  0.88030  0.84476  0.39846  1.0000
  I   I350      1.0  0.79471  0.19680  0.42785  1.0000
  I   I351      1.0  0.96687  0.00722  0.76711  1.0000
  I   I352      1.0  0.57543  0.82046  0.89490  1.0000
  I   I353      1.0  0.76962  0.03307  0.75051  1.0000
  I   I354      1.0  0.39247  0.16023  0.96267  1.0000
  I   I355      1.0  0.49563  0.68717  0.67429  1.0000
  I   I356      1.0  0.60873  0.59951  0.68908  1.0000
  I   I357      1.0  0.25798  0.80218  0.93003  1.0000
  I   I358      1.0  0.29126  0.72865  0.59174  1.0000
  I   I359      1.0  0.39671  0.08299  0.28413  1.0000
  I   I360      1.0  0.31964  0.34016  0.77959  1.0000
  I   I361      1.0  0.71163  0.21612  0.86949  1.0000
  I   I362      1.0  0.52040  0.99707  0.32887  1.0000
  I   I363      1.0  0.29178  0.79118  0.04175  1.0000
  I   I364      1.0  0.42519  0.91779  0.93126  1.0000
  I   I365      1.0  0.67518  0.65609  0.28258  1.0000
  I   I366      1.0  0.07762  0.78805  0.36595  1.0000
  I   I367      1.0  0.62067  0.53090  0.17433  1.0000
  I   I368      1.0  0.98630  0.27959  0.30426  1.0000
  I   I369      1.0  0.98331  0.20813  0.66782  1.0000
  I   I370      1.0  0.32286  0.31426  0.34410  1.0000
  I   I371      1.0  0.70456  0.56984  0.46156  1.0000
  I   I372      1.0  0.18327  0.10716  0.10344  1.0000
  I   I373      1.0  0.07688  0.23067  0.48618  1.0000
  I   I374      1.0  0.40675  0.49000  0.11751  1.0000
  I   I375      1.0  0.06619  0.56383  0.32794  1.0000
  I   I376      1.0  0.64169  0.18768  0.28708  1.0000
  I   I377      1.0  0.37193  0.34882  0.54447  1.0000
  I   I378      1.0  0.16750  0.98687  0.53933  1.0000
  I   I379      1.0  0.20346  0.73970  0.74170  1.0000
  I   I380      1.0  0.30090  0.66987  0.03622  1.0000
  I   I381      1.0  0.07727  0.78700  0.99844  1.0000
  I   I382      1.0  0.73217  0.09329  0.23523  1.0000
  I   I383      1.0  0.75080  0.40416  0.62413  1.0000
  I   I384      1.0  0.38519  0.61570  0.66817  1.0000
