data_image0
_chemical_formula_structural       Ti96I384
_chemical_formula_sum              "Ti96 I384"
_cell_length_a       44.0273
_cell_length_b       43.645
_cell_length_c       22.5306
_cell_angle_alpha    88.7757
_cell_angle_beta     88.7757
_cell_angle_gamma    62.1586

_space_group_name_H-M_alt    "P 1"
_space_group_IT_number       1

loop_
  _space_group_symop_operation_xyz
  'x, y, z'

loop_
  _atom_site_type_symbol
  _atom_site_label
  _atom_site_symmetry_multiplicity
  _atom_site_fract_x
  _atom_site_fract_y
  _atom_site_fract_z
  _atom_site_occupancy
  Ti  Ti1       1.0  0.31395  0.11149  0.92351  1.0000
  Ti  Ti2       1.0  0.26445  0.05393  0.25219  1.0000
  Ti  Ti3       1.0  0.31777  0.06943  0.58697  1.0000
  Ti  Ti4       1.0  0.16946  0.30762  0.20819  1.0000
  Ti  Ti5       1.0  0.17479  0.32003  0.53355  1.0000
  Ti  Ti6       1.0  0.16696  0.31253  0.89345  1.0000
  Ti  Ti7       1.0  0.08949  0.61734  0.49785  1.0000
  Ti  Ti8       1.0  0.99821  0.68083  0.87610  1.0000
  Ti  Ti9       1.0  0.06109  0.63457  0.18127  1.0000
  Ti  Ti10      1.0  0.06627  0.89477  0.26271  1.0000
  Ti  Ti11      1.0  0.09966  0.83260  0.62867  1.0000
  Ti  Ti12      1.0  0.06025  0.84915  0.95180  1.0000
  Ti  Ti13      1.0  0.53176  0.07657  0.26072  1.0000
  Ti  Ti14      1.0  0.51121  0.08582  0.57215  1.0000
  Ti  Ti15      1.0  0.54009  0.08352  0.91763  1.0000
  Ti  Ti16      1.0  0.36039  0.37757  0.56815  1.0000
  Ti  Ti17      1.0  0.27345  0.45386  0.85093  1.0000
  Ti  Ti18      1.0  0.35258  0.34164  0.21818  1.0000
  Ti  Ti19      1.0  0.41271  0.75853  0.48203  1.0000
  Ti  Ti20      1.0  0.32241  0.68782  0.79720  1.0000
  Ti  Ti21      1.0  0.30693  0.65574  0.32196  1.0000
  Ti  Ti22      1.0  0.23389  0.92219  0.78385  1.0000
  Ti  Ti23      1.0  0.41604  0.86488  0.18994  1.0000
  Ti  Ti24      1.0  0.43273  0.85007  0.80672  1.0000
  Ti  Ti25      1.0  0.64324  0.19441  0.48205  1.0000
  Ti  Ti26      1.0  0.64569  0.19512  0.80978  1.0000
  Ti  Ti27      1.0  0.63240  0.19360  0.14282  1.0000
  Ti  Ti28      1.0  0.60108  0.40188  0.13682  1.0000
  Ti  Ti29      1.0  0.63019  0.40987  0.44706  1.0000
  Ti  Ti30      1.0  0.60137  0.41406  0.79737  1.0000
  Ti  Ti31      1.0  0.67364  0.57211  0.18250  1.0000
  Ti  Ti32      1.0  0.69433  0.54613  0.51901  1.0000
  Ti  Ti33      1.0  0.69283  0.55136  0.86759  1.0000
  Ti  Ti34      1.0  0.72782  0.72731  0.28614  1.0000
  Ti  Ti35      1.0  0.70004  0.73041  0.61261  1.0000
  Ti  Ti36      1.0  0.71691  0.71522  0.93121  1.0000
  Ti  Ti37      1.0  0.85859  0.13350  0.22202  1.0000
  Ti  Ti38      1.0  0.85180  0.10633  0.55890  1.0000
  Ti  Ti39      1.0  0.85901  0.11698  0.90299  1.0000
  Ti  Ti40      1.0  0.93751  0.32156  0.03034  1.0000
  Ti  Ti41      1.0  0.03289  0.24092  0.32554  1.0000
  Ti  Ti42      1.0  0.07211  0.20563  0.63922  1.0000
  Ti  Ti43      1.0  0.95566  0.51886  0.22321  1.0000
  Ti  Ti44      1.0  0.95599  0.52188  0.57243  1.0000
  Ti  Ti45      1.0  0.92973  0.55588  0.92413  1.0000
  Ti  Ti46      1.0  0.79212  0.92026  0.23981  1.0000
  Ti  Ti47      1.0  0.76118  0.93653  0.58618  1.0000
  Ti  Ti48      1.0  0.77908  0.92075  0.91780  1.0000
  Ti  Ti49      1.0  0.27810  0.11930  0.76010  1.0000
  Ti  Ti50      1.0  0.19346  0.08139  0.13272  1.0000
  Ti  Ti51      1.0  0.23879  0.09193  0.44037  1.0000
  Ti  Ti52      1.0  0.13700  0.38381  0.04051  1.0000
  Ti  Ti53      1.0  0.13445  0.37672  0.36505  1.0000
  Ti  Ti54      1.0  0.15941  0.36288  0.71070  1.0000
  Ti  Ti55      1.0  0.00562  0.66462  0.36107  1.0000
  Ti  Ti56      1.0  0.92860  0.74210  0.74307  1.0000
  Ti  Ti57      1.0  0.97391  0.70906  0.06547  1.0000
  Ti  Ti58      1.0  0.00333  0.87538  0.12752  1.0000
  Ti  Ti59      1.0  0.00852  0.90770  0.42891  1.0000
  Ti  Ti60      1.0  0.01131  0.85826  0.77505  1.0000
  Ti  Ti61      1.0  0.47569  0.12647  0.07197  1.0000
  Ti  Ti62      1.0  0.46222  0.14876  0.40947  1.0000
  Ti  Ti63      1.0  0.48617  0.11554  0.75215  1.0000
  Ti  Ti64      1.0  0.32496  0.37843  0.37489  1.0000
  Ti  Ti65      1.0  0.27052  0.47834  0.65979  1.0000
  Ti  Ti66      1.0  0.23505  0.53733  0.98875  1.0000
  Ti  Ti67      1.0  0.32798  0.73849  0.40436  1.0000
  Ti  Ti68      1.0  0.29964  0.65752  0.69150  1.0000
  Ti  Ti69      1.0  0.19568  0.67847  0.26640  1.0000
  Ti  Ti70      1.0  0.33077  0.89925  0.81540  1.0000
  Ti  Ti71      1.0  0.38832  0.81080  0.14856  1.0000
  Ti  Ti72      1.0  0.46652  0.92137  0.16812  1.0000
  Ti  Ti73      1.0  0.56889  0.24490  0.30819  1.0000
  Ti  Ti74      1.0  0.57514  0.24443  0.63432  1.0000
  Ti  Ti75      1.0  0.58022  0.24249  0.97329  1.0000
  Ti  Ti76      1.0  0.54310  0.46544  0.97645  1.0000
  Ti  Ti77      1.0  0.55816  0.44531  0.31054  1.0000
  Ti  Ti78      1.0  0.56515  0.46078  0.61062  1.0000
  Ti  Ti79      1.0  0.62334  0.60386  0.00759  1.0000
  Ti  Ti80      1.0  0.59049  0.62875  0.33434  1.0000
  Ti  Ti81      1.0  0.65960  0.57630  0.67728  1.0000
  Ti  Ti82      1.0  0.68002  0.76178  0.10460  1.0000
  Ti  Ti83      1.0  0.64487  0.78385  0.43762  1.0000
  Ti  Ti84      1.0  0.63575  0.76404  0.77339  1.0000
  Ti  Ti85      1.0  0.85057  0.18282  0.05300  1.0000
  Ti  Ti86      1.0  0.86324  0.17241  0.39712  1.0000
  Ti  Ti87      1.0  0.83274  0.17317  0.71978  1.0000
  Ti  Ti88      1.0  0.94555  0.37139  0.89273  1.0000
  Ti  Ti89      1.0  0.94029  0.33024  0.23110  1.0000
  Ti  Ti90      1.0  0.99188  0.26463  0.51091  1.0000
  Ti  Ti91      1.0  0.86761  0.60892  0.08197  1.0000
  Ti  Ti92      1.0  0.90463  0.55337  0.40166  1.0000
  Ti  Ti93      1.0  0.88785  0.57109  0.73430  1.0000
  Ti  Ti94      1.0  0.72424  0.95484  0.09334  1.0000
  Ti  Ti95      1.0  0.72046  0.95082  0.39399  1.0000
  Ti  Ti96      1.0  0.69888  0.96830  0.75762  1.0000
  I   I1        1.0  0.20337  0.04577  0.03866  1.0000
  I   I2        1.0  0.22781  0.04858  0.35924  1.0000
  I   I3        1.0  0.27427  0.07252  0.68705  1.0000
  I   I4        1.0  0.10145  0.35629  0.27749  1.0000
  I   I5        1.0  0.11939  0.36727  0.60875  1.0000
  I   I6        1.0  0.10903  0.37084  0.94138  1.0000
  I   I7        1.0  0.93561  0.70123  0.64479  1.0000
  I   I8        1.0  0.95566  0.67791  0.98258  1.0000
  I   I9        1.0  0.00985  0.62950  0.25953  1.0000
  I   I10       1.0  0.04885  0.85468  0.35520  1.0000
  I   I11       1.0  0.03990  0.81017  0.68376  1.0000
  I   I12       1.0  0.03401  0.81637  0.02166  1.0000
  I   I13       1.0  0.45586  0.11178  0.31689  1.0000
  I   I14       1.0  0.45856  0.10378  0.63925  1.0000
  I   I15       1.0  0.48446  0.07944  0.99352  1.0000
  I   I16       1.0  0.28467  0.42506  0.57936  1.0000
  I   I17       1.0  0.21241  0.51568  0.87048  1.0000
  I   I18       1.0  0.31454  0.33109  0.33355  1.0000
  I   I19       1.0  0.35675  0.59833  0.68363  1.0000
  I   I20       1.0  0.15520  0.69020  0.36108  1.0000
  I   I21       1.0  0.29045  0.70150  0.43251  1.0000
  I   I22       1.0  0.34122  0.83335  0.23640  1.0000
  I   I23       1.0  0.34852  0.90515  0.17522  1.0000
  I   I24       1.0  0.38320  0.82703  0.77008  1.0000
  I   I25       1.0  0.57922  0.20828  0.53306  1.0000
  I   I26       1.0  0.57376  0.21362  0.87151  1.0000
  I   I27       1.0  0.55636  0.21530  0.21430  1.0000
  I   I28       1.0  0.53515  0.41832  0.20494  1.0000
  I   I29       1.0  0.57149  0.41516  0.52515  1.0000
  I   I30       1.0  0.53152  0.43856  0.85720  1.0000
  I   I31       1.0  0.61199  0.57185  0.24780  1.0000
  I   I32       1.0  0.64839  0.53138  0.58640  1.0000
  I   I33       1.0  0.62486  0.56788  0.89502  1.0000
  I   I34       1.0  0.65167  0.75193  0.32579  1.0000
  I   I35       1.0  0.63701  0.72907  0.68381  1.0000
  I   I36       1.0  0.67141  0.70825  0.01793  1.0000
  I   I37       1.0  0.82911  0.19880  0.28806  1.0000
  I   I38       1.0  0.79764  0.17093  0.61048  1.0000
  I   I39       1.0  0.82118  0.19173  0.94100  1.0000
  I   I40       1.0  0.89573  0.33442  0.13104  1.0000
  I   I41       1.0  0.97397  0.24595  0.40133  1.0000
  I   I42       1.0  0.94072  0.34025  0.79886  1.0000
  I   I43       1.0  0.90301  0.51773  0.29817  1.0000
  I   I44       1.0  0.88712  0.54173  0.62736  1.0000
  I   I45       1.0  0.86176  0.58789  0.96147  1.0000
  I   I46       1.0  0.73386  0.91334  0.29421  1.0000
  I   I47       1.0  0.70409  0.93511  0.64853  1.0000
  I   I48       1.0  0.73001  0.91120  0.97308  1.0000
  I   I49       1.0  0.28596  0.16637  0.82689  1.0000
  I   I50       1.0  0.19690  0.11479  0.24054  1.0000
  I   I51       1.0  0.25403  0.12958  0.52642  1.0000
  I   I52       1.0  0.17151  0.37491  0.15549  1.0000
  I   I53       1.0  0.18142  0.37498  0.48023  1.0000
  I   I54       1.0  0.17697  0.37348  0.83084  1.0000
  I   I55       1.0  0.03277  0.68585  0.47443  1.0000
  I   I56       1.0  0.94884  0.75472  0.85635  1.0000
  I   I57       1.0  0.01816  0.71391  0.15274  1.0000
  I   I58       1.0  0.99301  0.92268  0.21106  1.0000
  I   I59       1.0  0.01256  0.94251  0.51603  1.0000
  I   I60       1.0  0.99708  0.88705  0.88361  1.0000
  I   I61       1.0  0.50694  0.13682  0.18246  1.0000
  I   I62       1.0  0.48540  0.15837  0.51719  1.0000
  I   I63       1.0  0.48809  0.14522  0.87120  1.0000
  I   I64       1.0  0.34693  0.41553  0.45750  1.0000
  I   I65       1.0  0.29075  0.49328  0.76837  1.0000
  I   I66       1.0  0.25115  0.55720  0.08513  1.0000
  I   I67       1.0  0.36718  0.76867  0.37060  1.0000
  I   I68       1.0  0.32506  0.62880  0.85449  1.0000
  I   I69       1.0  0.24393  0.70377  0.24169  1.0000
  I   I70       1.0  0.29280  0.95004  0.88599  1.0000
  I   I71       1.0  0.42995  0.82895  0.07925  1.0000
  I   I72       1.0  0.51088  0.92396  0.23229  1.0000
  I   I73       1.0  0.60149  0.25632  0.41323  1.0000
  I   I74       1.0  0.60246  0.26503  0.74599  1.0000
  I   I75       1.0  0.59370  0.26098  0.08308  1.0000
  I   I76       1.0  0.56536  0.47583  0.07974  1.0000
  I   I77       1.0  0.58694  0.47032  0.39531  1.0000
  I   I78       1.0  0.57352  0.48051  0.72166  1.0000
  I   I79       1.0  0.62514  0.63446  0.12143  1.0000
  I   I80       1.0  0.57981  0.67112  0.42034  1.0000
  I   I81       1.0  0.66358  0.60749  0.77215  1.0000
  I   I82       1.0  0.70625  0.78059  0.19928  1.0000
  I   I83       1.0  0.66398  0.79838  0.55885  1.0000
  I   I84       1.0  0.65074  0.78524  0.88012  1.0000
  I   I85       1.0  0.89800  0.15754  0.15033  1.0000
  I   I86       1.0  0.90066  0.13020  0.49373  1.0000
  I   I87       1.0  0.88221  0.15493  0.80028  1.0000
  I   I88       1.0  0.93007  0.39183  0.01572  1.0000
  I   I89       1.0  0.98858  0.32076  0.31108  1.0000
  I   I90       1.0  0.01887  0.27585  0.62949  1.0000
  I   I91       1.0  0.90170  0.62677  0.15964  1.0000
  I   I92       1.0  0.90475  0.58631  0.50483  1.0000
  I   I93       1.0  0.90183  0.60064  0.83501  1.0000
  I   I94       1.0  0.72759  0.98256  0.19482  1.0000
  I   I95       1.0  0.71965  0.99159  0.49394  1.0000
  I   I96       1.0  0.72344  0.98347  0.85779  1.0000
  I   I97       1.0  0.29989  0.13973  0.65377  1.0000
  I   I98       1.0  0.26338  0.15543  0.99641  1.0000
  I   I99       1.0  0.26904  0.10101  0.31932  1.0000
  I   I100      1.0  0.19976  0.32043  0.98934  1.0000
  I   I101      1.0  0.19733  0.32855  0.29815  1.0000
  I   I102      1.0  0.20373  0.30324  0.65650  1.0000
  I   I103      1.0  0.06712  0.65678  0.29174  1.0000
  I   I104      1.0  0.10554  0.64902  0.57762  1.0000
  I   I105      1.0  0.03334  0.68904  0.95957  1.0000
  I   I106      1.0  0.02766  0.90558  0.04031  1.0000
  I   I107      1.0  0.04661  0.93874  0.36637  1.0000
  I   I108      1.0  0.06202  0.87593  0.70910  1.0000
  I   I109      1.0  0.53876  0.11969  0.01920  1.0000
  I   I110      1.0  0.53236  0.12309  0.33749  1.0000
  I   I111      1.0  0.53738  0.11228  0.67309  1.0000
  I   I112      1.0  0.39631  0.33621  0.32689  1.0000
  I   I113      1.0  0.35872  0.42052  0.66099  1.0000
  I   I114      1.0  0.29760  0.49433  0.95200  1.0000
  I   I115      1.0  0.34916  0.69497  0.30714  1.0000
  I   I116      1.0  0.37943  0.78999  0.57504  1.0000
  I   I117      1.0  0.30845  0.73036  0.88428  1.0000
  I   I118      1.0  0.38780  0.87600  0.89653  1.0000
  I   I119      1.0  0.19796  0.98341  0.73507  1.0000
  I   I120      1.0  0.41174  0.92573  0.10731  1.0000
  I   I121      1.0  0.63512  0.23208  0.23411  1.0000
  I   I122      1.0  0.64453  0.22588  0.58142  1.0000
  I   I123      1.0  0.65072  0.22904  0.89804  1.0000
  I   I124      1.0  0.60900  0.43647  0.90904  1.0000
  I   I125      1.0  0.60227  0.44575  0.22203  1.0000
  I   I126      1.0  0.63304  0.44142  0.55559  1.0000
  I   I127      1.0  0.68343  0.59802  0.95056  1.0000
  I   I128      1.0  0.65688  0.61445  0.28634  1.0000
  I   I129      1.0  0.73055  0.53168  0.61913  1.0000
  I   I130      1.0  0.74035  0.73929  0.03909  1.0000
  I   I131      1.0  0.71080  0.76927  0.38495  1.0000
  I   I132      1.0  0.69864  0.75659  0.72943  1.0000
  I   I133      1.0  0.89976  0.12033  0.99123  1.0000
  I   I134      1.0  0.90666  0.10721  0.31535  1.0000
  I   I135      1.0  0.87065  0.10437  0.68756  1.0000
  I   I136      1.0  0.09787  0.22833  0.71052  1.0000
  I   I137      1.0  0.98489  0.31351  0.12186  1.0000
  I   I138      1.0  0.04947  0.24856  0.43792  1.0000
  I   I139      1.0  0.92985  0.59997  0.01192  1.0000
  I   I140      1.0  0.97357  0.53295  0.33873  1.0000
  I   I141      1.0  0.95569  0.56412  0.68366  1.0000
  I   I142      1.0  0.77933  0.95749  0.01164  1.0000
  I   I143      1.0  0.78973  0.94013  0.36015  1.0000
  I   I144      1.0  0.75244  0.97512  0.68517  1.0000
  I   I145      1.0  0.34933  0.07871  0.79399  1.0000
  I   I146      1.0  0.24050  0.01732  0.18717  1.0000
  I   I147      1.0  0.29900  0.03791  0.50343  1.0000
  I   I148      1.0  0.13642  0.32677  0.10566  1.0000
  I   I149      1.0  0.12675  0.32820  0.43996  1.0000
  I   I150      1.0  0.12817  0.32431  0.79232  1.0000
  I   I151      1.0  0.05513  0.59880  0.41269  1.0000
  I   I152      1.0  0.94131  0.68393  0.81515  1.0000
  I   I153      1.0  0.01898  0.63418  0.09827  1.0000
  I   I154      1.0  0.07222  0.85367  0.17476  1.0000
  I   I155      1.0  0.09089  0.82435  0.51023  1.0000
  I   I156      1.0  0.06763  0.81331  0.84660  1.0000
  I   I157      1.0  0.51531  0.05302  0.16115  1.0000
  I   I158      1.0  0.48739  0.07408  0.46502  1.0000
  I   I159      1.0  0.52917  0.05707  0.81043  1.0000
  I   I160      1.0  0.34332  0.34150  0.49801  1.0000
  I   I161      1.0  0.26131  0.43337  0.73835  1.0000
  I   I162      1.0  0.30225  0.34297  0.15782  1.0000
  I   I163      1.0  0.39263  0.70327  0.47244  1.0000
  I   I164      1.0  0.25884  0.72429  0.74054  1.0000
  I   I165      1.0  0.25401  0.64284  0.35264  1.0000
  I   I166      1.0  0.28611  0.87112  0.84956  1.0000
  I   I167      1.0  0.43473  0.80396  0.24267  1.0000
  I   I168      1.0  0.45700  0.82842  0.70656  1.0000
  I   I169      1.0  0.61828  0.18394  0.37134  1.0000
  I   I170      1.0  0.61061  0.18190  0.70524  1.0000
  I   I171      1.0  0.62079  0.17498  0.03267  1.0000
  I   I172      1.0  0.57266  0.39296  0.03054  1.0000
  I   I173      1.0  0.61557  0.37725  0.35481  1.0000
  I   I174      1.0  0.57860  0.39672  0.68289  1.0000
  I   I175      1.0  0.67280  0.53534  0.07492  1.0000
  I   I176      1.0  0.64915  0.57031  0.42927  1.0000
  I   I177      1.0  0.68541  0.51387  0.76261  1.0000
  I   I178      1.0  0.70884  0.70112  0.18428  1.0000
  I   I179      1.0  0.67951  0.71769  0.50729  1.0000
  I   I180      1.0  0.68210  0.70038  0.85290  1.0000
  I   I181      1.0  0.81085  0.16093  0.12786  1.0000
  I   I182      1.0  0.81935  0.14138  0.45902  1.0000
  I   I183      1.0  0.80307  0.14524  0.82528  1.0000
  I   I184      1.0  0.89215  0.34425  0.94903  1.0000
  I   I185      1.0  0.98255  0.25183  0.23393  1.0000
  I   I186      1.0  0.02726  0.19379  0.54706  1.0000
  I   I187      1.0  0.91632  0.53753  0.13121  1.0000
  I   I188      1.0  0.94401  0.49790  0.47533  1.0000
  I   I189      1.0  0.92727  0.51392  0.80287  1.0000
  I   I190      1.0  0.78378  0.89436  0.13750  1.0000
  I   I191      1.0  0.75055  0.90064  0.49345  1.0000
  I   I192      1.0  0.75598  0.90274  0.81363  1.0000
  I   I193      1.0  0.35753  0.13100  0.95577  1.0000
  I   I194      1.0  0.27029  0.07154  0.12539  1.0000
  I   I195      1.0  0.35740  0.09106  0.53546  1.0000
  I   I196      1.0  0.22987  0.27019  0.15488  1.0000
  I   I197      1.0  0.23885  0.28803  0.50323  1.0000
  I   I198      1.0  0.22148  0.26862  0.82819  1.0000
  I   I199      1.0  0.15177  0.59316  0.45834  1.0000
  I   I200      1.0  0.03311  0.68134  0.78285  1.0000
  I   I201      1.0  0.11404  0.63578  0.12100  1.0000
  I   I202      1.0  0.06904  0.94245  0.19724  1.0000
  I   I203      1.0  0.13576  0.86700  0.62386  1.0000
  I   I204      1.0  0.08333  0.89164  0.91010  1.0000
  I   I205      1.0  0.59822  0.04983  0.23259  1.0000
  I   I206      1.0  0.56812  0.07980  0.51617  1.0000
  I   I207      1.0  0.59344  0.08332  0.86042  1.0000
  I   I208      1.0  0.42568  0.34914  0.53862  1.0000
  I   I209      1.0  0.33603  0.39846  0.84794  1.0000
  I   I210      1.0  0.38337  0.37123  0.15979  1.0000
  I   I211      1.0  0.41114  0.81482  0.43786  1.0000
  I   I212      1.0  0.34449  0.69842  0.67975  1.0000
  I   I213      1.0  0.32519  0.62293  0.21428  1.0000
  I   I214      1.0  0.18476  0.93889  0.86167  1.0000
  I   I215      1.0  0.48300  0.85298  0.17523  1.0000
  I   I216      1.0  0.47210  0.87876  0.84035  1.0000
  I   I217      1.0  0.70062  0.19183  0.42842  1.0000
  I   I218      1.0  0.70406  0.17243  0.75285  1.0000
  I   I219      1.0  0.69988  0.18004  0.13202  1.0000
  I   I220      1.0  0.66305  0.39176  0.10304  1.0000
  I   I221      1.0  0.68451  0.39729  0.37688  1.0000
  I   I222      1.0  0.66140  0.40353  0.74525  1.0000
  I   I223      1.0  0.72076  0.58498  0.14547  1.0000
  I   I224      1.0  0.73534  0.56468  0.46433  1.0000
  I   I225      1.0  0.75151  0.54337  0.82575  1.0000
  I   I226      1.0  0.79415  0.69617  0.27316  1.0000
  I   I227      1.0  0.76253  0.72624  0.59156  1.0000
  I   I228      1.0  0.75474  0.73548  0.86621  1.0000
  I   I229      1.0  0.89315  0.07481  0.16715  1.0000
  I   I230      1.0  0.89699  0.04637  0.53064  1.0000
  I   I231      1.0  0.90015  0.05501  0.87949  1.0000
  I   I232      1.0  0.98843  0.30731  0.94348  1.0000
  I   I233      1.0  0.08380  0.25004  0.26683  1.0000
  I   I234      1.0  0.12323  0.16717  0.56731  1.0000
  I   I235      1.0  0.00016  0.54033  0.18902  1.0000
  I   I236      1.0  0.01021  0.52834  0.52590  1.0000
  I   I237      1.0  0.99021  0.54179  0.87701  1.0000
  I   I238      1.0  0.82231  0.95720  0.21986  1.0000
  I   I239      1.0  0.80716  0.94757  0.53204  1.0000
  I   I240      1.0  0.82968  0.93235  0.85247  1.0000
  I   I241      1.0  0.32875  0.05598  0.98962  1.0000
  I   I242      1.0  0.32637  0.00622  0.27294  1.0000
  I   I243      1.0  0.36508  0.01922  0.63982  1.0000
  I   I244      1.0  0.16787  0.25415  0.25350  1.0000
  I   I245      1.0  0.16704  0.26309  0.56111  1.0000
  I   I246      1.0  0.14961  0.26647  0.93795  1.0000
  I   I247      1.0  0.08002  0.57240  0.55968  1.0000
  I   I248      1.0  0.02921  0.61049  0.86607  1.0000
  I   I249      1.0  0.09783  0.56592  0.18752  1.0000
  I   I250      1.0  0.12723  0.86703  0.29894  1.0000
  I   I251      1.0  0.14397  0.76930  0.65878  1.0000
  I   I252      1.0  0.12282  0.80353  0.98186  1.0000
  I   I253      1.0  0.54238  0.01890  0.31422  1.0000
  I   I254      1.0  0.53537  0.02012  0.60162  1.0000
  I   I255      1.0  0.57319  0.02035  0.95480  1.0000
  I   I256      1.0  0.36327  0.33137  0.64611  1.0000
  I   I257      1.0  0.25092  0.42040  0.92506  1.0000
  I   I258      1.0  0.40284  0.27688  0.21404  1.0000
  I   I259      1.0  0.47523  0.71938  0.51354  1.0000
  I   I260      1.0  0.38897  0.65623  0.81612  1.0000
  I   I261      1.0  0.34833  0.60467  0.38407  1.0000
  I   I262      1.0  0.22595  0.87937  0.72282  1.0000
  I   I263      1.0  0.41921  0.89013  0.29580  1.0000
  I   I264      1.0  0.47041  0.79280  0.86323  1.0000
  I   I265      1.0  0.66940  0.12720  0.50686  1.0000
  I   I266      1.0  0.66778  0.13451  0.85668  1.0000
  I   I267      1.0  0.64735  0.13745  0.20834  1.0000
  I   I268      1.0  0.61481  0.34294  0.18069  1.0000
  I   I269      1.0  0.67169  0.34873  0.49841  1.0000
  I   I270      1.0  0.62232  0.34961  0.83431  1.0000
  I   I271      1.0  0.71045  0.51369  0.22476  1.0000
  I   I272      1.0  0.73412  0.47839  0.49267  1.0000
  I   I273      1.0  0.71760  0.49381  0.92813  1.0000
  I   I274      1.0  0.72434  0.67337  0.34672  1.0000
  I   I275      1.0  0.73639  0.66768  0.64748  1.0000
  I   I276      1.0  0.76502  0.65251  0.94517  1.0000
  I   I277      1.0  0.81320  0.11771  0.27026  1.0000
  I   I278      1.0  0.80889  0.07961  0.58214  1.0000
  I   I279      1.0  0.82660  0.09469  0.97577  1.0000
  I   I280      1.0  0.95334  0.25402  0.04694  1.0000
  I   I281      1.0  0.06507  0.17690  0.34170  1.0000
  I   I282      1.0  0.06409  0.16092  0.71457  1.0000
  I   I283      1.0  0.99607  0.45244  0.21473  1.0000
  I   I284      1.0  0.97737  0.46944  0.64141  1.0000
  I   I285      1.0  0.94458  0.50055  0.99322  1.0000
  I   I286      1.0  0.84398  0.86484  0.27962  1.0000
  I   I287      1.0  0.80105  0.87418  0.63073  1.0000
  I   I288      1.0  0.83703  0.86600  0.94969  1.0000
  I   I289      1.0  0.26246  0.09472  0.86178  1.0000
  I   I290      1.0  0.14329  0.07111  0.18212  1.0000
  I   I291      1.0  0.20787  0.07128  0.51755  1.0000
  I   I292      1.0  0.07777  0.43931  0.06828  1.0000
  I   I293      1.0  0.08311  0.42790  0.41778  1.0000
  I   I294      1.0  0.11365  0.42474  0.73017  1.0000
  I   I295      1.0  0.95700  0.65341  0.40782  1.0000
  I   I296      1.0  0.86724  0.79218  0.73067  1.0000
  I   I297      1.0  0.93598  0.71319  0.16406  1.0000
  I   I298      1.0  0.00623  0.82608  0.19682  1.0000
  I   I299      1.0  0.98621  0.87010  0.48801  1.0000
  I   I300      1.0  0.97277  0.82812  0.80929  1.0000
  I   I301      1.0  0.41855  0.13638  0.12470  1.0000
  I   I302      1.0  0.39974  0.15775  0.42279  1.0000
  I   I303      1.0  0.43439  0.10661  0.78766  1.0000
  I   I304      1.0  0.25864  0.41077  0.39856  1.0000
  I   I305      1.0  0.20437  0.51869  0.65353  1.0000
  I   I306      1.0  0.18915  0.52247  0.03294  1.0000
  I   I307      1.0  0.31081  0.76902  0.50560  1.0000
  I   I308      1.0  0.25594  0.63890  0.72439  1.0000
  I   I309      1.0  0.15116  0.72166  0.19014  1.0000
  I   I310      1.0  0.29078  0.91742  0.71036  1.0000
  I   I311      1.0  0.34357  0.82648  0.06070  1.0000
  I   I312      1.0  0.42422  0.98736  0.18440  1.0000
  I   I313      1.0  0.51658  0.25178  0.38151  1.0000
  I   I314      1.0  0.52058  0.24691  0.67667  1.0000
  I   I315      1.0  0.51750  0.25731  0.01199  1.0000
  I   I316      1.0  0.48285  0.47911  0.01640  1.0000
  I   I317      1.0  0.51913  0.42373  0.36210  1.0000
  I   I318      1.0  0.49967  0.47811  0.61674  1.0000
  I   I319      1.0  0.57209  0.59697  0.04679  1.0000
  I   I320      1.0  0.54907  0.60815  0.38381  1.0000
  I   I321      1.0  0.60042  0.58561  0.71690  1.0000
  I   I322      1.0  0.61910  0.77743  0.14148  1.0000
  I   I323      1.0  0.58684  0.78474  0.45425  1.0000
  I   I324      1.0  0.57694  0.77006  0.81470  1.0000
  I   I325      1.0  0.81475  0.24595  0.10141  1.0000
  I   I326      1.0  0.82731  0.23045  0.45598  1.0000
  I   I327      1.0  0.78459  0.23379  0.75004  1.0000
  I   I328      1.0  0.90031  0.43529  0.86515  1.0000
  I   I329      1.0  0.90250  0.32125  0.31716  1.0000
  I   I330      1.0  0.94119  0.26859  0.57994  1.0000
  I   I331      1.0  0.81773  0.60513  0.14033  1.0000
  I   I332      1.0  0.84818  0.54708  0.43553  1.0000
  I   I333      1.0  0.83154  0.57260  0.77409  1.0000
  I   I334      1.0  0.67769  0.94001  0.12606  1.0000
  I   I335      1.0  0.65925  0.95504  0.40546  1.0000
  I   I336      1.0  0.64849  0.95853  0.80088  1.0000
  I   I337      1.0  0.21245  0.16509  0.73291  1.0000
  I   I338      1.0  0.16087  0.14206  0.08937  1.0000
  I   I339      1.0  0.18513  0.15063  0.41777  1.0000
  I   I340      1.0  0.17143  0.41832  0.00651  1.0000
  I   I341      1.0  0.14527  0.42901  0.32473  1.0000
  I   I342      1.0  0.21234  0.37391  0.66538  1.0000
  I   I343      1.0  0.97162  0.73285  0.33421  1.0000
  I   I344      1.0  0.95980  0.76759  0.67543  1.0000
  I   I345      1.0  0.93375  0.77490  0.03534  1.0000
  I   I346      1.0  0.94326  0.89377  0.08880  1.0000
  I   I347      1.0  0.95002  0.94961  0.38113  1.0000
  I   I348      1.0  0.96076  0.91727  0.73801  1.0000
  I   I349      1.0  0.44331  0.18853  0.01643  1.0000
  I   I350      1.0  0.44317  0.20982  0.35935  1.0000
  I   I351      1.0  0.45076  0.18820  0.74931  1.0000
  I   I352      1.0  0.30686  0.41864  0.27954  1.0000
  I   I353      1.0  0.29614  0.51493  0.60865  1.0000
  I   I354      1.0  0.20995  0.59524  0.93043  1.0000
  I   I355      1.0  0.27553  0.78839  0.34826  1.0000
  I   I356      1.0  0.28740  0.66457  0.57979  1.0000
  I   I357      1.0  0.20937  0.61492  0.25453  1.0000
  I   I358      1.0  0.37346  0.91901  0.75923  1.0000
  I   I359      1.0  0.41598  0.74564  0.12651  1.0000
  I   I360      1.0  0.50088  0.92207  0.07591  1.0000
  I   I361      1.0  0.53433  0.31193  0.28590  1.0000
  I   I362      1.0  0.55177  0.30607  0.58868  1.0000
  I   I363      1.0  0.55743  0.30548  0.93388  1.0000
  I   I364      1.0  0.53002  0.52580  0.92833  1.0000
  I   I365      1.0  0.51769  0.51170  0.30890  1.0000
  I   I366      1.0  0.54986  0.52003  0.55711  1.0000
  I   I367      1.0  0.59048  0.66489  0.95782  1.0000
  I   I368      1.0  0.53784  0.67097  0.26615  1.0000
  I   I369      1.0  0.64688  0.62160  0.58233  1.0000
  I   I370      1.0  0.66275  0.82140  0.05914  1.0000
  I   I371      1.0  0.62048  0.85048  0.41418  1.0000
  I   I372      1.0  0.60522  0.82282  0.71619  1.0000
  I   I373      1.0  0.88798  0.21512  0.01864  1.0000
  I   I374      1.0  0.90712  0.18988  0.37363  1.0000
  I   I375      1.0  0.86675  0.19705  0.65221  1.0000
  I   I376      1.0  0.99945  0.38275  0.88243  1.0000
  I   I377      1.0  0.91835  0.39688  0.21698  1.0000
  I   I378      1.0  0.95809  0.33098  0.48602  1.0000
  I   I379      1.0  0.83432  0.66953  0.03266  1.0000
  I   I380      1.0  0.88391  0.61490  0.34862  1.0000
  I   I381      1.0  0.85677  0.63114  0.67459  1.0000
  I   I382      1.0  0.68192  0.00736  0.02772  1.0000
  I   I383      1.0  0.68131  0.01581  0.34646  1.0000
  I   I384      1.0  0.65943  0.03342  0.72945  1.0000
