data_image0
_chemical_formula_structural       Ti96I384
_chemical_formula_sum              "Ti96 I384"
_cell_length_a       67.9048
_cell_length_b       67.8473
_cell_length_c       33.1847
_cell_angle_alpha    88.7757
_cell_angle_beta     88.7757
_cell_angle_gamma    62.1586

_space_group_name_H-M_alt    "P 1"
_space_group_IT_number       1

loop_
  _space_group_symop_operation_xyz
  'x, y, z'

loop_
  _atom_site_type_symbol
  _atom_site_label
  _atom_site_symmetry_multiplicity
  _atom_site_fract_x
  _atom_site_fract_y
  _atom_site_fract_z
  _atom_site_occupancy
  Ti  Ti1       1.0  0.11246  0.79174  0.02480  1.0000
  Ti  Ti2       1.0  0.81710  0.02540  0.86334  1.0000
  Ti  Ti3       1.0  0.58591  0.94073  0.15489  1.0000
  Ti  Ti4       1.0  0.81013  0.33988  0.15327  1.0000
  Ti  Ti5       1.0  0.49927  0.82231  0.25144  1.0000
  Ti  Ti6       1.0  0.92479  0.74468  0.96772  1.0000
  Ti  Ti7       1.0  0.85250  0.36694  0.59850  1.0000
  Ti  Ti8       1.0  0.27819  0.91682  0.33633  1.0000
  Ti  Ti9       1.0  0.24349  0.00581  0.96016  1.0000
  Ti  Ti10      1.0  0.97764  0.77561  0.47552  1.0000
  Ti  Ti11      1.0  0.26358  0.14451  0.85812  1.0000
  Ti  Ti12      1.0  0.24623  0.56541  0.68023  1.0000
  Ti  Ti13      1.0  0.03661  0.08876  0.28116  1.0000
  Ti  Ti14      1.0  0.94923  0.06341  0.64572  1.0000
  Ti  Ti15      1.0  0.80504  0.98048  0.56650  1.0000
  Ti  Ti16      1.0  0.91348  0.81766  0.45912  1.0000
  Ti  Ti17      1.0  0.31583  0.05065  0.59109  1.0000
  Ti  Ti18      1.0  0.70274  0.79516  0.84035  1.0000
  Ti  Ti19      1.0  0.54839  0.54540  0.90224  1.0000
  Ti  Ti20      1.0  0.13118  0.12157  0.79940  1.0000
  Ti  Ti21      1.0  0.22135  0.93902  0.29867  1.0000
  Ti  Ti22      1.0  0.69890  0.78358  0.30038  1.0000
  Ti  Ti23      1.0  0.47446  0.08026  0.55281  1.0000
  Ti  Ti24      1.0  0.29158  0.84550  0.02789  1.0000
  Ti  Ti25      1.0  0.53987  0.87969  0.67883  1.0000
  Ti  Ti26      1.0  0.36404  0.77736  0.72749  1.0000
  Ti  Ti27      1.0  0.77953  0.24478  0.68721  1.0000
  Ti  Ti28      1.0  0.77482  0.44149  0.44850  1.0000
  Ti  Ti29      1.0  0.04739  0.82653  0.11462  1.0000
  Ti  Ti30      1.0  0.45320  0.99899  0.82824  1.0000
  Ti  Ti31      1.0  0.17280  0.55523  0.02249  1.0000
  Ti  Ti32      1.0  0.92449  0.29647  0.88916  1.0000
  Ti  Ti33      1.0  0.15116  0.82084  0.47428  1.0000
  Ti  Ti34      1.0  0.34515  0.34549  0.52879  1.0000
  Ti  Ti35      1.0  0.70367  0.61686  0.69861  1.0000
  Ti  Ti36      1.0  0.95521  0.11540  0.01600  1.0000
  Ti  Ti37      1.0  0.21423  0.36949  0.40477  1.0000
  Ti  Ti38      1.0  0.35779  0.39489  0.11113  1.0000
  Ti  Ti39      1.0  0.81511  0.62697  0.22989  1.0000
  Ti  Ti40      1.0  0.26976  0.36274  0.81312  1.0000
  Ti  Ti41      1.0  0.47825  0.51608  0.63202  1.0000
  Ti  Ti42      1.0  0.03844  0.23069  0.39585  1.0000
  Ti  Ti43      1.0  0.38927  0.88938  0.19430  1.0000
  Ti  Ti44      1.0  0.87637  0.53151  0.83399  1.0000
  Ti  Ti45      1.0  0.26178  0.67440  0.56191  1.0000
  Ti  Ti46      1.0  0.69169  0.31604  0.29604  1.0000
  Ti  Ti47      1.0  0.30215  0.57592  0.35618  1.0000
  Ti  Ti48      1.0  0.74798  0.17071  0.17911  1.0000
  Ti  Ti49      1.0  0.94821  0.29405  0.17057  1.0000
  Ti  Ti50      1.0  0.03696  0.29433  0.64450  1.0000
  Ti  Ti51      1.0  0.84304  0.05578  0.89645  1.0000
  Ti  Ti52      1.0  0.83176  0.09384  0.43355  1.0000
  Ti  Ti53      1.0  0.42271  0.69579  0.25107  1.0000
  Ti  Ti54      1.0  0.87013  0.77108  0.06599  1.0000
  Ti  Ti55      1.0  0.86748  0.37951  0.68136  1.0000
  Ti  Ti56      1.0  0.03904  0.42020  0.84318  1.0000
  Ti  Ti57      1.0  0.18519  0.03855  0.03372  1.0000
  Ti  Ti58      1.0  0.61059  0.27933  0.49072  1.0000
  Ti  Ti59      1.0  0.34059  0.28728  0.20471  1.0000
  Ti  Ti60      1.0  0.19239  0.62917  0.72054  1.0000
  Ti  Ti61      1.0  0.80797  0.96682  0.47799  1.0000
  Ti  Ti62      1.0  0.98337  0.10017  0.29980  1.0000
  Ti  Ti63      1.0  0.99643  0.02651  0.73368  1.0000
  Ti  Ti64      1.0  0.69481  0.79617  0.93335  1.0000
  Ti  Ti65      1.0  0.63575  0.93705  0.92138  1.0000
  Ti  Ti66      1.0  0.49462  0.18357  0.99412  1.0000
  Ti  Ti67      1.0  0.62062  0.51852  0.92199  1.0000
  Ti  Ti68      1.0  0.82856  0.49834  0.10321  1.0000
  Ti  Ti69      1.0  0.42235  0.74843  0.88148  1.0000
  Ti  Ti70      1.0  0.45008  0.89248  0.21845  1.0000
  Ti  Ti71      1.0  0.42931  0.07693  0.60131  1.0000
  Ti  Ti72      1.0  0.02347  0.19859  0.02151  1.0000
  Ti  Ti73      1.0  0.80668  0.19421  0.78594  1.0000
  Ti  Ti74      1.0  0.56898  0.88496  0.60503  1.0000
  Ti  Ti75      1.0  0.33562  0.79735  0.65697  1.0000
  Ti  Ti76      1.0  0.48395  0.00087  0.76476  1.0000
  Ti  Ti77      1.0  0.73630  0.50139  0.35278  1.0000
  Ti  Ti78      1.0  0.99344  0.86404  0.07763  1.0000
  Ti  Ti79      1.0  0.76686  0.33361  0.79556  1.0000
  Ti  Ti80      1.0  0.78925  0.39980  0.14646  1.0000
  Ti  Ti81      1.0  0.87097  0.31922  0.93537  1.0000
  Ti  Ti82      1.0  0.27059  0.42693  0.53304  1.0000
  Ti  Ti83      1.0  0.64625  0.64549  0.65129  1.0000
  Ti  Ti84      1.0  0.95624  0.06977  0.98467  1.0000
  Ti  Ti85      1.0  0.21061  0.32411  0.41660  1.0000
  Ti  Ti86      1.0  0.48226  0.23532  0.99313  1.0000
  Ti  Ti87      1.0  0.85572  0.58448  0.17156  1.0000
  Ti  Ti88      1.0  0.46174  0.47867  0.23829  1.0000
  Ti  Ti89      1.0  0.47644  0.55970  0.66271  1.0000
  Ti  Ti90      1.0  0.08921  0.20764  0.43372  1.0000
  Ti  Ti91      1.0  0.28794  0.67572  0.65252  1.0000
  Ti  Ti92      1.0  0.35368  0.52547  0.08854  1.0000
  Ti  Ti93      1.0  0.86731  0.59449  0.82820  1.0000
  Ti  Ti94      1.0  0.72972  0.22173  0.17194  1.0000
  Ti  Ti95      1.0  0.73249  0.33365  0.33183  1.0000
  Ti  Ti96      1.0  0.27552  0.54051  0.41168  1.0000
  I   I1        1.0  0.27160  0.56536  0.31975  1.0000
  I   I2        1.0  0.82221  0.09963  0.87242  1.0000
  I   I3        1.0  0.95240  0.30399  0.24959  1.0000
  I   I4        1.0  0.38141  0.72141  0.26956  1.0000
  I   I5        1.0  0.95037  0.71137  0.01716  1.0000
  I   I6        1.0  0.88447  0.73852  0.11786  1.0000
  I   I7        1.0  0.28771  0.95185  0.33675  1.0000
  I   I8        1.0  0.03420  0.38310  0.83591  1.0000
  I   I9        1.0  0.15513  0.02313  0.02221  1.0000
  I   I10       1.0  0.91070  0.85747  0.44542  1.0000
  I   I11       1.0  0.22644  0.15026  0.82698  1.0000
  I   I12       1.0  0.52170  0.78075  0.22260  1.0000
  I   I13       1.0  0.00117  0.13439  0.28787  1.0000
  I   I14       1.0  0.92818  0.04402  0.61118  1.0000
  I   I15       1.0  0.80307  0.00930  0.62572  1.0000
  I   I16       1.0  0.93969  0.80305  0.52729  1.0000
  I   I17       1.0  0.46331  0.21239  0.04266  1.0000
  I   I18       1.0  0.69770  0.75908  0.86614  1.0000
  I   I19       1.0  0.15472  0.11909  0.72835  1.0000
  I   I20       1.0  0.25233  0.12368  0.91329  1.0000
  I   I21       1.0  0.19585  0.92182  0.31114  1.0000
  I   I22       1.0  0.51555  0.05442  0.56183  1.0000
  I   I23       1.0  0.47070  0.04066  0.57384  1.0000
  I   I24       1.0  0.48974  0.88249  0.19413  1.0000
  I   I25       1.0  0.54797  0.91728  0.55278  1.0000
  I   I26       1.0  0.29257  0.80928  0.66999  1.0000
  I   I27       1.0  0.81420  0.25199  0.66453  1.0000
  I   I28       1.0  0.77668  0.45855  0.37144  1.0000
  I   I29       1.0  0.05861  0.84389  0.17537  1.0000
  I   I30       1.0  0.46177  0.96372  0.87863  1.0000
  I   I31       1.0  0.80384  0.42901  0.15057  1.0000
  I   I32       1.0  0.85681  0.35669  0.97325  1.0000
  I   I33       1.0  0.77185  0.34141  0.86726  1.0000
  I   I34       1.0  0.69029  0.60688  0.76799  1.0000
  I   I35       1.0  0.94016  0.09348  0.92180  1.0000
  I   I36       1.0  0.32582  0.32074  0.51292  1.0000
  I   I37       1.0  0.22819  0.30884  0.34228  1.0000
  I   I38       1.0  0.83790  0.59677  0.09675  1.0000
  I   I39       1.0  0.17806  0.36530  0.36499  1.0000
  I   I40       1.0  0.51439  0.47775  0.62530  1.0000
  I   I41       1.0  0.08872  0.22364  0.36270  1.0000
  I   I42       1.0  0.29584  0.36824  0.76094  1.0000
  I   I43       1.0  0.60732  0.29312  0.56038  1.0000
  I   I44       1.0  0.87872  0.50036  0.88132  1.0000
  I   I45       1.0  0.25863  0.66088  0.49302  1.0000
  I   I46       1.0  0.73238  0.37223  0.33119  1.0000
  I   I47       1.0  0.32838  0.56695  0.29225  1.0000
  I   I48       1.0  0.75800  0.20257  0.23237  1.0000
  I   I49       1.0  0.91490  0.29428  0.13092  1.0000
  I   I50       1.0  0.83638  0.00120  0.92443  1.0000
  I   I51       1.0  0.79709  0.06115  0.90949  1.0000
  I   I52       1.0  0.82565  0.36721  0.10261  1.0000
  I   I53       1.0  0.43314  0.72692  0.24931  1.0000
  I   I54       1.0  0.83590  0.76760  0.05445  1.0000
  I   I55       1.0  0.88385  0.35385  0.53913  1.0000
  I   I56       1.0  0.25514  0.89660  0.30810  1.0000
  I   I57       1.0  0.27910  0.01398  0.01264  1.0000
  I   I58       1.0  0.98260  0.80061  0.41360  1.0000
  I   I59       1.0  0.32341  0.26173  0.20768  1.0000
  I   I60       1.0  0.15826  0.62414  0.71460  1.0000
  I   I61       1.0  0.96835  0.07053  0.32605  1.0000
  I   I62       1.0  0.03173  0.05410  0.26325  1.0000
  I   I63       1.0  0.91570  0.10188  0.65436  1.0000
  I   I64       1.0  0.94663  0.76655  0.44126  1.0000
  I   I65       1.0  0.67187  0.93815  0.94844  1.0000
  I   I66       1.0  0.51629  0.15181  0.05488  1.0000
  I   I67       1.0  0.58970  0.55340  0.87919  1.0000
  I   I68       1.0  0.15291  0.11392  0.86821  1.0000
  I   I69       1.0  0.44361  0.72380  0.94074  1.0000
  I   I70       1.0  0.42736  0.89144  0.15601  1.0000
  I   I71       1.0  0.46032  0.08582  0.63585  1.0000
  I   I72       1.0  0.06541  0.17039  0.99975  1.0000
  I   I73       1.0  0.80359  0.19874  0.69495  1.0000
  I   I74       1.0  0.39418  0.73305  0.72705  1.0000
  I   I75       1.0  0.38363  0.78508  0.65775  1.0000
  I   I76       1.0  0.79469  0.46403  0.48756  1.0000
  I   I77       1.0  0.73014  0.48697  0.28930  1.0000
  I   I78       1.0  0.01926  0.88680  0.09826  1.0000
  I   I79       1.0  0.18285  0.77938  0.49012  1.0000
  I   I80       1.0  0.16570  0.52110  0.02397  1.0000
  I   I81       1.0  0.94045  0.32778  0.88458  1.0000
  I   I82       1.0  0.24862  0.46669  0.51180  1.0000
  I   I83       1.0  0.66954  0.66012  0.71624  1.0000
  I   I84       1.0  0.99017  0.07872  0.98742  1.0000
  I   I85       1.0  0.24434  0.33207  0.43980  1.0000
  I   I86       1.0  0.46216  0.26703  0.04966  1.0000
  I   I87       1.0  0.82196  0.65490  0.26972  1.0000
  I   I88       1.0  0.24446  0.40687  0.81865  1.0000
  I   I89       1.0  0.48871  0.58122  0.59849  1.0000
  I   I90       1.0  0.11090  0.16559  0.42209  1.0000
  I   I91       1.0  0.33051  0.64686  0.63438  1.0000
  I   I92       1.0  0.36548  0.49071  0.13192  1.0000
  I   I93       1.0  0.88383  0.56645  0.89696  1.0000
  I   I94       1.0  0.69861  0.20435  0.20363  1.0000
  I   I95       1.0  0.65001  0.33543  0.28491  1.0000
  I   I96       1.0  0.29734  0.50722  0.36367  1.0000
  I   I97       1.0  0.60846  0.95482  0.10674  1.0000
  I   I98       1.0  0.13552  0.74482  0.03395  1.0000
  I   I99       1.0  0.77939  0.03300  0.82649  1.0000
  I   I100      1.0  0.82918  0.31066  0.08549  1.0000
  I   I101      1.0  0.86292  0.07259  0.48405  1.0000
  I   I102      1.0  0.53689  0.82538  0.24202  1.0000
  I   I103      1.0  0.86242  0.41690  0.71583  1.0000
  I   I104      1.0  0.87557  0.33201  0.64999  1.0000
  I   I105      1.0  0.22907  0.01095  0.05020  1.0000
  I   I106      1.0  0.25909  0.54593  0.60894  1.0000
  I   I107      1.0  0.99237  0.77495  0.55631  1.0000
  I   I108      1.0  0.28439  0.53730  0.71914  1.0000
  I   I109      1.0  0.81049  0.94224  0.59920  1.0000
  I   I110      1.0  0.01761  0.08999  0.35792  1.0000
  I   I111      1.0  0.02391  0.98437  0.70676  1.0000
  I   I112      1.0  0.66057  0.81898  0.87758  1.0000
  I   I113      1.0  0.61128  0.98024  0.93060  1.0000
  I   I114      1.0  0.30962  0.01503  0.61153  1.0000
  I   I115      1.0  0.64755  0.52971  0.88862  1.0000
  I   I116      1.0  0.57644  0.50890  0.92956  1.0000
  I   I117      1.0  0.80355  0.48694  0.14717  1.0000
  I   I118      1.0  0.70311  0.76883  0.22427  1.0000
  I   I119      1.0  0.47286  0.83101  0.18579  1.0000
  I   I120      1.0  0.02397  0.17878  0.09000  1.0000
  I   I121      1.0  0.81760  0.21448  0.83665  1.0000
  I   I122      1.0  0.53677  0.89696  0.75171  1.0000
  I   I123      1.0  0.34202  0.82569  0.71554  1.0000
  I   I124      1.0  0.47967  0.01381  0.85514  1.0000
  I   I125      1.0  0.80854  0.40217  0.45249  1.0000
  I   I126      1.0  0.96257  0.84900  0.07264  1.0000
  I   I127      1.0  0.15425  0.85092  0.51639  1.0000
  I   I128      1.0  0.76896  0.36352  0.13925  1.0000
  I   I129      1.0  0.91148  0.31914  0.96989  1.0000
  I   I130      1.0  0.95548  0.14435  0.95976  1.0000
  I   I131      1.0  0.30525  0.38460  0.53650  1.0000
  I   I132      1.0  0.66606  0.60221  0.67055  1.0000
  I   I133      1.0  0.78890  0.61894  0.28864  1.0000
  I   I134      1.0  0.39979  0.38274  0.13441  1.0000
  I   I135      1.0  0.48146  0.26725  0.94577  1.0000
  I   I136      1.0  0.00081  0.23355  0.41192  1.0000
  I   I137      1.0  0.43442  0.46753  0.28060  1.0000
  I   I138      1.0  0.48706  0.53025  0.56315  1.0000
  I   I139      1.0  0.24695  0.67408  0.64325  1.0000
  I   I140      1.0  0.35491  0.51261  0.01337  1.0000
  I   I141      1.0  0.89346  0.61151  0.81818  1.0000
  I   I142      1.0  0.75440  0.24089  0.14216  1.0000
  I   I143      1.0  0.68832  0.36109  0.29540  1.0000
  I   I144      1.0  0.23035  0.54977  0.41149  1.0000
  I   I145      1.0  0.14282  0.78993  0.97857  1.0000
  I   I146      1.0  0.83703  0.98606  0.81744  1.0000
  I   I147      1.0  0.55255  0.95883  0.20747  1.0000
  I   I148      1.0  0.84844  0.11018  0.38830  1.0000
  I   I149      1.0  0.49696  0.80151  0.32305  1.0000
  I   I150      1.0  0.94653  0.76622  0.93666  1.0000
  I   I151      1.0  0.90327  0.37858  0.64560  1.0000
  I   I152      1.0  0.31664  0.88087  0.31857  1.0000
  I   I153      1.0  0.16840  0.05760  0.09979  1.0000
  I   I154      1.0  0.35022  0.89001  0.21152  1.0000
  I   I155      1.0  0.30380  0.12160  0.82707  1.0000
  I   I156      1.0  0.16832  0.66814  0.67960  1.0000
  I   I157      1.0  0.76079  0.00274  0.56014  1.0000
  I   I158      1.0  0.02148  0.03484  0.77920  1.0000
  I   I159      1.0  0.76606  0.98350  0.46732  1.0000
  I   I160      1.0  0.68795  0.80732  0.76424  1.0000
  I   I161      1.0  0.31624  0.06919  0.65824  1.0000
  I   I162      1.0  0.73198  0.76065  0.94866  1.0000
  I   I163      1.0  0.52184  0.53155  0.94246  1.0000
  I   I164      1.0  0.82262  0.48781  0.03272  1.0000
  I   I165      1.0  0.19064  0.97600  0.27414  1.0000
  I   I166      1.0  0.71377  0.75189  0.36111  1.0000
  I   I167      1.0  0.39828  0.12271  0.60554  1.0000
  I   I168      1.0  0.26466  0.85758  0.08991  1.0000
  I   I169      1.0  0.55036  0.86075  0.58691  1.0000
  I   I170      1.0  0.56886  0.90811  0.66960  1.0000
  I   I171      1.0  0.74466  0.28388  0.70408  1.0000
  I   I172      1.0  0.46528  0.04392  0.76627  1.0000
  I   I173      1.0  0.07235  0.78429  0.11872  1.0000
  I   I174      1.0  0.42150  0.99977  0.77215  1.0000
  I   I175      1.0  0.20451  0.55958  0.05481  1.0000
  I   I176      1.0  0.90876  0.30429  0.81469  1.0000
  I   I177      1.0  0.79728  0.33566  0.74689  1.0000
  I   I178      1.0  0.29276  0.42919  0.59927  1.0000
  I   I179      1.0  0.61786  0.68761  0.66264  1.0000
  I   I180      1.0  0.94712  0.07288  0.06461  1.0000
  I   I181      1.0  0.22028  0.28448  0.43156  1.0000
  I   I182      1.0  0.45869  0.22305  0.93788  1.0000
  I   I183      1.0  0.84495  0.55233  0.18754  1.0000
  I   I184      1.0  0.47088  0.45578  0.17076  1.0000
  I   I185      1.0  0.45451  0.49923  0.61291  1.0000
  I   I186      1.0  0.06438  0.18792  0.36323  1.0000
  I   I187      1.0  0.31082  0.54832  0.10466  1.0000
  I   I188      1.0  0.86988  0.50903  0.77361  1.0000
  I   I189      1.0  0.28288  0.69831  0.57473  1.0000
  I   I190      1.0  0.69216  0.32085  0.21551  1.0000
  I   I191      1.0  0.06908  0.30339  0.65914  1.0000
  I   I192      1.0  0.76138  0.14074  0.23540  1.0000
  I   I193      1.0  0.12669  0.78820  0.10621  1.0000
  I   I194      1.0  0.00730  0.30152  0.70718  1.0000
  I   I195      1.0  0.61641  0.90661  0.19653  1.0000
  I   I196      1.0  0.81118  0.32222  0.22115  1.0000
  I   I197      1.0  0.65243  0.25648  0.47439  1.0000
  I   I198      1.0  0.93989  0.72052  0.90800  1.0000
  I   I199      1.0  0.85456  0.40652  0.60657  1.0000
  I   I200      1.0  0.99679  0.44625  0.85829  1.0000
  I   I201      1.0  0.23732  0.03786  0.90984  1.0000
  I   I202      1.0  0.37899  0.26426  0.16642  1.0000
  I   I203      1.0  0.43126  0.71024  0.84141  1.0000
  I   I204      1.0  0.23463  0.58106  0.75826  1.0000
  I   I205      1.0  0.07546  0.07890  0.31663  1.0000
  I   I206      1.0  0.99193  0.00017  0.79449  1.0000
  I   I207      1.0  0.80185  0.01207  0.49843  1.0000
  I   I208      1.0  0.87280  0.82116  0.48545  1.0000
  I   I209      1.0  0.27826  0.07595  0.55911  1.0000
  I   I210      1.0  0.74193  0.76949  0.81546  1.0000
  I   I211      1.0  0.62606  0.53381  0.99275  1.0000
  I   I212      1.0  0.13240  0.08244  0.78582  1.0000
  I   I213      1.0  0.38256  0.76768  0.90978  1.0000
  I   I214      1.0  0.72301  0.80428  0.30409  1.0000
  I   I215      1.0  0.41634  0.06910  0.67974  1.0000
  I   I216      1.0  0.28308  0.82341  0.97678  1.0000
  I   I217      1.0  0.52952  0.84887  0.70242  1.0000
  I   I218      1.0  0.32306  0.81597  0.58944  1.0000
  I   I219      1.0  0.77100  0.23357  0.61055  1.0000
  I   I220      1.0  0.73607  0.48322  0.44205  1.0000
  I   I221      1.0  0.07394  0.83391  0.06321  1.0000
  I   I222      1.0  0.48265  0.96217  0.77717  1.0000
  I   I223      1.0  0.17601  0.56037  0.94118  1.0000
  I   I224      1.0  0.95887  0.25745  0.88044  1.0000
  I   I225      1.0  0.12705  0.83522  0.40906  1.0000
  I   I226      1.0  0.26353  0.41143  0.46132  1.0000
  I   I227      1.0  0.60948  0.65272  0.60365  1.0000
  I   I228      1.0  0.90963  0.12903  0.02990  1.0000
  I   I229      1.0  0.21298  0.39103  0.47057  1.0000
  I   I230      1.0  0.34586  0.36790  0.07546  1.0000
  I   I231      1.0  0.77693  0.64892  0.19572  1.0000
  I   I232      1.0  0.94621  0.05427  0.72423  1.0000
  I   I233      1.0  0.43649  0.56603  0.64958  1.0000
  I   I234      1.0  0.11771  0.21070  0.48349  1.0000
  I   I235      1.0  0.37331  0.93661  0.19023  1.0000
  I   I236      1.0  0.91444  0.52964  0.81665  1.0000
  I   I237      1.0  0.26893  0.71158  0.69741  1.0000
  I   I238      1.0  0.75335  0.29908  0.28011  1.0000
  I   I239      1.0  0.29216  0.53073  0.48448  1.0000
  I   I240      1.0  0.78732  0.16251  0.15572  1.0000
  I   I241      1.0  0.97148  0.30310  0.11815  1.0000
  I   I242      1.0  0.87631  0.05123  0.85366  1.0000
  I   I243      1.0  0.57954  0.91231  0.11144  1.0000
  I   I244      1.0  0.79163  0.12296  0.45389  1.0000
  I   I245      1.0  0.44302  0.67144  0.31662  1.0000
  I   I246      1.0  0.90961  0.77422  0.04778  1.0000
  I   I247      1.0  0.90621  0.35383  0.73615  1.0000
  I   I248      1.0  0.30283  0.89504  0.40625  1.0000
  I   I249      1.0  0.20418  0.00606  0.96071  1.0000
  I   I250      1.0  0.32219  0.31463  0.14267  1.0000
  I   I251      1.0  0.25713  0.18478  0.87283  1.0000
  I   I252      1.0  0.22942  0.61127  0.66807  1.0000
  I   I253      1.0  0.97779  0.09644  0.21923  1.0000
  I   I254      1.0  0.99866  0.04447  0.65754  1.0000
  I   I255      1.0  0.82194  0.96819  0.40207  1.0000
  I   I256      1.0  0.62869  0.91330  0.97867  1.0000
  I   I257      1.0  0.34461  0.03487  0.53707  1.0000
  I   I258      1.0  0.68923  0.82056  0.99626  1.0000
  I   I259      1.0  0.65203  0.47660  0.92734  1.0000
  I   I260      1.0  0.87114  0.46858  0.12437  1.0000
  I   I261      1.0  0.25411  0.94489  0.26781  1.0000
  I   I262      1.0  0.65643  0.81140  0.30800  1.0000
  I   I263      1.0  0.41687  0.04498  0.57978  1.0000
  I   I264      1.0  0.33320  0.81363  0.04904  1.0000
  I   I265      1.0  0.51692  0.91870  0.64167  1.0000
  I   I266      1.0  0.39442  0.78352  0.77524  1.0000
  I   I267      1.0  0.84965  0.15675  0.79259  1.0000
  I   I268      1.0  0.69935  0.52969  0.38102  1.0000
  I   I269      1.0  0.95941  0.90722  0.06746  1.0000
  I   I270      1.0  0.47413  0.99766  0.69316  1.0000
  I   I271      1.0  0.14031  0.59193  0.05515  1.0000
  I   I272      1.0  0.85265  0.33852  0.86819  1.0000
  I   I273      1.0  0.11771  0.81923  0.51429  1.0000
  I   I274      1.0  0.36400  0.34967  0.46212  1.0000
  I   I275      1.0  0.73124  0.57606  0.68478  1.0000
  I   I276      1.0  0.97595  0.02745  0.97786  1.0000
  I   I277      1.0  0.24305  0.41924  0.58390  1.0000
  I   I278      1.0  0.34112  0.40061  0.18364  1.0000
  I   I279      1.0  0.86273  0.58967  0.25940  1.0000
  I   I280      1.0  0.45259  0.51641  0.20799  1.0000
  I   I281      1.0  0.52106  0.52689  0.66093  1.0000
  I   I282      1.0  0.04497  0.26192  0.44198  1.0000
  I   I283      1.0  0.40183  0.84522  0.21275  1.0000
  I   I284      1.0  0.85738  0.58789  0.75342  1.0000
  I   I285      1.0  0.22013  0.71068  0.55967  1.0000
  I   I286      1.0  0.70254  0.27378  0.29480  1.0000
  I   I287      1.0  0.33437  0.53821  0.38728  1.0000
  I   I288      1.0  0.74814  0.13401  0.14357  1.0000
  I   I289      1.0  0.97343  0.25162  0.16599  1.0000
  I   I290      1.0  0.01845  0.32836  0.59188  1.0000
  I   I291      1.0  0.84787  0.06009  0.96496  1.0000
  I   I292      1.0  0.82940  0.06388  0.38802  1.0000
  I   I293      1.0  0.42170  0.67488  0.18964  1.0000
  I   I294      1.0  0.86594  0.79900  0.12334  1.0000
  I   I295      1.0  0.82499  0.35841  0.55891  1.0000
  I   I296      1.0  0.06055  0.42170  0.90845  1.0000
  I   I297      1.0  0.16278  0.07234  0.98061  1.0000
  I   I298      1.0  0.59404  0.30996  0.43168  1.0000
  I   I299      1.0  0.01602  0.74713  0.45454  1.0000
  I   I300      1.0  0.19502  0.65015  0.78403  1.0000
  I   I301      1.0  0.81531  0.92677  0.49469  1.0000
  I   I302      1.0  0.03800  0.10206  0.20819  1.0000
  I   I303      1.0  0.23978  0.35964  0.77032  1.0000
  I   I304      1.0  0.71429  0.82151  0.88220  1.0000
  I   I305      1.0  0.89045  0.82059  0.39399  1.0000
  I   I306      1.0  0.53456  0.15970  0.95961  1.0000
  I   I307      1.0  0.54469  0.57628  0.94743  1.0000
  I   I308      1.0  0.09375  0.14521  0.83672  1.0000
  I   I309      1.0  0.21522  0.95337  0.37662  1.0000
  I   I310      1.0  0.43737  0.93279  0.26264  1.0000
  I   I311      1.0  0.45008  0.12392  0.55008  1.0000
  I   I312      1.0  0.01666  0.23832  0.02865  1.0000
  I   I313      1.0  0.76957  0.23283  0.77119  1.0000
  I   I314      1.0  0.58637  0.85384  0.67210  1.0000
  I   I315      1.0  0.34625  0.75766  0.63206  1.0000
  I   I316      1.0  0.52699  0.98815  0.76251  1.0000
  I   I317      1.0  0.74804  0.42522  0.46132  1.0000
  I   I318      1.0  0.02296  0.82926  0.04495  1.0000
  I   I319      1.0  0.77759  0.29151  0.78801  1.0000
  I   I320      1.0  0.77010  0.41867  0.07234  1.0000
  I   I321      1.0  0.89698  0.27461  0.92357  1.0000
  I   I322      1.0  0.34972  0.34513  0.60275  1.0000
  I   I323      1.0  0.73036  0.63620  0.72101  1.0000
  I   I324      1.0  0.97407  0.11864  0.07999  1.0000
  I   I325      1.0  0.18093  0.35553  0.47238  1.0000
  I   I326      1.0  0.52546  0.21401  0.00408  1.0000
  I   I327      1.0  0.83734  0.63351  0.16913  1.0000
  I   I328      1.0  0.29089  0.33264  0.86755  1.0000
  I   I329      1.0  0.47411  0.52406  0.71200  1.0000
  I   I330      1.0  0.02219  0.25381  0.32888  1.0000
  I   I331      1.0  0.28519  0.63311  0.60370  1.0000
  I   I332      1.0  0.58863  0.25501  0.47992  1.0000
  I   I333      1.0  0.83830  0.57161  0.83974  1.0000
  I   I334      1.0  0.72414  0.20039  0.11252  1.0000
  I   I335      1.0  0.70546  0.32179  0.37271  1.0000
  I   I336      1.0  0.26686  0.58751  0.42029  1.0000
  I   I337      1.0  0.08359  0.79411  0.97749  1.0000
  I   I338      1.0  0.05469  0.26093  0.60265  1.0000
  I   I339      1.0  0.82550  0.05593  0.81044  1.0000
  I   I340      1.0  0.81568  0.37066  0.20282  1.0000
  I   I341      1.0  0.47497  0.86464  0.28738  1.0000
  I   I342      1.0  0.87592  0.76143  0.97309  1.0000
  I   I343      1.0  0.82655  0.37868  0.67955  1.0000
  I   I344      1.0  0.06042  0.41396  0.77550  1.0000
  I   I345      1.0  0.26747  0.97005  0.92274  1.0000
  I   I346      1.0  0.40795  0.89276  0.26022  1.0000
  I   I347      1.0  0.32779  0.31821  0.26098  1.0000
  I   I348      1.0  0.20676  0.56723  0.69212  1.0000
  I   I349      1.0  0.84677  0.96383  0.52459  1.0000
  I   I350      1.0  0.94501  0.12947  0.32829  1.0000
  I   I351      1.0  0.96155  0.08347  0.58904  1.0000
  I   I352      1.0  0.66285  0.79413  0.97605  1.0000
  I   I353      1.0  0.61167  0.93401  0.85981  1.0000
  I   I354      1.0  0.46465  0.16948  0.97531  1.0000
  I   I355      1.0  0.53468  0.55283  0.82356  1.0000
  I   I356      1.0  0.80781  0.54162  0.10310  1.0000
  I   I357      1.0  0.45228  0.75993  0.84231  1.0000
  I   I358      1.0  0.29256  0.87779  0.98892  1.0000
  I   I359      1.0  0.46744  0.07808  0.47637  1.0000
  I   I360      1.0  0.99202  0.19558  0.98500  1.0000
  I   I361      1.0  0.78965  0.16517  0.77989  1.0000
  I   I362      1.0  0.60835  0.87650  0.57312  1.0000
  I   I363      1.0  0.33196  0.79081  0.78125  1.0000
  I   I364      1.0  0.41563  0.02254  0.87525  1.0000
  I   I365      1.0  0.75482  0.52579  0.32774  1.0000
  I   I366      1.0  0.00189  0.85245  0.15101  1.0000
  I   I367      1.0  0.73922  0.37201  0.76531  1.0000
  I   I368      1.0  0.75046  0.41956  0.18695  1.0000
  I   I369      1.0  0.83334  0.31987  0.96446  1.0000
  I   I370      1.0  0.38495  0.30411  0.53780  1.0000
  I   I371      1.0  0.67996  0.64860  0.61734  1.0000
  I   I372      1.0  0.91735  0.06629  0.98422  1.0000
  I   I373      1.0  0.22445  0.38438  0.34011  1.0000
  I   I374      1.0  0.33201  0.43553  0.07892  1.0000
  I   I375      1.0  0.89327  0.55896  0.14057  1.0000
  I   I376      1.0  0.50178  0.45682  0.27137  1.0000
  I   I377      1.0  0.47851  0.57843  0.73687  1.0000
  I   I378      1.0  0.04948  0.21173  0.46939  1.0000
  I   I379      1.0  0.29418  0.64280  0.70785  1.0000
  I   I380      1.0  0.37330  0.54980  0.06822  1.0000
  I   I381      1.0  0.83069  0.62886  0.83658  1.0000
  I   I382      1.0  0.69605  0.25723  0.20012  1.0000
  I   I383      1.0  0.77024  0.31584  0.37733  1.0000
  I   I384      1.0  0.30600  0.61106  0.37264  1.0000
