data_image0
_chemical_formula_structural       Ti96I384
_chemical_formula_sum              "Ti96 I384"
_cell_length_a       62.9251
_cell_length_b       62.6423
_cell_length_c       30.6201
_cell_angle_alpha    88.7757
_cell_angle_beta     88.7757
_cell_angle_gamma    62.1586

_space_group_name_H-M_alt    "P 1"
_space_group_IT_number       1

loop_
  _space_group_symop_operation_xyz
  'x, y, z'

loop_
  _atom_site_type_symbol
  _atom_site_label
  _atom_site_symmetry_multiplicity
  _atom_site_fract_x
  _atom_site_fract_y
  _atom_site_fract_z
  _atom_site_occupancy
  Ti  Ti1       1.0  0.59342  0.88782  0.54910  1.0000
  Ti  Ti2       1.0  0.53015  0.10245  0.26769  1.0000
  Ti  Ti3       1.0  0.05956  0.41367  0.06626  1.0000
  Ti  Ti4       1.0  0.54797  0.42974  0.90194  1.0000
  Ti  Ti5       1.0  0.19006  0.83711  0.01533  1.0000
  Ti  Ti6       1.0  0.33344  0.18868  0.58611  1.0000
  Ti  Ti7       1.0  0.05398  0.86905  0.74780  1.0000
  Ti  Ti8       1.0  0.27407  0.53548  0.21243  1.0000
  Ti  Ti9       1.0  0.30980  0.90109  0.89030  1.0000
  Ti  Ti10      1.0  0.88183  0.77561  0.00039  1.0000
  Ti  Ti11      1.0  0.30663  0.57556  0.90531  1.0000
  Ti  Ti12      1.0  0.26668  0.62635  0.61753  1.0000
  Ti  Ti13      1.0  0.26182  0.38905  0.34865  1.0000
  Ti  Ti14      1.0  0.13885  0.98064  0.70586  1.0000
  Ti  Ti15      1.0  0.38490  0.93131  0.10308  1.0000
  Ti  Ti16      1.0  0.84546  0.71424  0.80928  1.0000
  Ti  Ti17      1.0  0.17922  0.31969  0.22735  1.0000
  Ti  Ti18      1.0  0.84941  0.58506  0.68184  1.0000
  Ti  Ti19      1.0  0.84261  0.92293  0.55376  1.0000
  Ti  Ti20      1.0  0.20354  0.06341  0.51559  1.0000
  Ti  Ti21      1.0  0.81381  0.21291  0.30117  1.0000
  Ti  Ti22      1.0  0.60276  0.60211  0.09917  1.0000
  Ti  Ti23      1.0  0.74555  0.86281  0.89294  1.0000
  Ti  Ti24      1.0  0.28760  0.75338  0.62775  1.0000
  Ti  Ti25      1.0  0.17553  0.35195  0.68348  1.0000
  Ti  Ti26      1.0  0.07927  0.13812  0.23325  1.0000
  Ti  Ti27      1.0  0.12149  0.67093  0.85178  1.0000
  Ti  Ti28      1.0  0.61049  0.51275  0.39961  1.0000
  Ti  Ti29      1.0  0.03500  0.95962  0.12857  1.0000
  Ti  Ti30      1.0  0.89283  0.44941  0.31713  1.0000
  Ti  Ti31      1.0  0.73411  0.39565  0.63868  1.0000
  Ti  Ti32      1.0  0.66899  0.03346  0.13181  1.0000
  Ti  Ti33      1.0  0.35619  0.84200  0.44144  1.0000
  Ti  Ti34      1.0  0.66816  0.67725  0.79995  1.0000
  Ti  Ti35      1.0  0.89343  0.39897  0.79687  1.0000
  Ti  Ti36      1.0  0.03876  0.52122  0.43261  1.0000
  Ti  Ti37      1.0  0.00884  0.30104  0.50039  1.0000
  Ti  Ti38      1.0  0.39618  0.40419  0.68232  1.0000
  Ti  Ti39      1.0  0.50673  0.29017  0.08770  1.0000
  Ti  Ti40      1.0  0.68678  0.72960  0.34007  1.0000
  Ti  Ti41      1.0  0.49868  0.71442  0.39363  1.0000
  Ti  Ti42      1.0  0.73663  0.97760  0.73868  1.0000
  Ti  Ti43      1.0  0.37349  0.12845  0.98915  1.0000
  Ti  Ti44      1.0  0.85434  0.60321  0.10522  1.0000
  Ti  Ti45      1.0  0.39908  0.71051  0.87022  1.0000
  Ti  Ti46      1.0  0.14243  0.30410  0.96769  1.0000
  Ti  Ti47      1.0  0.96844  0.17739  0.88760  1.0000
  Ti  Ti48      1.0  0.43864  0.52347  0.56618  1.0000
  Ti  Ti49      1.0  0.61662  0.94389  0.51282  1.0000
  Ti  Ti50      1.0  0.50562  0.06021  0.60127  1.0000
  Ti  Ti51      1.0  0.52369  0.17692  0.26995  1.0000
  Ti  Ti52      1.0  0.61101  0.40055  0.81892  1.0000
  Ti  Ti53      1.0  0.25358  0.68210  0.03766  1.0000
  Ti  Ti54      1.0  0.32954  0.13878  0.51874  1.0000
  Ti  Ti55      1.0  0.07562  0.84062  0.84292  1.0000
  Ti  Ti56      1.0  0.28707  0.58418  0.15025  1.0000
  Ti  Ti57      1.0  0.27104  0.94271  0.83901  1.0000
  Ti  Ti58      1.0  0.43249  0.05068  0.02278  1.0000
  Ti  Ti59      1.0  0.88159  0.74485  0.11195  1.0000
  Ti  Ti60      1.0  0.27439  0.56993  0.57962  1.0000
  Ti  Ti61      1.0  0.40678  0.89481  0.18305  1.0000
  Ti  Ti62      1.0  0.33119  0.35289  0.27189  1.0000
  Ti  Ti63      1.0  0.13789  0.91618  0.70030  1.0000
  Ti  Ti64      1.0  0.87179  0.61944  0.56197  1.0000
  Ti  Ti65      1.0  0.96959  0.58730  0.94359  1.0000
  Ti  Ti66      1.0  0.43422  0.35044  0.44684  1.0000
  Ti  Ti67      1.0  0.89371  0.90292  0.43145  1.0000
  Ti  Ti68      1.0  0.23490  0.07284  0.66487  1.0000
  Ti  Ti69      1.0  0.84937  0.23532  0.19203  1.0000
  Ti  Ti70      1.0  0.64776  0.60575  0.10098  1.0000
  Ti  Ti71      1.0  0.74823  0.90701  0.99578  1.0000
  Ti  Ti72      1.0  0.84578  0.99533  0.03771  1.0000
  Ti  Ti73      1.0  0.12970  0.61629  0.88711  1.0000
  Ti  Ti74      1.0  0.17711  0.40912  0.65178  1.0000
  Ti  Ti75      1.0  0.02947  0.15889  0.29161  1.0000
  Ti  Ti76      1.0  0.96096  0.41242  0.28019  1.0000
  Ti  Ti77      1.0  0.57763  0.49308  0.29838  1.0000
  Ti  Ti78      1.0  0.09590  0.95366  0.10744  1.0000
  Ti  Ti79      1.0  0.31313  0.90644  0.39952  1.0000
  Ti  Ti80      1.0  0.76814  0.43892  0.62146  1.0000
  Ti  Ti81      1.0  0.68411  0.08755  0.08986  1.0000
  Ti  Ti82      1.0  0.64297  0.73753  0.83449  1.0000
  Ti  Ti83      1.0  0.85207  0.46738  0.76752  1.0000
  Ti  Ti84      1.0  0.98979  0.50743  0.40182  1.0000
  Ti  Ti85      1.0  0.08162  0.29575  0.56063  1.0000
  Ti  Ti86      1.0  0.40784  0.36949  0.56469  1.0000
  Ti  Ti87      1.0  0.48087  0.32528  0.20103  1.0000
  Ti  Ti88      1.0  0.70866  0.78190  0.40252  1.0000
  Ti  Ti89      1.0  0.48451  0.72732  0.51554  1.0000
  Ti  Ti90      1.0  0.76878  0.99942  0.83340  1.0000
  Ti  Ti91      1.0  0.34848  0.75164  0.81426  1.0000
  Ti  Ti92      1.0  0.86476  0.17072  0.57019  1.0000
  Ti  Ti93      1.0  0.81570  0.60633  0.02980  1.0000
  Ti  Ti94      1.0  0.47770  0.56310  0.54173  1.0000
  Ti  Ti95      1.0  0.15909  0.23103  0.96341  1.0000
  Ti  Ti96      1.0  0.99574  0.13595  0.97174  1.0000
  I   I1        1.0  0.00220  0.16503  0.01860  1.0000
  I   I2        1.0  0.56975  0.16598  0.29617  1.0000
  I   I3        1.0  0.57247  0.93761  0.51880  1.0000
  I   I4        1.0  0.24790  0.65433  0.97645  1.0000
  I   I5        1.0  0.37023  0.19386  0.56286  1.0000
  I   I6        1.0  0.32766  0.18262  0.49086  1.0000
  I   I7        1.0  0.26750  0.63032  0.12967  1.0000
  I   I8        1.0  0.25034  0.58846  0.20982  1.0000
  I   I9        1.0  0.25698  0.91309  0.79837  1.0000
  I   I10       1.0  0.92963  0.75478  0.01064  1.0000
  I   I11       1.0  0.34348  0.55611  0.85063  1.0000
  I   I12       1.0  0.17687  0.81553  0.95314  1.0000
  I   I13       1.0  0.30607  0.38830  0.34069  1.0000
  I   I14       1.0  0.16509  0.91480  0.63722  1.0000
  I   I15       1.0  0.39802  0.96201  0.07295  1.0000
  I   I16       1.0  0.83692  0.72450  0.89410  1.0000
  I   I17       1.0  0.44018  0.37390  0.38293  1.0000
  I   I18       1.0  0.92029  0.60159  0.55404  1.0000
  I   I19       1.0  0.24980  0.05826  0.51008  1.0000
  I   I20       1.0  0.28524  0.54876  0.90231  1.0000
  I   I21       1.0  0.84931  0.22201  0.32445  1.0000
  I   I22       1.0  0.78801  0.90676  0.01301  1.0000
  I   I23       1.0  0.71581  0.88839  0.96709  1.0000
  I   I24       1.0  0.64255  0.56305  0.06832  1.0000
  I   I25       1.0  0.16507  0.43904  0.71792  1.0000
  I   I26       1.0  0.07828  0.14814  0.31747  1.0000
  I   I27       1.0  0.14176  0.67526  0.92796  1.0000
  I   I28       1.0  0.59343  0.44976  0.26857  1.0000
  I   I29       1.0  0.06378  0.98863  0.15150  1.0000
  I   I30       1.0  0.98638  0.39187  0.20566  1.0000
  I   I31       1.0  0.77515  0.43171  0.53562  1.0000
  I   I32       1.0  0.72422  0.05796  0.05113  1.0000
  I   I33       1.0  0.30386  0.95227  0.42296  1.0000
  I   I34       1.0  0.82705  0.49730  0.83479  1.0000
  I   I35       1.0  0.99217  0.46734  0.39813  1.0000
  I   I36       1.0  0.66303  0.63920  0.83203  1.0000
  I   I37       1.0  0.96617  0.32755  0.52518  1.0000
  I   I38       1.0  0.49013  0.27961  0.17333  1.0000
  I   I39       1.0  0.09001  0.32965  0.54845  1.0000
  I   I40       1.0  0.44517  0.76456  0.54562  1.0000
  I   I41       1.0  0.78777  0.95116  0.83376  1.0000
  I   I42       1.0  0.64481  0.73200  0.37016  1.0000
  I   I43       1.0  0.38255  0.10352  0.07087  1.0000
  I   I44       1.0  0.80202  0.61472  0.94995  1.0000
  I   I45       1.0  0.39211  0.75620  0.83400  1.0000
  I   I46       1.0  0.10204  0.33714  0.93659  1.0000
  I   I47       1.0  0.97128  0.13342  0.89919  1.0000
  I   I48       1.0  0.44039  0.50644  0.64306  1.0000
  I   I49       1.0  0.64969  0.92723  0.58111  1.0000
  I   I50       1.0  0.54107  0.13303  0.21587  1.0000
  I   I51       1.0  0.55820  0.06850  0.21741  1.0000
  I   I52       1.0  0.52141  0.45699  0.83881  1.0000
  I   I53       1.0  0.22854  0.72364  0.99770  1.0000
  I   I54       1.0  0.30792  0.12934  0.45234  1.0000
  I   I55       1.0  0.00799  0.87708  0.74128  1.0000
  I   I56       1.0  0.31729  0.59070  0.20109  1.0000
  I   I57       1.0  0.26354  0.91935  0.93724  1.0000
  I   I58       1.0  0.87109  0.76083  0.93097  1.0000
  I   I59       1.0  0.88116  0.81633  0.96285  1.0000
  I   I60       1.0  0.25180  0.61340  0.53520  1.0000
  I   I61       1.0  0.34708  0.32441  0.20458  1.0000
  I   I62       1.0  0.34676  0.38108  0.23774  1.0000
  I   I63       1.0  0.18169  0.96573  0.66988  1.0000
  I   I64       1.0  0.82025  0.69373  0.77873  1.0000
  I   I65       1.0  0.00098  0.60393  0.94377  1.0000
  I   I66       1.0  0.41302  0.32334  0.42723  1.0000
  I   I67       1.0  0.93780  0.86177  0.42183  1.0000
  I   I68       1.0  0.22688  0.01544  0.50456  1.0000
  I   I69       1.0  0.79726  0.24114  0.23495  1.0000
  I   I70       1.0  0.67907  0.61058  0.14475  1.0000
  I   I71       1.0  0.72941  0.83265  0.91874  1.0000
  I   I72       1.0  0.85940  0.02818  0.01247  1.0000
  I   I73       1.0  0.08235  0.70868  0.82633  1.0000
  I   I74       1.0  0.05072  0.11961  0.19597  1.0000
  I   I75       1.0  0.03808  0.18574  0.21248  1.0000
  I   I76       1.0  0.62689  0.47808  0.32962  1.0000
  I   I77       1.0  0.59629  0.51040  0.23515  1.0000
  I   I78       1.0  0.00202  0.00566  0.13589  1.0000
  I   I79       1.0  0.34144  0.88397  0.47569  1.0000
  I   I80       1.0  0.72164  0.37683  0.57707  1.0000
  I   I81       1.0  0.69467  0.01403  0.05933  1.0000
  I   I82       1.0  0.65601  0.66148  0.72257  1.0000
  I   I83       1.0  0.85218  0.42531  0.74533  1.0000
  I   I84       1.0  0.04165  0.55031  0.49004  1.0000
  I   I85       1.0  0.00351  0.31466  0.41966  1.0000
  I   I86       1.0  0.36536  0.38481  0.59444  1.0000
  I   I87       1.0  0.50695  0.31525  0.02465  1.0000
  I   I88       1.0  0.72679  0.73631  0.35206  1.0000
  I   I89       1.0  0.49419  0.75455  0.45634  1.0000
  I   I90       1.0  0.72332  0.00668  0.82342  1.0000
  I   I91       1.0  0.37780  0.71117  0.77820  1.0000
  I   I92       1.0  0.91046  0.14746  0.60142  1.0000
  I   I93       1.0  0.83342  0.56079  0.01377  1.0000
  I   I94       1.0  0.44440  0.55390  0.49785  1.0000
  I   I95       1.0  0.13488  0.22547  0.03262  1.0000
  I   I96       1.0  0.98377  0.10712  0.01676  1.0000
  I   I97       1.0  0.08409  0.43848  0.07726  1.0000
  I   I98       1.0  0.62691  0.89329  0.49639  1.0000
  I   I99       1.0  0.56001  0.09913  0.33025  1.0000
  I   I100      1.0  0.61890  0.36843  0.75303  1.0000
  I   I101      1.0  0.51255  0.42301  0.93641  1.0000
  I   I102      1.0  0.15349  0.87938  0.00649  1.0000
  I   I103      1.0  0.07617  0.83362  0.69251  1.0000
  I   I104      1.0  0.08793  0.84117  0.92580  1.0000
  I   I105      1.0  0.31304  0.91267  0.79412  1.0000
  I   I106      1.0  0.24559  0.55742  0.54994  1.0000
  I   I107      1.0  0.87227  0.79368  0.09379  1.0000
  I   I108      1.0  0.31192  0.59805  0.64121  1.0000
  I   I109      1.0  0.37196  0.88921  0.22329  1.0000
  I   I110      1.0  0.21674  0.38874  0.33317  1.0000
  I   I111      1.0  0.12436  0.01254  0.76889  1.0000
  I   I112      1.0  0.86482  0.65570  0.60934  1.0000
  I   I113      1.0  0.95577  0.55516  0.91743  1.0000
  I   I114      1.0  0.18675  0.35021  0.27337  1.0000
  I   I115      1.0  0.87320  0.92066  0.61157  1.0000
  I   I116      1.0  0.91070  0.93136  0.40859  1.0000
  I   I117      1.0  0.26829  0.08488  0.65471  1.0000
  I   I118      1.0  0.61101  0.64908  0.09438  1.0000
  I   I119      1.0  0.56410  0.63354  0.15032  1.0000
  I   I120      1.0  0.81535  0.00564  0.09785  1.0000
  I   I121      1.0  0.13943  0.61370  0.96880  1.0000
  I   I122      1.0  0.13849  0.40050  0.65271  1.0000
  I   I123      1.0  0.11302  0.09606  0.24404  1.0000
  I   I124      1.0  0.87232  0.43512  0.37796  1.0000
  I   I125      1.0  0.60679  0.55205  0.44372  1.0000
  I   I126      1.0  0.09474  0.95826  0.01989  1.0000
  I   I127      1.0  0.34873  0.86340  0.36008  1.0000
  I   I128      1.0  0.68954  0.41949  0.67681  1.0000
  I   I129      1.0  0.65621  0.11143  0.02614  1.0000
  I   I130      1.0  0.99629  0.55842  0.40699  1.0000
  I   I131      1.0  0.67405  0.69940  0.88070  1.0000
  I   I132      1.0  0.82641  0.48357  0.68903  1.0000
  I   I133      1.0  0.52710  0.30415  0.15219  1.0000
  I   I134      1.0  0.43289  0.39212  0.72420  1.0000
  I   I135      1.0  0.40724  0.41509  0.59051  1.0000
  I   I136      1.0  0.70048  0.01873  0.71419  1.0000
  I   I137      1.0  0.67635  0.81961  0.43376  1.0000
  I   I138      1.0  0.48629  0.68686  0.35061  1.0000
  I   I139      1.0  0.40931  0.72253  0.94929  1.0000
  I   I140      1.0  0.85007  0.19782  0.50227  1.0000
  I   I141      1.0  0.86748  0.59999  0.01674  1.0000
  I   I142      1.0  0.43829  0.57450  0.59373  1.0000
  I   I143      1.0  0.20780  0.20121  0.97197  1.0000
  I   I144      1.0  0.00248  0.16037  0.82782  1.0000
  I   I145      1.0  0.61026  0.95762  0.42893  1.0000
  I   I146      1.0  0.50510  0.08774  0.31185  1.0000
  I   I147      1.0  0.01271  0.44144  0.07252  1.0000
  I   I148      1.0  0.58779  0.43913  0.88816  1.0000
  I   I149      1.0  0.23484  0.82799  0.00603  1.0000
  I   I150      1.0  0.36822  0.10088  0.50186  1.0000
  I   I151      1.0  0.11115  0.80853  0.80660  1.0000
  I   I152      1.0  0.27967  0.54519  0.12182  1.0000
  I   I153      1.0  0.32385  0.88351  0.97217  1.0000
  I   I154      1.0  0.39744  0.03944  0.02612  1.0000
  I   I155      1.0  0.30021  0.59700  0.97940  1.0000
  I   I156      1.0  0.24355  0.60324  0.65165  1.0000
  I   I157      1.0  0.36191  0.93302  0.03132  1.0000
  I   I158      1.0  0.16102  0.87950  0.75594  1.0000
  I   I159      1.0  0.41529  0.92006  0.23979  1.0000
  I   I160      1.0  0.86040  0.63204  0.47884  1.0000
  I   I161      1.0  0.14009  0.35490  0.18616  1.0000
  I   I162      1.0  0.80930  0.61590  0.64425  1.0000
  I   I163      1.0  0.86606  0.89573  0.37214  1.0000
  I   I164      1.0  0.20439  0.10234  0.72040  1.0000
  I   I165      1.0  0.84322  0.23204  0.11163  1.0000
  I   I166      1.0  0.57269  0.62118  0.03297  1.0000
  I   I167      1.0  0.78978  0.82332  0.88387  1.0000
  I   I168      1.0  0.28803  0.74920  0.54209  1.0000
  I   I169      1.0  0.19422  0.36812  0.59685  1.0000
  I   I170      1.0  0.14458  0.33678  0.68322  1.0000
  I   I171      1.0  0.08945  0.65308  0.89556  1.0000
  I   I172      1.0  0.85506  0.45729  0.26609  1.0000
  I   I173      1.0  0.12216  0.97593  0.10827  1.0000
  I   I174      1.0  0.91888  0.46360  0.26466  1.0000
  I   I175      1.0  0.71672  0.44646  0.60283  1.0000
  I   I176      1.0  0.69777  0.11959  0.11063  1.0000
  I   I177      1.0  0.34610  0.82980  0.51750  1.0000
  I   I178      1.0  0.60382  0.77452  0.80701  1.0000
  I   I179      1.0  0.88878  0.36264  0.77212  1.0000
  I   I180      1.0  0.95912  0.52803  0.33306  1.0000
  I   I181      1.0  0.04810  0.27794  0.57165  1.0000
  I   I182      1.0  0.39062  0.38960  0.48472  1.0000
  I   I183      1.0  0.53631  0.24617  0.07941  1.0000
  I   I184      1.0  0.66439  0.77449  0.38716  1.0000
  I   I185      1.0  0.52172  0.69441  0.46817  1.0000
  I   I186      1.0  0.79698  0.01667  0.81037  1.0000
  I   I187      1.0  0.85264  0.13752  0.56585  1.0000
  I   I188      1.0  0.83354  0.58366  0.16663  1.0000
  I   I189      1.0  0.37567  0.68511  0.90410  1.0000
  I   I190      1.0  0.14784  0.32420  0.03755  1.0000
  I   I191      1.0  0.51615  0.04232  0.52084  1.0000
  I   I192      1.0  0.49050  0.51452  0.57051  1.0000
  I   I193      1.0  0.59705  0.98595  0.54080  1.0000
  I   I194      1.0  0.45850  0.08070  0.60751  1.0000
  I   I195      1.0  0.07177  0.39962  0.98333  1.0000
  I   I196      1.0  0.56201  0.44155  0.97284  1.0000
  I   I197      1.0  0.36883  0.13787  0.90059  1.0000
  I   I198      1.0  0.28940  0.17759  0.56423  1.0000
  I   I199      1.0  0.08888  0.87614  0.78877  1.0000
  I   I200      1.0  0.32271  0.56490  0.09264  1.0000
  I   I201      1.0  0.34112  0.85699  0.86911  1.0000
  I   I202      1.0  0.91670  0.70856  0.06946  1.0000
  I   I203      1.0  0.78460  0.23817  0.35826  1.0000
  I   I204      1.0  0.25324  0.66013  0.67520  1.0000
  I   I205      1.0  0.35402  0.32676  0.33975  1.0000
  I   I206      1.0  0.16419  0.93822  0.75789  1.0000
  I   I207      1.0  0.38415  0.88332  0.10549  1.0000
  I   I208      1.0  0.82443  0.75684  0.76950  1.0000
  I   I209      1.0  0.18432  0.28261  0.28096  1.0000
  I   I210      1.0  0.86371  0.57999  0.57506  1.0000
  I   I211      1.0  0.85312  0.94397  0.47909  1.0000
  I   I212      1.0  0.20011  0.07448  0.43539  1.0000
  I   I213      1.0  0.89365  0.22386  0.19049  1.0000
  I   I214      1.0  0.68316  0.58940  0.03711  1.0000
  I   I215      1.0  0.72482  0.88762  0.82481  1.0000
  I   I216      1.0  0.33033  0.72036  0.65405  1.0000
  I   I217      1.0  0.17424  0.35586  0.76597  1.0000
  I   I218      1.0  0.99167  0.16954  0.24396  1.0000
  I   I219      1.0  0.10687  0.58931  0.88411  1.0000
  I   I220      1.0  0.60365  0.48148  0.45988  1.0000
  I   I221      1.0  0.99949  0.95046  0.11277  1.0000
  I   I222      1.0  0.91937  0.40494  0.28823  1.0000
  I   I223      1.0  0.77454  0.39255  0.61251  1.0000
  I   I224      1.0  0.64120  0.07560  0.10680  1.0000
  I   I225      1.0  0.40403  0.82674  0.43461  1.0000
  I   I226      1.0  0.67040  0.75989  0.84201  1.0000
  I   I227      1.0  0.94137  0.37687  0.78440  1.0000
  I   I228      1.0  0.08256  0.51007  0.41032  1.0000
  I   I229      1.0  0.08581  0.29899  0.64840  1.0000
  I   I230      1.0  0.37525  0.45108  0.69587  1.0000
  I   I231      1.0  0.45595  0.32518  0.27077  1.0000
  I   I232      1.0  0.70553  0.68389  0.34171  1.0000
  I   I233      1.0  0.53557  0.71528  0.35815  1.0000
  I   I234      1.0  0.74622  0.95708  0.66492  1.0000
  I   I235      1.0  0.44631  0.05485  0.10160  1.0000
  I   I236      1.0  0.80630  0.64392  0.08803  1.0000
  I   I237      1.0  0.43841  0.69394  0.81874  1.0000
  I   I238      1.0  0.17124  0.30911  0.90641  1.0000
  I   I239      1.0  0.03862  0.11022  0.92297  1.0000
  I   I240      1.0  0.50033  0.56898  0.60565  1.0000
  I   I241      1.0  0.62070  0.84111  0.54811  1.0000
  I   I242      1.0  0.49534  0.21524  0.22929  1.0000
  I   I243      1.0  0.07314  0.37942  0.12564  1.0000
  I   I244      1.0  0.57590  0.38696  0.84740  1.0000
  I   I245      1.0  0.21368  0.69514  0.08423  1.0000
  I   I246      1.0  0.30085  0.22788  0.61766  1.0000
  I   I247      1.0  0.04751  0.82123  0.83376  1.0000
  I   I248      1.0  0.25955  0.54267  0.29097  1.0000
  I   I249      1.0  0.25655  0.98306  0.77305  1.0000
  I   I250      1.0  0.84781  0.74034  0.15580  1.0000
  I   I251      1.0  0.28082  0.61041  0.84712  1.0000
  I   I252      1.0  0.30586  0.55257  0.51801  1.0000
  I   I253      1.0  0.26352  0.37226  0.43299  1.0000
  I   I254      1.0  0.11283  0.90852  0.64857  1.0000
  I   I255      1.0  0.43215  0.90064  0.11443  1.0000
  I   I256      1.0  0.93133  0.62383  0.91706  1.0000
  I   I257      1.0  0.19620  0.29703  0.15025  1.0000
  I   I258      1.0  0.84299  0.59003  0.76322  1.0000
  I   I259      1.0  0.81372  0.96771  0.57648  1.0000
  I   I260      1.0  0.25050  0.02573  0.67017  1.0000
  I   I261      1.0  0.82949  0.16900  0.33086  1.0000
  I   I262      1.0  0.58250  0.57248  0.11029  1.0000
  I   I263      1.0  0.77887  0.87346  0.92105  1.0000
  I   I264      1.0  0.25868  0.74018  0.66745  1.0000
  I   I265      1.0  0.17468  0.43278  0.57345  1.0000
  I   I266      1.0  0.03629  0.11764  0.32557  1.0000
  I   I267      1.0  0.12509  0.63108  0.79731  1.0000
  I   I268      1.0  0.57035  0.53274  0.34990  1.0000
  I   I269      1.0  0.13434  0.91538  0.14531  1.0000
  I   I270      1.0  0.98428  0.43841  0.29218  1.0000
  I   I271      1.0  0.74589  0.48593  0.65402  1.0000
  I   I272      1.0  0.63925  0.01871  0.10649  1.0000
  I   I273      1.0  0.35399  0.80140  0.40065  1.0000
  I   I274      1.0  0.71281  0.66057  0.78166  1.0000
  I   I275      1.0  0.86766  0.39746  0.86567  1.0000
  I   I276      1.0  0.02044  0.49832  0.49355  1.0000
  I   I277      1.0  0.00648  0.25813  0.52208  1.0000
  I   I278      1.0  0.42214  0.35304  0.65219  1.0000
  I   I279      1.0  0.47518  0.27467  0.06395  1.0000
  I   I280      1.0  0.74296  0.79043  0.37703  1.0000
  I   I281      1.0  0.44947  0.74163  0.40397  1.0000
  I   I282      1.0  0.76278  0.00647  0.73499  1.0000
  I   I283      1.0  0.47287  0.01107  0.00883  1.0000
  I   I284      1.0  0.88948  0.56763  0.13181  1.0000
  I   I285      1.0  0.34017  0.75804  0.90322  1.0000
  I   I286      1.0  0.13196  0.27342  0.90757  1.0000
  I   I287      1.0  0.94425  0.18153  0.96280  1.0000
  I   I288      1.0  0.39363  0.55191  0.54529  1.0000
  I   I289      1.0  0.55112  0.89445  0.57508  1.0000
  I   I290      1.0  0.54403  0.02035  0.62800  1.0000
  I   I291      1.0  0.49440  0.15092  0.28896  1.0000
  I   I292      1.0  0.64113  0.38072  0.87833  1.0000
  I   I293      1.0  0.28687  0.68958  0.06841  1.0000
  I   I294      1.0  0.33924  0.15738  0.65198  1.0000
  I   I295      1.0  0.04737  0.90906  0.70245  1.0000
  I   I296      1.0  0.31876  0.49964  0.22200  1.0000
  I   I297      1.0  0.29805  0.94977  0.89993  1.0000
  I   I298      1.0  0.35812  0.16960  0.03277  1.0000
  I   I299      1.0  0.85916  0.74553  0.02775  1.0000
  I   I300      1.0  0.30447  0.52655  0.62068  1.0000
  I   I301      1.0  0.35569  0.95409  0.17030  1.0000
  I   I302      1.0  0.27755  0.36580  0.26677  1.0000
  I   I303      1.0  0.11141  0.00696  0.64763  1.0000
  I   I304      1.0  0.87979  0.53976  0.67501  1.0000
  I   I305      1.0  0.89024  0.69906  0.78409  1.0000
  I   I306      1.0  0.41378  0.32589  0.54540  1.0000
  I   I307      1.0  0.82327  0.89537  0.58921  1.0000
  I   I308      1.0  0.16813  0.06020  0.56915  1.0000
  I   I309      1.0  0.83353  0.28006  0.18408  1.0000
  I   I310      1.0  0.62721  0.59441  0.17956  1.0000
  I   I311      1.0  0.73259  0.93474  0.92729  1.0000
  I   I312      1.0  0.82879  0.98177  0.97402  1.0000
  I   I313      1.0  0.17195  0.61208  0.87129  1.0000
  I   I314      1.0  0.21214  0.31361  0.67769  1.0000
  I   I315      1.0  0.10266  0.14942  0.17791  1.0000
  I   I316      1.0  0.90688  0.46685  0.38133  1.0000
  I   I317      1.0  0.65853  0.48753  0.41572  1.0000
  I   I318      1.0  0.07560  0.92023  0.09978  1.0000
  I   I319      1.0  0.28370  0.88888  0.42026  1.0000
  I   I320      1.0  0.81269  0.41919  0.64226  1.0000
  I   I321      1.0  0.68439  0.01047  0.20795  1.0000
  I   I322      1.0  0.61835  0.70879  0.84315  1.0000
  I   I323      1.0  0.88328  0.43909  0.84227  1.0000
  I   I324      1.0  0.96150  0.51603  0.46339  1.0000
  I   I325      1.0  0.12210  0.25506  0.53740  1.0000
  I   I326      1.0  0.44807  0.37036  0.50915  1.0000
  I   I327      1.0  0.45434  0.35163  0.14276  1.0000
  I   I328      1.0  0.68461  0.73484  0.25322  1.0000
  I   I329      1.0  0.51190  0.71112  0.58939  1.0000
  I   I330      1.0  0.71398  0.95819  0.78868  1.0000
  I   I331      1.0  0.33341  0.78888  0.76182  1.0000
  I   I332      1.0  0.43192  0.09132  0.97970  1.0000
  I   I333      1.0  0.78036  0.60048  0.05361  1.0000
  I   I334      1.0  0.49920  0.56057  0.46469  1.0000
  I   I335      1.0  0.17381  0.25636  0.01212  1.0000
  I   I336      1.0  0.92835  0.20008  0.83869  1.0000
  I   I337      1.0  0.59801  0.90627  0.61995  1.0000
  I   I338      1.0  0.52662  0.08691  0.60937  1.0000
  I   I339      1.0  0.51294  0.19436  0.34925  1.0000
  I   I340      1.0  0.60077  0.43895  0.77297  1.0000
  I   I341      1.0  0.17943  0.82877  0.09748  1.0000
  I   I342      1.0  0.31739  0.11270  0.56781  1.0000
  I   I343      1.0  0.03366  0.88793  0.84024  1.0000
  I   I344      1.0  0.23778  0.53230  0.17716  1.0000
  I   I345      1.0  0.22828  0.97255  0.86559  1.0000
  I   I346      1.0  0.33168  0.13095  0.98919  1.0000
  I   I347      1.0  0.90311  0.75325  0.18030  1.0000
  I   I348      1.0  0.27018  0.66093  0.55462  1.0000
  I   I349      1.0  0.44384  0.85092  0.18373  1.0000
  I   I350      1.0  0.23820  0.43378  0.32410  1.0000
  I   I351      1.0  0.10203  0.96341  0.70131  1.0000
  I   I352      1.0  0.88274  0.60011  0.67560  1.0000
  I   I353      1.0  0.96346  0.58762  0.02810  1.0000
  I   I354      1.0  0.46991  0.30877  0.44476  1.0000
  I   I355      1.0  0.88097  0.88174  0.50205  1.0000
  I   I356      1.0  0.20721  0.09201  0.59918  1.0000
  I   I357      1.0  0.84590  0.19032  0.21626  1.0000
  I   I358      1.0  0.27960  0.79023  0.67080  1.0000
  I   I359      1.0  0.71819  0.93165  0.05687  1.0000
  I   I360      1.0  0.87449  0.95216  0.06217  1.0000
  I   I361      1.0  0.14195  0.68735  0.79852  1.0000
  I   I362      1.0  0.22543  0.39109  0.66450  1.0000
  I   I363      1.0  0.02047  0.19454  0.34137  1.0000
  I   I364      1.0  0.98287  0.37724  0.33609  1.0000
  I   I365      1.0  0.53345  0.51629  0.27623  1.0000
  I   I366      1.0  0.03547  0.95038  0.20802  1.0000
  I   I367      1.0  0.29829  0.93706  0.32855  1.0000
  I   I368      1.0  0.74291  0.36173  0.70013  1.0000
  I   I369      1.0  0.70398  0.04733  0.15674  1.0000
  I   I370      1.0  0.65824  0.72549  0.75507  1.0000
  I   I371      1.0  0.88692  0.46686  0.71538  1.0000
  I   I372      1.0  0.03050  0.49444  0.34856  1.0000
  I   I373      1.0  0.03829  0.32494  0.49771  1.0000
  I   I374      1.0  0.36369  0.39701  0.72170  1.0000
  I   I375      1.0  0.51079  0.34021  0.23932  1.0000
  I   I376      1.0  0.72359  0.75926  0.47047  1.0000
  I   I377      1.0  0.47230  0.68994  0.51388  1.0000
  I   I378      1.0  0.76178  0.01940  0.91187  1.0000
  I   I379      1.0  0.30807  0.75066  0.81751  1.0000
  I   I380      1.0  0.84968  0.20059  0.63321  1.0000
  I   I381      1.0  0.87005  0.63528  0.11599  1.0000
  I   I382      1.0  0.44475  0.48700  0.52252  1.0000
  I   I383      1.0  0.15647  0.19808  0.91056  1.0000
  I   I384      1.0  0.97010  0.21911  0.90158  1.0000
