data_image0
_chemical_formula_structural       Ti96I384
_chemical_formula_sum              "Ti96 I384"
_cell_length_a       51.8561
_cell_length_b       51.9213
_cell_length_c       25.0044
_cell_angle_alpha    88.7757
_cell_angle_beta     88.7757
_cell_angle_gamma    62.1586

_space_group_name_H-M_alt    "P 1"
_space_group_IT_number       1

loop_
  _space_group_symop_operation_xyz
  'x, y, z'

loop_
  _atom_site_type_symbol
  _atom_site_label
  _atom_site_symmetry_multiplicity
  _atom_site_fract_x
  _atom_site_fract_y
  _atom_site_fract_z
  _atom_site_occupancy
  Ti  Ti1       1.0  0.47211  0.83842  0.36574  1.0000
  Ti  Ti2       1.0  0.14936  0.94033  0.96592  1.0000
  Ti  Ti3       1.0  0.38394  0.92300  0.14032  1.0000
  Ti  Ti4       1.0  0.26353  0.03368  0.48684  1.0000
  Ti  Ti5       1.0  0.14301  0.37881  0.61095  1.0000
  Ti  Ti6       1.0  0.14950  0.20009  0.80755  1.0000
  Ti  Ti7       1.0  0.95733  0.72224  0.01640  1.0000
  Ti  Ti8       1.0  0.90511  0.04312  0.41180  1.0000
  Ti  Ti9       1.0  0.91446  0.75728  0.32440  1.0000
  Ti  Ti10      1.0  0.24750  0.80084  0.86212  1.0000
  Ti  Ti11      1.0  0.04203  0.72711  0.72153  1.0000
  Ti  Ti12      1.0  0.99083  0.88406  0.67682  1.0000
  Ti  Ti13      1.0  0.37696  0.13307  0.38774  1.0000
  Ti  Ti14      1.0  0.39795  0.06914  0.62548  1.0000
  Ti  Ti15      1.0  0.34063  0.09525  0.11831  1.0000
  Ti  Ti16      1.0  0.26964  0.54838  0.16357  1.0000
  Ti  Ti17      1.0  0.14541  0.68058  0.30706  1.0000
  Ti  Ti18      1.0  0.29137  0.45581  0.67097  1.0000
  Ti  Ti19      1.0  0.46381  0.59945  0.44943  1.0000
  Ti  Ti20      1.0  0.64149  0.72699  0.72923  1.0000
  Ti  Ti21      1.0  0.35386  0.55196  0.66083  1.0000
  Ti  Ti22      1.0  0.45049  0.82154  0.68962  1.0000
  Ti  Ti23      1.0  0.63310  0.85132  0.04273  1.0000
  Ti  Ti24      1.0  0.46413  0.75855  0.96552  1.0000
  Ti  Ti25      1.0  0.37710  0.32094  0.83676  1.0000
  Ti  Ti26      1.0  0.31245  0.35375  0.08813  1.0000
  Ti  Ti27      1.0  0.60321  0.44659  0.60794  1.0000
  Ti  Ti28      1.0  0.50540  0.39426  0.17256  1.0000
  Ti  Ti29      1.0  0.66814  0.51335  0.03423  1.0000
  Ti  Ti30      1.0  0.58404  0.62822  0.77607  1.0000
  Ti  Ti31      1.0  0.93038  0.53362  0.03002  1.0000
  Ti  Ti32      1.0  0.78594  0.42989  0.61430  1.0000
  Ti  Ti33      1.0  0.85645  0.50268  0.79076  1.0000
  Ti  Ti34      1.0  0.76594  0.99581  0.21769  1.0000
  Ti  Ti35      1.0  0.67506  0.63404  0.13157  1.0000
  Ti  Ti36      1.0  0.82160  0.60407  0.56512  1.0000
  Ti  Ti37      1.0  0.71454  0.22602  0.31388  1.0000
  Ti  Ti38      1.0  0.76455  0.30109  0.23736  1.0000
  Ti  Ti39      1.0  0.61421  0.30170  0.88393  1.0000
  Ti  Ti40      1.0  0.82391  0.31535  0.97266  1.0000
  Ti  Ti41      1.0  0.79096  0.27598  0.55585  1.0000
  Ti  Ti42      1.0  0.27952  0.81777  0.48176  1.0000
  Ti  Ti43      1.0  0.89439  0.40389  0.19133  1.0000
  Ti  Ti44      1.0  0.98838  0.59434  0.49449  1.0000
  Ti  Ti45      1.0  0.04584  0.55253  0.77194  1.0000
  Ti  Ti46      1.0  0.68712  0.89103  0.53809  1.0000
  Ti  Ti47      1.0  0.60585  0.03032  0.37531  1.0000
  Ti  Ti48      1.0  0.53231  0.20242  0.96886  1.0000
  Ti  Ti49      1.0  0.40807  0.87097  0.27791  1.0000
  Ti  Ti50      1.0  0.11099  0.90708  0.04251  1.0000
  Ti  Ti51      1.0  0.19699  0.97181  0.89059  1.0000
  Ti  Ti52      1.0  0.20420  0.03158  0.52993  1.0000
  Ti  Ti53      1.0  0.18594  0.30423  0.52672  1.0000
  Ti  Ti54      1.0  0.15752  0.22407  0.91479  1.0000
  Ti  Ti55      1.0  0.88799  0.77254  0.15763  1.0000
  Ti  Ti56      1.0  0.92060  0.03456  0.54504  1.0000
  Ti  Ti57      1.0  0.93672  0.82428  0.39591  1.0000
  Ti  Ti58      1.0  0.20285  0.78065  0.77504  1.0000
  Ti  Ti59      1.0  0.31844  0.76348  0.97058  1.0000
  Ti  Ti60      1.0  0.05861  0.80037  0.66645  1.0000
  Ti  Ti61      1.0  0.37891  0.05799  0.26341  1.0000
  Ti  Ti62      1.0  0.34763  0.21205  0.36100  1.0000
  Ti  Ti63      1.0  0.34579  0.14756  0.68328  1.0000
  Ti  Ti64      1.0  0.27240  0.50550  0.52274  1.0000
  Ti  Ti65      1.0  0.20266  0.60709  0.22395  1.0000
  Ti  Ti66      1.0  0.10392  0.64513  0.40024  1.0000
  Ti  Ti67      1.0  0.43761  0.59016  0.56406  1.0000
  Ti  Ti68      1.0  0.71816  0.67188  0.81334  1.0000
  Ti  Ti69      1.0  0.27543  0.62134  0.62883  1.0000
  Ti  Ti70      1.0  0.45790  0.80127  0.83029  1.0000
  Ti  Ti71      1.0  0.56977  0.89678  0.19159  1.0000
  Ti  Ti72      1.0  0.70296  0.81818  0.95078  1.0000
  Ti  Ti73      1.0  0.53470  0.45138  0.67705  1.0000
  Ti  Ti74      1.0  0.28646  0.36237  0.91189  1.0000
  Ti  Ti75      1.0  0.27419  0.38109  0.22457  1.0000
  Ti  Ti76      1.0  0.59006  0.61136  0.60216  1.0000
  Ti  Ti77      1.0  0.52945  0.45040  0.16926  1.0000
  Ti  Ti78      1.0  0.64503  0.55470  0.89173  1.0000
  Ti  Ti79      1.0  0.92955  0.44598  0.93529  1.0000
  Ti  Ti80      1.0  0.98155  0.54813  0.11702  1.0000
  Ti  Ti81      1.0  0.84362  0.44378  0.69291  1.0000
  Ti  Ti82      1.0  0.77115  0.99350  0.09838  1.0000
  Ti  Ti83      1.0  0.74195  0.63594  0.19542  1.0000
  Ti  Ti84      1.0  0.74467  0.62271  0.54869  1.0000
  Ti  Ti85      1.0  0.64777  0.21055  0.27937  1.0000
  Ti  Ti86      1.0  0.79256  0.21487  0.20579  1.0000
  Ti  Ti87      1.0  0.63257  0.36305  0.91693  1.0000
  Ti  Ti88      1.0  0.90448  0.26059  0.96487  1.0000
  Ti  Ti89      1.0  0.77643  0.28373  0.73339  1.0000
  Ti  Ti90      1.0  0.26278  0.83640  0.37625  1.0000
  Ti  Ti91      1.0  0.12125  0.54887  0.80761  1.0000
  Ti  Ti92      1.0  0.88808  0.35394  0.31265  1.0000
  Ti  Ti93      1.0  0.97451  0.58199  0.65426  1.0000
  Ti  Ti94      1.0  0.49566  0.15263  0.95135  1.0000
  Ti  Ti95      1.0  0.63804  0.96185  0.47404  1.0000
  Ti  Ti96      1.0  0.53376  0.08793  0.30371  1.0000
  I   I1        1.0  0.07981  0.88727  0.98980  1.0000
  I   I2        1.0  0.20926  0.92102  0.95383  1.0000
  I   I3        1.0  0.35574  0.89275  0.32504  1.0000
  I   I4        1.0  0.23441  0.26091  0.55428  1.0000
  I   I5        1.0  0.19160  0.18641  0.98716  1.0000
  I   I6        1.0  0.16195  0.14193  0.78960  1.0000
  I   I7        1.0  0.86344  0.07076  0.50460  1.0000
  I   I8        1.0  0.87950  0.02613  0.34439  1.0000
  I   I9        1.0  0.93365  0.77200  0.21318  1.0000
  I   I10       1.0  0.26174  0.78913  0.97555  1.0000
  I   I11       1.0  0.11287  0.77353  0.69934  1.0000
  I   I12       1.0  0.22003  0.74099  0.69464  1.0000
  I   I13       1.0  0.37741  0.16296  0.29626  1.0000
  I   I14       1.0  0.40502  0.11842  0.64817  1.0000
  I   I15       1.0  0.34782  0.04203  0.19055  1.0000
  I   I16       1.0  0.23446  0.55150  0.27302  1.0000
  I   I17       1.0  0.10677  0.65659  0.29240  1.0000
  I   I18       1.0  0.24556  0.48441  0.59813  1.0000
  I   I19       1.0  0.73107  0.62318  0.86140  1.0000
  I   I20       1.0  0.28556  0.66527  0.59468  1.0000
  I   I21       1.0  0.37488  0.52246  0.74941  1.0000
  I   I22       1.0  0.52471  0.92202  0.13769  1.0000
  I   I23       1.0  0.57922  0.86699  0.99946  1.0000
  I   I24       1.0  0.47183  0.74359  0.84701  1.0000
  I   I25       1.0  0.26800  0.33998  0.83987  1.0000
  I   I26       1.0  0.25643  0.38202  0.12045  1.0000
  I   I27       1.0  0.55611  0.49223  0.67807  1.0000
  I   I28       1.0  0.50374  0.45087  0.26715  1.0000
  I   I29       1.0  0.63143  0.51204  0.95683  1.0000
  I   I30       1.0  0.58793  0.58334  0.70431  1.0000
  I   I31       1.0  0.99530  0.50599  0.03243  1.0000
  I   I32       1.0  0.84031  0.43575  0.57669  1.0000
  I   I33       1.0  0.92134  0.45693  0.81531  1.0000
  I   I34       1.0  0.64164  0.68972  0.12819  1.0000
  I   I35       1.0  0.78856  0.58102  0.48213  1.0000
  I   I36       1.0  0.80596  0.97392  0.01331  1.0000
  I   I37       1.0  0.73373  0.26081  0.23205  1.0000
  I   I38       1.0  0.65736  0.37136  0.99847  1.0000
  I   I39       1.0  0.60784  0.24360  0.21046  1.0000
  I   I40       1.0  0.72765  0.27955  0.72375  1.0000
  I   I41       1.0  0.23314  0.80474  0.36275  1.0000
  I   I42       1.0  0.85330  0.25738  0.01247  1.0000
  I   I43       1.0  0.91042  0.30128  0.32678  1.0000
  I   I44       1.0  0.96217  0.56437  0.56280  1.0000
  I   I45       1.0  0.02366  0.51881  0.82674  1.0000
  I   I46       1.0  0.63560  0.95098  0.57740  1.0000
  I   I47       1.0  0.55111  0.03159  0.36767  1.0000
  I   I48       1.0  0.44261  0.17408  0.91267  1.0000
  I   I49       1.0  0.46785  0.84328  0.24849  1.0000
  I   I50       1.0  0.15285  0.92446  0.07502  1.0000
  I   I51       1.0  0.17653  0.01166  0.81596  1.0000
  I   I52       1.0  0.27240  0.04944  0.58673  1.0000
  I   I53       1.0  0.09680  0.37007  0.62271  1.0000
  I   I54       1.0  0.12944  0.26506  0.82663  1.0000
  I   I55       1.0  0.84741  0.76605  0.11295  1.0000
  I   I56       1.0  0.96410  0.99266  0.59263  1.0000
  I   I57       1.0  0.88741  0.82673  0.35598  1.0000
  I   I58       1.0  0.25667  0.84550  0.87312  1.0000
  I   I59       1.0  0.33663  0.75053  0.06950  1.0000
  I   I60       1.0  0.99283  0.82973  0.65459  1.0000
  I   I61       1.0  0.41088  0.08333  0.32979  1.0000
  I   I62       1.0  0.37976  0.23665  0.31797  1.0000
  I   I63       1.0  0.33892  0.11777  0.60025  1.0000
  I   I64       1.0  0.30237  0.53596  0.07549  1.0000
  I   I65       1.0  0.17535  0.66415  0.19894  1.0000
  I   I66       1.0  0.11095  0.59049  0.37997  1.0000
  I   I67       1.0  0.40736  0.64376  0.60244  1.0000
  I   I68       1.0  0.61396  0.74470  0.82077  1.0000
  I   I69       1.0  0.32577  0.60490  0.70465  1.0000
  I   I70       1.0  0.42345  0.85807  0.78896  1.0000
  I   I71       1.0  0.60967  0.83261  0.14004  1.0000
  I   I72       1.0  0.74222  0.83405  0.94683  1.0000
  I   I73       1.0  0.55333  0.46228  0.54659  1.0000
  I   I74       1.0  0.30227  0.39544  0.99723  1.0000
  I   I75       1.0  0.31325  0.36054  0.30142  1.0000
  I   I76       1.0  0.46238  0.39839  0.23096  1.0000
  I   I77       1.0  0.56267  0.39493  0.15059  1.0000
  I   I78       1.0  0.64473  0.59899  0.82051  1.0000
  I   I79       1.0  0.92133  0.47740  0.03049  1.0000
  I   I80       1.0  0.94664  0.60021  0.16731  1.0000
  I   I81       1.0  0.83136  0.46412  0.79234  1.0000
  I   I82       1.0  0.72178  0.04481  0.23720  1.0000
  I   I83       1.0  0.64796  0.60333  0.16268  1.0000
  I   I84       1.0  0.71667  0.65361  0.46602  1.0000
  I   I85       1.0  0.70008  0.20877  0.21399  1.0000
  I   I86       1.0  0.84292  0.17207  0.22726  1.0000
  I   I87       1.0  0.66737  0.28454  0.91032  1.0000
  I   I88       1.0  0.79445  0.37067  0.97068  1.0000
  I   I89       1.0  0.79390  0.31736  0.49935  1.0000
  I   I90       1.0  0.28354  0.86554  0.44569  1.0000
  I   I91       1.0  0.15237  0.54323  0.72106  1.0000
  I   I92       1.0  0.84927  0.37616  0.23564  1.0000
  I   I93       1.0  0.99141  0.59625  0.74887  1.0000
  I   I94       1.0  0.46959  0.15814  0.05065  1.0000
  I   I95       1.0  0.63511  0.96867  0.35120  1.0000
  I   I96       1.0  0.53127  0.13288  0.24842  1.0000
  I   I97       1.0  0.39442  0.86821  0.18091  1.0000
  I   I98       1.0  0.52057  0.84687  0.36955  1.0000
  I   I99       1.0  0.14842  0.99550  0.96875  1.0000
  I   I100      1.0  0.17139  0.01113  0.49719  1.0000
  I   I101      1.0  0.31307  0.01460  0.43548  1.0000
  I   I102      1.0  0.13921  0.40931  0.70255  1.0000
  I   I103      1.0  0.88294  0.74620  0.25253  1.0000
  I   I104      1.0  0.99933  0.73207  0.98935  1.0000
  I   I105      1.0  0.97474  0.79183  0.47182  1.0000
  I   I106      1.0  0.93990  0.91173  0.63484  1.0000
  I   I107      1.0  0.31269  0.76206  0.85700  1.0000
  I   I108      1.0  0.05792  0.75192  0.61641  1.0000
  I   I109      1.0  0.40062  0.01159  0.32118  1.0000
  I   I110      1.0  0.39301  0.17732  0.43174  1.0000
  I   I111      1.0  0.39965  0.06312  0.72477  1.0000
  I   I112      1.0  0.22270  0.55611  0.51011  1.0000
  I   I113      1.0  0.26182  0.59988  0.21819  1.0000
  I   I114      1.0  0.10308  0.72199  0.24064  1.0000
  I   I115      1.0  0.41323  0.56951  0.63871  1.0000
  I   I116      1.0  0.46495  0.58165  0.35102  1.0000
  I   I117      1.0  0.63467  0.77525  0.68868  1.0000
  I   I118      1.0  0.41686  0.80567  0.91659  1.0000
  I   I119      1.0  0.47404  0.85617  0.66867  1.0000
  I   I120      1.0  0.65477  0.80309  0.98913  1.0000
  I   I121      1.0  0.62196  0.48376  0.58480  1.0000
  I   I122      1.0  0.34900  0.29335  0.89585  1.0000
  I   I123      1.0  0.31441  0.39488  0.15065  1.0000
  I   I124      1.0  0.59560  0.65204  0.68135  1.0000
  I   I125      1.0  0.49760  0.36836  0.09495  1.0000
  I   I126      1.0  0.62812  0.57762  0.99863  1.0000
  I   I127      1.0  0.86624  0.48821  0.91108  1.0000
  I   I128      1.0  0.92387  0.54401  0.13283  1.0000
  I   I129      1.0  0.77837  0.47876  0.67488  1.0000
  I   I130      1.0  0.78109  0.58323  0.63067  1.0000
  I   I131      1.0  0.73822  0.96754  0.14916  1.0000
  I   I132      1.0  0.73867  0.67833  0.25573  1.0000
  I   I133      1.0  0.59087  0.41676  0.90094  1.0000
  I   I134      1.0  0.77231  0.19848  0.30398  1.0000
  I   I135      1.0  0.72124  0.33725  0.17977  1.0000
  I   I136      1.0  0.33042  0.78650  0.52895  1.0000
  I   I137      1.0  0.92825  0.20756  0.95076  1.0000
  I   I138      1.0  0.77796  0.31595  0.64466  1.0000
  I   I139      1.0  0.05463  0.57287  0.85940  1.0000
  I   I140      1.0  0.85064  0.37154  0.39978  1.0000
  I   I141      1.0  0.99235  0.61982  0.58956  1.0000
  I   I142      1.0  0.51798  0.17746  0.87825  1.0000
  I   I143      1.0  0.70068  0.92605  0.46056  1.0000
  I   I144      1.0  0.59902  0.04221  0.27049  1.0000
  I   I145      1.0  0.42152  0.81459  0.31188  1.0000
  I   I146      1.0  0.15442  0.88520  0.96545  1.0000
  I   I147      1.0  0.32937  0.93448  0.10689  1.0000
  I   I148      1.0  0.17515  0.08290  0.49316  1.0000
  I   I149      1.0  0.13976  0.29573  0.52249  1.0000
  I   I150      1.0  0.13524  0.18228  0.90211  1.0000
  I   I151      1.0  0.93088  0.71801  0.11135  1.0000
  I   I152      1.0  0.95750  0.01564  0.36082  1.0000
  I   I153      1.0  0.96347  0.76568  0.34382  1.0000
  I   I154      1.0  0.19071  0.82813  0.86954  1.0000
  I   I155      1.0  0.06499  0.67659  0.66596  1.0000
  I   I156      1.0  0.06184  0.83366  0.58963  1.0000
  I   I157      1.0  0.34260  0.09378  0.33527  1.0000
  I   I158      1.0  0.38707  0.02784  0.60096  1.0000
  I   I159      1.0  0.32116  0.14625  0.07290  1.0000
  I   I160      1.0  0.29036  0.48333  0.75972  1.0000
  I   I161      1.0  0.19401  0.62843  0.32167  1.0000
  I   I162      1.0  0.34311  0.41035  0.69394  1.0000
  I   I163      1.0  0.40535  0.60663  0.47077  1.0000
  I   I164      1.0  0.70403  0.70779  0.88943  1.0000
  I   I165      1.0  0.29485  0.56619  0.66667  1.0000
  I   I166      1.0  0.42984  0.79253  0.75308  1.0000
  I   I167      1.0  0.60438  0.90688  0.10441  1.0000
  I   I168      1.0  0.44848  0.79077  0.04751  1.0000
  I   I169      1.0  0.37358  0.28823  0.75358  1.0000
  I   I170      1.0  0.28728  0.33229  0.00150  1.0000
  I   I171      1.0  0.61538  0.41783  0.69950  1.0000
  I   I172      1.0  0.55646  0.66001  0.55751  1.0000
  I   I173      1.0  0.62786  0.51281  0.10017  1.0000
  I   I174      1.0  0.58114  0.60404  0.87825  1.0000
  I   I175      1.0  0.93140  0.50514  0.92543  1.0000
  I   I176      1.0  0.82057  0.37854  0.56747  1.0000
  I   I177      1.0  0.86970  0.48367  0.69466  1.0000
  I   I178      1.0  0.81142  0.94364  0.15990  1.0000
  I   I179      1.0  0.69162  0.63682  0.24945  1.0000
  I   I180      1.0  0.82954  0.63859  0.49470  1.0000
  I   I181      1.0  0.65206  0.25667  0.32075  1.0000
  I   I182      1.0  0.80468  0.25491  0.29922  1.0000
  I   I183      1.0  0.59741  0.26856  0.93680  1.0000
  I   I184      1.0  0.84727  0.30627  0.87859  1.0000
  I   I185      1.0  0.82688  0.23141  0.50039  1.0000
  I   I186      1.0  0.21784  0.86125  0.45214  1.0000
  I   I187      1.0  0.88759  0.37380  0.12022  1.0000
  I   I188      1.0  0.98335  0.55923  0.42472  1.0000
  I   I189      1.0  0.03585  0.52889  0.67100  1.0000
  I   I190      1.0  0.67125  0.86017  0.59717  1.0000
  I   I191      1.0  0.61190  0.02095  0.49751  1.0000
  I   I192      1.0  0.57067  0.20502  0.04064  1.0000
  I   I193      1.0  0.50874  0.78339  0.35785  1.0000
  I   I194      1.0  0.08980  0.96108  0.98500  1.0000
  I   I195      1.0  0.39022  0.96830  0.11575  1.0000
  I   I196      1.0  0.25098  0.08580  0.44645  1.0000
  I   I197      1.0  0.12057  0.42272  0.54426  1.0000
  I   I198      1.0  0.18979  0.20441  0.74326  1.0000
  I   I199      1.0  0.91972  0.73863  0.94188  1.0000
  I   I200      1.0  0.90611  0.06449  0.63677  1.0000
  I   I201      1.0  0.88468  0.74982  0.40716  1.0000
  I   I202      1.0  0.24192  0.80206  0.75110  1.0000
  I   I203      1.0  0.04513  0.68732  0.79651  1.0000
  I   I204      1.0  0.01487  0.91579  0.64048  1.0000
  I   I205      1.0  0.40765  0.10465  0.47526  1.0000
  I   I206      1.0  0.45299  0.03959  0.60057  1.0000
  I   I207      1.0  0.35051  0.07026  0.02316  1.0000
  I   I208      1.0  0.31589  0.51492  0.23396  1.0000
  I   I209      1.0  0.17644  0.70571  0.32813  1.0000
  I   I210      1.0  0.25697  0.43755  0.70925  1.0000
  I   I211      1.0  0.51679  0.58478  0.43711  1.0000
  I   I212      1.0  0.77044  0.66644  0.80187  1.0000
  I   I213      1.0  0.32740  0.58635  0.55712  1.0000
  I   I214      1.0  0.40356  0.84963  0.63310  1.0000
  I   I215      1.0  0.68549  0.82696  0.09090  1.0000
  I   I216      1.0  0.43901  0.72285  0.97607  1.0000
  I   I217      1.0  0.40464  0.33571  0.76227  1.0000
  I   I218      1.0  0.36689  0.32657  0.05890  1.0000
  I   I219      1.0  0.55767  0.39672  0.63949  1.0000
  I   I220      1.0  0.54478  0.34489  0.21811  1.0000
  I   I221      1.0  0.69711  0.45588  0.04750  1.0000
  I   I222      1.0  0.56859  0.67353  0.83048  1.0000
  I   I223      1.0  0.87626  0.55817  0.01496  1.0000
  I   I224      1.0  0.74789  0.41488  0.65929  1.0000
  I   I225      1.0  0.80311  0.54577  0.78245  1.0000
  I   I226      1.0  0.80863  0.99930  0.26474  1.0000
  I   I227      1.0  0.66927  0.62175  0.02894  1.0000
  I   I228      1.0  0.82528  0.62836  0.65860  1.0000
  I   I229      1.0  0.71276  0.18007  0.36401  1.0000
  I   I230      1.0  0.79966  0.32266  0.23398  1.0000
  I   I231      1.0  0.59270  0.34806  0.96502  1.0000
  I   I232      1.0  0.77033  0.31253  0.97676  1.0000
  I   I233      1.0  0.76378  0.33269  0.79757  1.0000
  I   I234      1.0  0.25958  0.77778  0.49385  1.0000
  I   I235      1.0  0.84870  0.45203  0.17258  1.0000
  I   I236      1.0  0.96719  0.64504  0.44618  1.0000
  I   I237      1.0  0.07513  0.58262  0.72919  1.0000
  I   I238      1.0  0.72642  0.84398  0.49323  1.0000
  I   I239      1.0  0.65731  0.02620  0.39139  1.0000
  I   I240      1.0  0.54100  0.23936  0.90459  1.0000
  I   I241      1.0  0.46600  0.83011  0.46510  1.0000
  I   I242      1.0  0.13278  0.95855  0.86620  1.0000
  I   I243      1.0  0.41374  0.89649  0.05276  1.0000
  I   I244      1.0  0.23278  0.02297  0.41662  1.0000
  I   I245      1.0  0.18793  0.35595  0.52419  1.0000
  I   I246      1.0  0.10743  0.21917  0.73212  1.0000
  I   I247      1.0  0.97577  0.66511  0.99890  1.0000
  I   I248      1.0  0.90930  0.99747  0.48326  1.0000
  I   I249      1.0  0.95652  0.69989  0.30548  1.0000
  I   I250      1.0  0.24902  0.74544  0.85029  1.0000
  I   I251      1.0  0.98834  0.75165  0.70194  1.0000
  I   I252      1.0  0.97949  0.90166  0.77150  1.0000
  I   I253      1.0  0.32563  0.16279  0.42179  1.0000
  I   I254      1.0  0.35119  0.19474  0.70738  1.0000
  I   I255      1.0  0.28888  0.11210  0.15914  1.0000
  I   I256      1.0  0.24456  0.51725  0.13770  1.0000
  I   I257      1.0  0.10665  0.70476  0.38423  1.0000
  I   I258      1.0  0.30053  0.52559  0.45578  1.0000
  I   I259      1.0  0.44151  0.65763  0.43159  1.0000
  I   I260      1.0  0.69605  0.72409  0.73979  1.0000
  I   I261      1.0  0.37686  0.50965  0.59483  1.0000
  I   I262      1.0  0.48899  0.78125  0.62505  1.0000
  I   I263      1.0  0.65257  0.87585  0.97514  1.0000
  I   I264      1.0  0.51481  0.72650  0.00262  1.0000
  I   I265      1.0  0.42074  0.30827  0.89492  1.0000
  I   I266      1.0  0.32113  0.32116  0.17862  1.0000
  I   I267      1.0  0.63757  0.39705  0.55606  1.0000
  I   I268      1.0  0.47446  0.45113  0.12524  1.0000
  I   I269      1.0  0.70450  0.52299  0.09370  1.0000
  I   I270      1.0  0.52587  0.64986  0.76354  1.0000
  I   I271      1.0  0.94013  0.57951  0.00433  1.0000
  I   I272      1.0  0.74587  0.46544  0.54651  1.0000
  I   I273      1.0  0.88288  0.53299  0.79230  1.0000
  I   I274      1.0  0.75374  0.96933  0.29331  1.0000
  I   I275      1.0  0.73280  0.59305  0.13622  1.0000
  I   I276      1.0  0.87321  0.56149  0.55917  1.0000
  I   I277      1.0  0.72404  0.25374  0.38802  1.0000
  I   I278      1.0  0.72872  0.33085  0.31791  1.0000
  I   I279      1.0  0.61919  0.27422  0.79442  1.0000
  I   I280      1.0  0.93879  0.27070  0.89958  1.0000
  I   I281      1.0  0.81949  0.24660  0.65437  1.0000
  I   I282      1.0  0.25972  0.83408  0.58047  1.0000
  I   I283      1.0  0.94257  0.40068  0.15048  1.0000
  I   I284      1.0  0.04665  0.56704  0.49337  1.0000
  I   I285      1.0  0.11037  0.50389  0.77425  1.0000
  I   I286      1.0  0.72725  0.89548  0.59592  1.0000
  I   I287      1.0  0.57651  0.08880  0.39014  1.0000
  I   I288      1.0  0.48295  0.23159  0.02364  1.0000
  I   I289      1.0  0.42478  0.89455  0.37183  1.0000
  I   I290      1.0  0.13740  0.85332  0.08639  1.0000
  I   I291      1.0  0.23303  0.94049  0.81079  1.0000
  I   I292      1.0  0.26392  0.99104  0.55808  1.0000
  I   I293      1.0  0.19259  0.29595  0.41969  1.0000
  I   I294      1.0  0.20455  0.22618  0.88230  1.0000
  I   I295      1.0  0.91613  0.78702  0.05866  1.0000
  I   I296      1.0  0.94165  0.06533  0.50002  1.0000
  I   I297      1.0  0.97106  0.83539  0.33470  1.0000
  I   I298      1.0  0.17934  0.74882  0.82489  1.0000
  I   I299      1.0  0.34270  0.79458  0.95383  1.0000
  I   I300      1.0  0.04193  0.84493  0.74274  1.0000
  I   I301      1.0  0.37282  0.10494  0.18869  1.0000
  I   I302      1.0  0.31955  0.25773  0.42331  1.0000
  I   I303      1.0  0.29148  0.18159  0.64808  1.0000
  I   I304      1.0  0.27249  0.46372  0.46233  1.0000
  I   I305      1.0  0.15397  0.60749  0.18327  1.0000
  I   I306      1.0  0.05006  0.67031  0.43320  1.0000
  I   I307      1.0  0.46607  0.53884  0.49645  1.0000
  I   I308      1.0  0.59479  0.73093  0.68848  1.0000
  I   I309      1.0  0.25148  0.61994  0.53878  1.0000
  I   I310      1.0  0.50272  0.79802  0.76365  1.0000
  I   I311      1.0  0.56078  0.85902  0.25004  1.0000
  I   I312      1.0  0.69226  0.81191  0.85189  1.0000
  I   I313      1.0  0.48480  0.47650  0.63152  1.0000
  I   I314      1.0  0.24060  0.41230  0.90374  1.0000
  I   I315      1.0  0.24182  0.35716  0.25134  1.0000
  I   I316      1.0  0.57741  0.57739  0.54989  1.0000
  I   I317      1.0  0.56774  0.46221  0.21706  1.0000
  I   I318      1.0  0.64333  0.53022  0.80389  1.0000
  I   I319      1.0  0.98491  0.41148  0.94144  1.0000
  I   I320      1.0  0.01993  0.56014  0.07786  1.0000
  I   I321      1.0  0.89150  0.39847  0.71446  1.0000
  I   I322      1.0  0.72438  0.03744  0.06268  1.0000
  I   I323      1.0  0.76190  0.64962  0.10732  1.0000
  I   I324      1.0  0.76373  0.66143  0.58131  1.0000
  I   I325      1.0  0.66637  0.15759  0.23165  1.0000
  I   I326      1.0  0.79668  0.25627  0.15331  1.0000
  I   I327      1.0  0.60008  0.35066  0.82369  1.0000
  I   I328      1.0  0.93727  0.25265  0.05648  1.0000
  I   I329      1.0  0.74130  0.27423  0.55396  1.0000
  I   I330      1.0  0.25668  0.85632  0.28056  1.0000
  I   I331      1.0  0.16370  0.51325  0.87011  1.0000
  I   I332      1.0  0.89237  0.40719  0.31848  1.0000
  I   I333      1.0  0.95908  0.54633  0.70735  1.0000
  I   I334      1.0  0.54848  0.14507  0.99702  1.0000
  I   I335      1.0  0.58246  0.97077  0.45485  1.0000
  I   I336      1.0  0.48791  0.11006  0.36556  1.0000
  I   I337      1.0  0.41304  0.92056  0.23567  1.0000
  I   I338      1.0  0.06508  0.93718  0.10588  1.0000
  I   I339      1.0  0.23667  0.97680  0.94242  1.0000
  I   I340      1.0  0.19042  0.03888  0.63848  1.0000
  I   I341      1.0  0.17780  0.31654  0.63354  1.0000
  I   I342      1.0  0.12488  0.27154  0.97158  1.0000
  I   I343      1.0  0.85927  0.82720  0.17779  1.0000
  I   I344      1.0  0.89454  0.09195  0.36699  1.0000
  I   I345      1.0  0.91412  0.86875  0.46071  1.0000
  I   I346      1.0  0.15198  0.81520  0.74903  1.0000
  I   I347      1.0  0.35567  0.70559  0.96015  1.0000
  I   I348      1.0  0.05911  0.76259  0.75662  1.0000
  I   I349      1.0  0.43017  0.02492  0.19491  1.0000
  I   I350      1.0  0.30666  0.23066  0.29373  1.0000
  I   I351      1.0  0.33334  0.12802  0.77627  1.0000
  I   I352      1.0  0.31669  0.48461  0.59888  1.0000
  I   I353      1.0  0.22511  0.59038  0.10947  1.0000
  I   I354      1.0  0.13273  0.62565  0.48467  1.0000
  I   I355      1.0  0.48696  0.59683  0.55853  1.0000
  I   I356      1.0  0.66936  0.66699  0.76410  1.0000
  I   I357      1.0  0.23143  0.64585  0.68775  1.0000
  I   I358      1.0  0.48451  0.80542  0.92311  1.0000
  I   I359      1.0  0.56055  0.93659  0.25473  1.0000
  I   I360      1.0  0.73303  0.76296  0.98114  1.0000
  I   I361      1.0  0.51956  0.44792  0.76932  1.0000
  I   I362      1.0  0.31903  0.37461  0.84221  1.0000
  I   I363      1.0  0.23437  0.43396  0.25473  1.0000
  I   I364      1.0  0.64281  0.59943  0.56093  1.0000
  I   I365      1.0  0.51780  0.48873  0.08322  1.0000
  I   I366      1.0  0.70292  0.52093  0.90792  1.0000
  I   I367      1.0  0.91473  0.40687  0.97372  1.0000
  I   I368      1.0  0.00515  0.50970  0.19241  1.0000
  I   I369      1.0  0.81314  0.40635  0.71332  1.0000
  I   I370      1.0  0.79861  0.02422  0.12207  1.0000
  I   I371      1.0  0.78110  0.59495  0.24826  1.0000
  I   I372      1.0  0.70064  0.62800  0.61550  1.0000
  I   I373      1.0  0.62020  0.20478  0.36673  1.0000
  I   I374      1.0  0.77664  0.19465  0.12486  1.0000
  I   I375      1.0  0.67300  0.35579  0.84709  1.0000
  I   I376      1.0  0.87279  0.31747  0.00534  1.0000
  I   I377      1.0  0.80383  0.24817  0.81229  1.0000
  I   I378      1.0  0.31391  0.78616  0.36847  1.0000
  I   I379      1.0  0.11880  0.59832  0.83272  1.0000
  I   I380      1.0  0.93514  0.34840  0.24385  1.0000
  I   I381      1.0  0.92394  0.62559  0.67551  1.0000
  I   I382      1.0  0.51936  0.10317  0.91125  1.0000
  I   I383      1.0  0.64459  0.90268  0.46253  1.0000
  I   I384      1.0  0.51239  0.07275  0.22707  1.0000
