data_image0
_chemical_formula_structural       Ti96I384
_chemical_formula_sum              "Ti96 I384"
_cell_length_a       64.1142
_cell_length_b       63.8346
_cell_length_c       31.2207
_cell_angle_alpha    88.7757
_cell_angle_beta     88.7757
_cell_angle_gamma    62.1586

_space_group_name_H-M_alt    "P 1"
_space_group_IT_number       1

loop_
  _space_group_symop_operation_xyz
  'x, y, z'

loop_
  _atom_site_type_symbol
  _atom_site_label
  _atom_site_symmetry_multiplicity
  _atom_site_fract_x
  _atom_site_fract_y
  _atom_site_fract_z
  _atom_site_occupancy
  Ti  Ti1       1.0  0.48911  0.92862  0.68569  1.0000
  Ti  Ti2       1.0  0.41811  0.15450  0.50986  1.0000
  Ti  Ti3       1.0  0.84261  0.78912  0.04923  1.0000
  Ti  Ti4       1.0  0.88314  0.21850  0.06994  1.0000
  Ti  Ti5       1.0  0.29625  0.78888  0.76609  1.0000
  Ti  Ti6       1.0  0.29908  0.21462  0.27647  1.0000
  Ti  Ti7       1.0  0.90253  0.89073  0.94168  1.0000
  Ti  Ti8       1.0  0.47317  0.40099  0.81172  1.0000
  Ti  Ti9       1.0  0.36941  0.85126  0.04133  1.0000
  Ti  Ti10      1.0  0.84730  0.63190  0.67057  1.0000
  Ti  Ti11      1.0  0.39963  0.33898  0.58466  1.0000
  Ti  Ti12      1.0  0.07279  0.63499  0.48878  1.0000
  Ti  Ti13      1.0  0.23789  0.39001  0.48144  1.0000
  Ti  Ti14      1.0  0.08500  0.99812  0.59896  1.0000
  Ti  Ti15      1.0  0.54321  0.05337  0.14075  1.0000
  Ti  Ti16      1.0  0.65696  0.93491  0.80540  1.0000
  Ti  Ti17      1.0  0.38629  0.20123  0.94387  1.0000
  Ti  Ti18      1.0  0.02120  0.71626  0.88532  1.0000
  Ti  Ti19      1.0  0.85438  0.83088  0.46932  1.0000
  Ti  Ti20      1.0  0.32777  0.07446  0.03268  1.0000
  Ti  Ti21      1.0  0.90818  0.15432  0.52906  1.0000
  Ti  Ti22      1.0  0.64555  0.42490  0.82754  1.0000
  Ti  Ti23      1.0  0.77420  0.88238  0.00231  1.0000
  Ti  Ti24      1.0  0.04376  0.70407  0.04651  1.0000
  Ti  Ti25      1.0  0.91173  0.52736  0.43009  1.0000
  Ti  Ti26      1.0  0.18328  0.08451  0.07821  1.0000
  Ti  Ti27      1.0  0.22768  0.51982  0.18966  1.0000
  Ti  Ti28      1.0  0.57892  0.39692  0.23520  1.0000
  Ti  Ti29      1.0  0.96564  0.88747  0.35678  1.0000
  Ti  Ti30      1.0  0.81891  0.38298  0.23464  1.0000
  Ti  Ti31      1.0  0.90831  0.29085  0.46252  1.0000
  Ti  Ti32      1.0  0.61163  0.17254  0.25547  1.0000
  Ti  Ti33      1.0  0.36646  0.90327  0.27228  1.0000
  Ti  Ti34      1.0  0.46400  0.72167  0.84071  1.0000
  Ti  Ti35      1.0  0.83642  0.53194  0.82623  1.0000
  Ti  Ti36      1.0  0.96663  0.54171  0.01322  1.0000
  Ti  Ti37      1.0  0.02042  0.26384  0.37545  1.0000
  Ti  Ti38      1.0  0.37832  0.51092  0.31881  1.0000
  Ti  Ti39      1.0  0.76629  0.20320  0.39626  1.0000
  Ti  Ti40      1.0  0.53061  0.84661  0.22542  1.0000
  Ti  Ti41      1.0  0.59015  0.69872  0.47479  1.0000
  Ti  Ti42      1.0  0.62943  0.27458  0.74367  1.0000
  Ti  Ti43      1.0  0.56582  0.13026  0.77792  1.0000
  Ti  Ti44      1.0  0.78900  0.53301  0.10560  1.0000
  Ti  Ti45      1.0  0.42136  0.58889  0.22232  1.0000
  Ti  Ti46      1.0  0.12806  0.37649  0.87068  1.0000
  Ti  Ti47      1.0  0.09032  0.29034  0.06958  1.0000
  Ti  Ti48      1.0  0.38724  0.70103  0.61291  1.0000
  Ti  Ti49      1.0  0.43157  0.96538  0.75460  1.0000
  Ti  Ti50      1.0  0.23848  0.19910  0.80627  1.0000
  Ti  Ti51      1.0  0.43433  0.07805  0.54998  1.0000
  Ti  Ti52      1.0  0.84574  0.17846  0.06615  1.0000
  Ti  Ti53      1.0  0.25565  0.67656  0.41470  1.0000
  Ti  Ti54      1.0  0.33265  0.16286  0.34724  1.0000
  Ti  Ti55      1.0  0.94850  0.90089  0.01664  1.0000
  Ti  Ti56      1.0  0.50300  0.35202  0.77593  1.0000
  Ti  Ti57      1.0  0.36649  0.84174  0.93004  1.0000
  Ti  Ti58      1.0  0.56359  0.08786  0.76188  1.0000
  Ti  Ti59      1.0  0.83617  0.68010  0.62591  1.0000
  Ti  Ti60      1.0  0.04231  0.70157  0.42989  1.0000
  Ti  Ti61      1.0  0.54383  0.11496  0.09474  1.0000
  Ti  Ti62      1.0  0.17851  0.43187  0.43234  1.0000
  Ti  Ti63      1.0  0.09197  0.97026  0.71627  1.0000
  Ti  Ti64      1.0  0.99917  0.74996  0.76230  1.0000
  Ti  Ti65      1.0  0.16468  0.51213  0.69032  1.0000
  Ti  Ti66      1.0  0.39456  0.39112  0.31260  1.0000
  Ti  Ti67      1.0  0.92072  0.78026  0.43411  1.0000
  Ti  Ti68      1.0  0.02759  0.23730  0.70437  1.0000
  Ti  Ti69      1.0  0.96775  0.13924  0.57109  1.0000
  Ti  Ti70      1.0  0.60090  0.42235  0.84419  1.0000
  Ti  Ti71      1.0  0.73582  0.86639  0.98271  1.0000
  Ti  Ti72      1.0  0.04333  0.01774  0.16960  1.0000
  Ti  Ti73      1.0  0.22719  0.58019  0.17580  1.0000
  Ti  Ti74      1.0  0.98249  0.46371  0.44964  1.0000
  Ti  Ti75      1.0  0.20264  0.03437  0.09319  1.0000
  Ti  Ti76      1.0  0.85070  0.35527  0.14604  1.0000
  Ti  Ti77      1.0  0.62378  0.42215  0.21074  1.0000
  Ti  Ti78      1.0  0.95800  0.93961  0.24609  1.0000
  Ti  Ti79      1.0  0.20078  0.67255  0.69536  1.0000
  Ti  Ti80      1.0  0.89790  0.38238  0.44180  1.0000
  Ti  Ti81      1.0  0.65424  0.16189  0.15009  1.0000
  Ti  Ti82      1.0  0.48251  0.66516  0.85590  1.0000
  Ti  Ti83      1.0  0.80282  0.54128  0.72172  1.0000
  Ti  Ti84      1.0  0.03585  0.50700  0.01302  1.0000
  Ti  Ti85      1.0  0.98654  0.29482  0.26538  1.0000
  Ti  Ti86      1.0  0.37669  0.45798  0.38187  1.0000
  Ti  Ti87      1.0  0.70668  0.25059  0.45719  1.0000
  Ti  Ti88      1.0  0.63298  0.82745  0.06030  1.0000
  Ti  Ti89      1.0  0.53127  0.71637  0.40921  1.0000
  Ti  Ti90      1.0  0.62503  0.22077  0.70064  1.0000
  Ti  Ti91      1.0  0.43050  0.59903  0.12512  1.0000
  Ti  Ti92      1.0  0.85879  0.06301  0.61011  1.0000
  Ti  Ti93      1.0  0.75295  0.59565  0.11961  1.0000
  Ti  Ti94      1.0  0.41905  0.64770  0.63158  1.0000
  Ti  Ti95      1.0  0.19287  0.33599  0.88270  1.0000
  Ti  Ti96      1.0  0.11437  0.26025  0.96087  1.0000
  I   I1        1.0  0.15429  0.26293  0.94403  1.0000
  I   I2        1.0  0.40329  0.12236  0.50313  1.0000
  I   I3        1.0  0.42398  0.93376  0.79415  1.0000
  I   I4        1.0  0.23721  0.71501  0.45780  1.0000
  I   I5        1.0  0.29707  0.25401  0.24992  1.0000
  I   I6        1.0  0.30276  0.20541  0.38126  1.0000
  I   I7        1.0  0.52723  0.37499  0.76023  1.0000
  I   I8        1.0  0.50463  0.39712  0.87679  1.0000
  I   I9        1.0  0.36304  0.80818  0.98555  1.0000
  I   I10       1.0  0.85569  0.61334  0.59515  1.0000
  I   I11       1.0  0.36065  0.34186  0.55800  1.0000
  I   I12       1.0  0.27296  0.81476  0.70330  1.0000
  I   I13       1.0  0.19276  0.41216  0.50778  1.0000
  I   I14       1.0  0.07238  0.94692  0.75344  1.0000
  I   I15       1.0  0.51734  0.04310  0.19289  1.0000
  I   I16       1.0  0.68801  0.89716  0.76386  1.0000
  I   I17       1.0  0.36379  0.37333  0.29764  1.0000
  I   I18       1.0  0.99126  0.79292  0.73919  1.0000
  I   I19       1.0  0.29598  0.06714  0.98890  1.0000
  I   I20       1.0  0.40048  0.33393  0.66988  1.0000
  I   I21       1.0  0.90273  0.14054  0.60232  1.0000
  I   I22       1.0  0.76956  0.92089  0.97054  1.0000
  I   I23       1.0  0.76039  0.87866  0.91145  1.0000
  I   I24       1.0  0.63774  0.38533  0.81083  1.0000
  I   I25       1.0  0.02073  0.46062  0.47032  1.0000
  I   I26       1.0  0.19705  0.01386  0.02610  1.0000
  I   I27       1.0  0.24309  0.48843  0.12962  1.0000
  I   I28       1.0  0.66174  0.39853  0.16181  1.0000
  I   I29       1.0  0.93358  0.95301  0.17848  1.0000
  I   I30       1.0  0.88623  0.31741  0.13612  1.0000
  I   I31       1.0  0.94788  0.27991  0.50277  1.0000
  I   I32       1.0  0.66556  0.19459  0.11579  1.0000
  I   I33       1.0  0.21543  0.67091  0.77347  1.0000
  I   I34       1.0  0.80946  0.57365  0.77712  1.0000
  I   I35       1.0  0.05393  0.51004  0.07726  1.0000
  I   I36       1.0  0.46311  0.75617  0.87821  1.0000
  I   I37       1.0  0.00563  0.28868  0.44132  1.0000
  I   I38       1.0  0.77948  0.15734  0.39612  1.0000
  I   I39       1.0  0.03509  0.22139  0.40602  1.0000
  I   I40       1.0  0.52459  0.75499  0.36481  1.0000
  I   I41       1.0  0.62833  0.18743  0.75446  1.0000
  I   I42       1.0  0.51482  0.83393  0.15857  1.0000
  I   I43       1.0  0.53882  0.08234  0.69512  1.0000
  I   I44       1.0  0.75614  0.59585  0.03570  1.0000
  I   I45       1.0  0.45589  0.57606  0.05952  1.0000
  I   I46       1.0  0.09217  0.37477  0.84547  1.0000
  I   I47       1.0  0.08693  0.31371  0.98867  1.0000
  I   I48       1.0  0.39021  0.62985  0.65125  1.0000
  I   I49       1.0  0.41924  0.98736  0.83214  1.0000
  I   I50       1.0  0.45918  0.13382  0.46547  1.0000
  I   I51       1.0  0.39276  0.17324  0.44299  1.0000
  I   I52       1.0  0.93090  0.19220  0.07537  1.0000
  I   I53       1.0  0.27620  0.69190  0.36055  1.0000
  I   I54       1.0  0.37863  0.12603  0.34586  1.0000
  I   I55       1.0  0.93678  0.90782  0.92515  1.0000
  I   I56       1.0  0.54587  0.32703  0.81733  1.0000
  I   I57       1.0  0.40048  0.85307  0.95465  1.0000
  I   I58       1.0  0.82166  0.67933  0.71538  1.0000
  I   I59       1.0  0.81452  0.62487  0.70866  1.0000
  I   I60       1.0  0.09256  0.61851  0.56290  1.0000
  I   I61       1.0  0.19266  0.41897  0.35304  1.0000
  I   I62       1.0  0.14655  0.41566  0.42534  1.0000
  I   I63       1.0  0.13700  0.95517  0.72142  1.0000
  I   I64       1.0  0.68877  0.94117  0.84919  1.0000
  I   I65       1.0  0.17610  0.54309  0.65333  1.0000
  I   I66       1.0  0.43210  0.34998  0.33326  1.0000
  I   I67       1.0  0.94243  0.80633  0.44231  1.0000
  I   I68       1.0  0.34722  0.07849  0.95442  1.0000
  I   I69       1.0  0.95331  0.10997  0.53191  1.0000
  I   I70       1.0  0.59753  0.39408  0.90481  1.0000
  I   I71       1.0  0.70091  0.91157  0.98819  1.0000
  I   I72       1.0  0.07552  0.98052  0.20338  1.0000
  I   I73       1.0  0.26482  0.52852  0.19205  1.0000
  I   I74       1.0  0.17931  0.12896  0.09140  1.0000
  I   I75       1.0  0.25057  0.01969  0.09445  1.0000
  I   I76       1.0  0.61240  0.35201  0.21373  1.0000
  I   I77       1.0  0.60353  0.46807  0.19963  1.0000
  I   I78       1.0  0.93062  0.91944  0.30476  1.0000
  I   I79       1.0  0.37284  0.86837  0.32757  1.0000
  I   I80       1.0  0.89323  0.41265  0.49886  1.0000
  I   I81       1.0  0.63645  0.19747  0.26237  1.0000
  I   I82       1.0  0.45562  0.73856  0.75792  1.0000
  I   I83       1.0  0.82503  0.55431  0.66447  1.0000
  I   I84       1.0  0.93832  0.52522  0.01273  1.0000
  I   I85       1.0  0.02459  0.29163  0.30457  1.0000
  I   I86       1.0  0.39286  0.46129  0.30319  1.0000
  I   I87       1.0  0.80214  0.19529  0.45303  1.0000
  I   I88       1.0  0.54233  0.87845  0.19468  1.0000
  I   I89       1.0  0.55598  0.74259  0.46340  1.0000
  I   I90       1.0  0.66083  0.18753  0.65592  1.0000
  I   I91       1.0  0.42393  0.55738  0.15794  1.0000
  I   I92       1.0  0.88577  0.07024  0.66156  1.0000
  I   I93       1.0  0.81644  0.49345  0.14520  1.0000
  I   I94       1.0  0.38483  0.67166  0.55434  1.0000
  I   I95       1.0  0.22153  0.31063  0.82845  1.0000
  I   I96       1.0  0.14238  0.21941  0.92097  1.0000
  I   I97       1.0  0.86654  0.79363  0.98258  1.0000
  I   I98       1.0  0.44522  0.93192  0.68869  1.0000
  I   I99       1.0  0.46943  0.06895  0.50428  1.0000
  I   I100      1.0  0.84509  0.15124  0.13216  1.0000
  I   I101      1.0  0.86433  0.19914  0.13149  1.0000
  I   I102      1.0  0.31708  0.75119  0.72341  1.0000
  I   I103      1.0  0.87542  0.88933  0.01179  1.0000
  I   I104      1.0  0.91732  0.91459  0.07338  1.0000
  I   I105      1.0  0.39970  0.79907  0.89764  1.0000
  I   I106      1.0  0.01597  0.72843  0.35994  1.0000
  I   I107      1.0  0.88173  0.58400  0.69114  1.0000
  I   I108      1.0  0.11756  0.63275  0.48165  1.0000
  I   I109      1.0  0.51251  0.09145  0.09332  1.0000
  I   I110      1.0  0.26438  0.39882  0.53121  1.0000
  I   I111      1.0  0.10404  0.01960  0.64298  1.0000
  I   I112      1.0  0.04018  0.72805  0.96030  1.0000
  I   I113      1.0  0.15548  0.48147  0.65439  1.0000
  I   I114      1.0  0.41675  0.21271  0.89142  1.0000
  I   I115      1.0  0.81926  0.82665  0.42868  1.0000
  I   I116      1.0  0.88309  0.77596  0.46164  1.0000
  I   I117      1.0  0.03419  0.25337  0.63139  1.0000
  I   I118      1.0  0.55400  0.44533  0.83109  1.0000
  I   I119      1.0  0.67098  0.44916  0.82240  1.0000
  I   I120      1.0  0.05173  0.05130  0.20586  1.0000
  I   I121      1.0  0.18699  0.59715  0.22284  1.0000
  I   I122      1.0  0.90371  0.56705  0.38725  1.0000
  I   I123      1.0  0.14851  0.08625  0.03543  1.0000
  I   I124      1.0  0.80934  0.36241  0.11816  1.0000
  I   I125      1.0  0.57069  0.38921  0.31657  1.0000
  I   I126      1.0  0.93687  0.88765  0.41431  1.0000
  I   I127      1.0  0.32682  0.94253  0.27850  1.0000
  I   I128      1.0  0.87514  0.30074  0.52609  1.0000
  I   I129      1.0  0.66127  0.13430  0.08495  1.0000
  I   I130      1.0  0.00685  0.55386  0.98918  1.0000
  I   I131      1.0  0.48624  0.69737  0.91606  1.0000
  I   I132      1.0  0.81542  0.49689  0.70727  1.0000
  I   I133      1.0  0.78036  0.20518  0.32112  1.0000
  I   I134      1.0  0.35725  0.55221  0.35456  1.0000
  I   I135      1.0  0.40840  0.47408  0.40220  1.0000
  I   I136      1.0  0.61747  0.29309  0.82059  1.0000
  I   I137      1.0  0.59585  0.86834  0.03253  1.0000
  I   I138      1.0  0.62807  0.70403  0.49673  1.0000
  I   I139      1.0  0.38237  0.59788  0.26573  1.0000
  I   I140      1.0  0.86041  0.08741  0.54248  1.0000
  I   I141      1.0  0.75211  0.55700  0.16573  1.0000
  I   I142      1.0  0.38893  0.73846  0.63028  1.0000
  I   I143      1.0  0.14841  0.36885  0.79436  1.0000
  I   I144      1.0  0.04758  0.29325  0.07609  1.0000
  I   I145      1.0  0.47485  0.96813  0.74107  1.0000
  I   I146      1.0  0.41943  0.19350  0.52998  1.0000
  I   I147      1.0  0.87228  0.75807  0.10638  1.0000
  I   I148      1.0  0.84840  0.14495  0.00771  1.0000
  I   I149      1.0  0.27402  0.78465  0.83230  1.0000
  I   I150      1.0  0.31245  0.15697  0.27748  1.0000
  I   I151      1.0  0.98552  0.86878  0.06196  1.0000
  I   I152      1.0  0.43187  0.41854  0.84620  1.0000
  I   I153      1.0  0.34013  0.88237  0.97325  1.0000
  I   I154      1.0  0.52315  0.13128  0.76708  1.0000
  I   I155      1.0  0.43722  0.30155  0.56029  1.0000
  I   I156      1.0  0.08280  0.69478  0.45177  1.0000
  I   I157      1.0  0.56040  0.01172  0.10081  1.0000
  I   I158      1.0  0.08529  0.00748  0.76212  1.0000
  I   I159      1.0  0.57374  0.12797  0.12763  1.0000
  I   I160      1.0  0.00133  0.75986  0.84864  1.0000
  I   I161      1.0  0.40865  0.18772  0.01218  1.0000
  I   I162      1.0  0.02711  0.73081  0.69623  1.0000
  I   I163      1.0  0.93499  0.75339  0.36448  1.0000
  I   I164      1.0  0.06334  0.22345  0.75321  1.0000
  I   I165      1.0  0.98914  0.10294  0.62418  1.0000
  I   I166      1.0  0.64657  0.40656  0.91210  1.0000
  I   I167      1.0  0.82006  0.86791  0.02111  1.0000
  I   I168      1.0  0.00586  0.70487  0.00750  1.0000
  I   I169      1.0  0.96261  0.51212  0.42259  1.0000
  I   I170      1.0  0.87793  0.53713  0.48284  1.0000
  I   I171      1.0  0.22810  0.60653  0.10895  1.0000
  I   I172      1.0  0.84128  0.33560  0.23149  1.0000
  I   I173      1.0  0.98798  0.89143  0.25562  1.0000
  I   I174      1.0  0.83116  0.38854  0.30693  1.0000
  I   I175      1.0  0.91449  0.24897  0.43778  1.0000
  I   I176      1.0  0.60930  0.19559  0.17219  1.0000
  I   I177      1.0  0.22356  0.64302  0.62196  1.0000
  I   I178      1.0  0.51739  0.62364  0.85846  1.0000
  I   I179      1.0  0.75856  0.56027  0.70201  1.0000
  I   I180      1.0  0.00148  0.50319  0.07884  1.0000
  I   I181      1.0  0.99740  0.25293  0.23299  1.0000
  I   I182      1.0  0.40962  0.40727  0.38139  1.0000
  I   I183      1.0  0.67179  0.24554  0.47498  1.0000
  I   I184      1.0  0.62205  0.80244  0.01107  1.0000
  I   I185      1.0  0.59227  0.68810  0.55714  1.0000
  I   I186      1.0  0.59072  0.27082  0.72870  1.0000
  I   I187      1.0  0.86647  0.02143  0.58434  1.0000
  I   I188      1.0  0.75947  0.51338  0.08794  1.0000
  I   I189      1.0  0.45640  0.55211  0.26128  1.0000
  I   I190      1.0  0.15525  0.36175  0.94576  1.0000
  I   I191      1.0  0.25587  0.16277  0.75464  1.0000
  I   I192      1.0  0.43721  0.67885  0.60113  1.0000
  I   I193      1.0  0.39774  0.99606  0.71084  1.0000
  I   I194      1.0  0.19612  0.20828  0.79734  1.0000
  I   I195      1.0  0.82258  0.76430  0.02185  1.0000
  I   I196      1.0  0.88705  0.22764  0.99196  1.0000
  I   I197      1.0  0.56125  0.16565  0.83490  1.0000
  I   I198      1.0  0.34596  0.18852  0.28875  1.0000
  I   I199      1.0  0.96468  0.93110  0.99483  1.0000
  I   I200      1.0  0.50666  0.32461  0.71714  1.0000
  I   I201      1.0  0.33622  0.85929  0.09382  1.0000
  I   I202      1.0  0.88003  0.65309  0.64995  1.0000
  I   I203      1.0  0.86627  0.19407  0.50738  1.0000
  I   I204      1.0  0.04962  0.65456  0.40315  1.0000
  I   I205      1.0  0.14582  0.47730  0.42439  1.0000
  I   I206      1.0  0.05936  0.04093  0.55363  1.0000
  I   I207      1.0  0.57170  0.06467  0.07800  1.0000
  I   I208      1.0  0.62433  0.95901  0.75438  1.0000
  I   I209      1.0  0.36563  0.17617  0.91975  1.0000
  I   I210      1.0  0.04050  0.70953  0.80601  1.0000
  I   I211      1.0  0.88210  0.82486  0.40218  1.0000
  I   I212      1.0  0.36677  0.03062  0.05057  1.0000
  I   I213      1.0  0.92364  0.18395  0.54945  1.0000
  I   I214      1.0  0.60526  0.46480  0.85403  1.0000
  I   I215      1.0  0.74928  0.89604  0.07163  1.0000
  I   I216      1.0  0.08951  0.68514  0.02563  1.0000
  I   I217      1.0  0.89574  0.51893  0.35716  1.0000
  I   I218      1.0  0.21825  0.06681  0.13630  1.0000
  I   I219      1.0  0.21254  0.54973  0.11884  1.0000
  I   I220      1.0  0.54248  0.40349  0.19565  1.0000
  I   I221      1.0  0.98054  0.91772  0.38167  1.0000
  I   I222      1.0  0.77853  0.38737  0.25438  1.0000
  I   I223      1.0  0.93828  0.37097  0.41225  1.0000
  I   I224      1.0  0.62387  0.14265  0.18996  1.0000
  I   I225      1.0  0.39742  0.91172  0.31500  1.0000
  I   I226      1.0  0.45407  0.66962  0.79654  1.0000
  I   I227      1.0  0.84127  0.56792  0.86405  1.0000
  I   I228      1.0  0.94110  0.57841  0.96497  1.0000
  I   I229      1.0  0.99481  0.31102  0.19606  1.0000
  I   I230      1.0  0.41237  0.50980  0.27636  1.0000
  I   I231      1.0  0.70183  0.28217  0.51637  1.0000
  I   I232      1.0  0.50069  0.85969  0.29015  1.0000
  I   I233      1.0  0.55781  0.68022  0.47201  1.0000
  I   I234      1.0  0.65803  0.29020  0.72098  1.0000
  I   I235      1.0  0.60670  0.06303  0.73324  1.0000
  I   I236      1.0  0.75592  0.63414  0.14170  1.0000
  I   I237      1.0  0.42391  0.62638  0.25360  1.0000
  I   I238      1.0  0.11747  0.42114  0.86807  1.0000
  I   I239      1.0  0.08369  0.26472  0.90246  1.0000
  I   I240      1.0  0.44627  0.60495  0.59145  1.0000
  I   I241      1.0  0.53529  0.91809  0.65928  1.0000
  I   I242      1.0  0.42800  0.11606  0.59161  1.0000
  I   I243      1.0  0.81538  0.82572  0.09659  1.0000
  I   I244      1.0  0.80455  0.21623  0.04989  1.0000
  I   I245      1.0  0.29600  0.65048  0.44621  1.0000
  I   I246      1.0  0.30329  0.20805  0.18867  1.0000
  I   I247      1.0  0.94504  0.86068  0.98645  1.0000
  I   I248      1.0  0.46619  0.39184  0.72663  1.0000
  I   I249      1.0  0.34188  0.85057  0.86144  1.0000
  I   I250      1.0  0.82700  0.70600  0.55203  1.0000
  I   I251      1.0  0.41356  0.36933  0.54912  1.0000
  I   I252      1.0  0.03285  0.68105  0.50318  1.0000
  I   I253      1.0  0.24252  0.34756  0.49965  1.0000
  I   I254      1.0  0.05223  0.00541  0.66160  1.0000
  I   I255      1.0  0.50287  0.14792  0.13222  1.0000
  I   I256      1.0  0.12500  0.53978  0.73060  1.0000
  I   I257      1.0  0.36085  0.24535  0.95565  1.0000
  I   I258      1.0  0.95858  0.75370  0.74178  1.0000
  I   I259      1.0  0.94539  0.74520  0.49264  1.0000
  I   I260      1.0  0.01726  0.20534  0.68179  1.0000
  I   I261      1.0  0.88419  0.13533  0.48420  1.0000
  I   I262      1.0  0.68659  0.39444  0.78711  1.0000
  I   I263      1.0  0.71843  0.84958  0.92579  1.0000
  I   I264      1.0  0.05629  0.67872  0.12151  1.0000
  I   I265      1.0  0.93419  0.48077  0.46537  1.0000
  I   I266      1.0  0.16021  0.05372  0.13248  1.0000
  I   I267      1.0  0.24962  0.59016  0.22990  1.0000
  I   I268      1.0  0.57828  0.43841  0.26285  1.0000
  I   I269      1.0  0.93698  0.97269  0.30355  1.0000
  I   I270      1.0  0.85461  0.38666  0.09177  1.0000
  I   I271      1.0  0.91074  0.30186  0.38029  1.0000
  I   I272      1.0  0.68450  0.14103  0.20645  1.0000
  I   I273      1.0  0.38449  0.90021  0.19706  1.0000
  I   I274      1.0  0.42004  0.72791  0.87117  1.0000
  I   I275      1.0  0.86172  0.51670  0.90562  1.0000
  I   I276      1.0  0.95519  0.58355  0.06538  1.0000
  I   I277      1.0  0.98142  0.26359  0.33978  1.0000
  I   I278      1.0  0.34191  0.50406  0.37785  1.0000
  I   I279      1.0  0.71837  0.22211  0.37576  1.0000
  I   I280      1.0  0.67750  0.80089  0.06743  1.0000
  I   I281      1.0  0.54079  0.68418  0.35791  1.0000
  I   I282      1.0  0.65582  0.23137  0.77405  1.0000
  I   I283      1.0  0.56656  0.10808  0.84473  1.0000
  I   I284      1.0  0.80490  0.56294  0.12109  1.0000
  I   I285      1.0  0.47188  0.58857  0.15936  1.0000
  I   I286      1.0  0.19259  0.37783  0.87911  1.0000
  I   I287      1.0  0.10836  0.24095  0.03648  1.0000
  I   I288      1.0  0.33986  0.72132  0.60910  1.0000
  I   I289      1.0  0.51107  0.89130  0.73400  1.0000
  I   I290      1.0  0.24465  0.18273  0.88510  1.0000
  I   I291      1.0  0.41169  0.05244  0.51160  1.0000
  I   I292      1.0  0.86027  0.26536  0.08164  1.0000
  I   I293      1.0  0.23248  0.65736  0.37680  1.0000
  I   I294      1.0  0.25551  0.23909  0.28705  1.0000
  I   I295      1.0  0.89493  0.85888  0.89521  1.0000
  I   I296      1.0  0.47896  0.44038  0.78138  1.0000
  I   I297      1.0  0.38194  0.88015  0.07569  1.0000
  I   I298      1.0  0.55149  0.05681  0.79570  1.0000
  I   I299      1.0  0.80263  0.67149  0.60982  1.0000
  I   I300      1.0  0.01617  0.74068  0.46806  1.0000
  I   I301      1.0  0.57499  0.04849  0.19867  1.0000
  I   I302      1.0  0.21599  0.44163  0.45634  1.0000
  I   I303      1.0  0.10400  0.99511  0.52439  1.0000
  I   I304      1.0  0.04590  0.67020  0.92224  1.0000
  I   I305      1.0  0.63202  0.93581  0.87082  1.0000
  I   I306      1.0  0.35383  0.43971  0.32720  1.0000
  I   I307      1.0  0.86733  0.82197  0.55309  1.0000
  I   I308      1.0  0.34318  0.09542  0.08732  1.0000
  I   I309      1.0  0.98452  0.16322  0.60998  1.0000
  I   I310      1.0  0.61046  0.43493  0.75539  1.0000
  I   I311      1.0  0.73411  0.84500  0.05973  1.0000
  I   I312      1.0  0.04412  0.00762  0.08945  1.0000
  I   I313      1.0  0.23218  0.48393  0.25122  1.0000
  I   I314      1.0  0.99190  0.42114  0.48487  1.0000
  I   I315      1.0  0.20892  0.07663  0.00599  1.0000
  I   I316      1.0  0.79572  0.43101  0.21848  1.0000
  I   I317      1.0  0.65497  0.41097  0.27507  1.0000
  I   I318      1.0  0.99647  0.94677  0.24249  1.0000
  I   I319      1.0  0.16680  0.66281  0.71531  1.0000
  I   I320      1.0  0.87968  0.40613  0.36740  1.0000
  I   I321      1.0  0.62761  0.14165  0.31801  1.0000
  I   I322      1.0  0.50938  0.68731  0.81072  1.0000
  I   I323      1.0  0.87548  0.50406  0.78344  1.0000
  I   I324      1.0  0.99794  0.50873  0.95794  1.0000
  I   I325      1.0  0.94069  0.30600  0.23491  1.0000
  I   I326      1.0  0.36254  0.45951  0.46528  1.0000
  I   I327      1.0  0.73827  0.26182  0.41714  1.0000
  I   I328      1.0  0.56776  0.80849  0.23767  1.0000
  I   I329      1.0  0.49494  0.72152  0.45192  1.0000
  I   I330      1.0  0.63068  0.25740  0.65359  1.0000
  I   I331      1.0  0.38983  0.62941  0.15342  1.0000
  I   I332      1.0  0.61646  0.11763  0.77887  1.0000
  I   I333      1.0  0.70633  0.61166  0.12280  1.0000
  I   I334      1.0  0.45203  0.62900  0.69188  1.0000
  I   I335      1.0  0.15192  0.32663  0.87527  1.0000
  I   I336      1.0  0.10302  0.27324  0.14274  1.0000
  I   I337      1.0  0.48259  0.96459  0.61581  1.0000
  I   I338      1.0  0.26460  0.22269  0.79189  1.0000
  I   I339      1.0  0.46098  0.04583  0.60400  1.0000
  I   I340      1.0  0.87689  0.18366  0.01986  1.0000
  I   I341      1.0  0.31452  0.81623  0.80452  1.0000
  I   I342      1.0  0.32071  0.14068  0.40741  1.0000
  I   I343      1.0  0.87472  0.92920  0.89337  1.0000
  I   I344      1.0  0.47500  0.35523  0.83897  1.0000
  I   I345      1.0  0.41020  0.81304  0.06060  1.0000
  I   I346      1.0  0.56760  0.12849  0.69148  1.0000
  I   I347      1.0  0.82551  0.72414  0.65419  1.0000
  I   I348      1.0  0.07028  0.59452  0.47211  1.0000
  I   I349      1.0  0.54035  0.13031  0.01733  1.0000
  I   I350      1.0  0.26131  0.38336  0.41450  1.0000
  I   I351      1.0  0.09955  0.95217  0.62463  1.0000
  I   I352      1.0  0.97988  0.71704  0.87402  1.0000
  I   I353      1.0  0.19861  0.49360  0.74460  1.0000
  I   I354      1.0  0.40993  0.39784  0.23977  1.0000
  I   I355      1.0  0.83101  0.87729  0.46615  1.0000
  I   I356      1.0  0.99840  0.27764  0.73803  1.0000
  I   I357      1.0  0.99393  0.12546  0.50203  1.0000
  I   I358      1.0  0.02182  0.74596  0.08077  1.0000
  I   I359      1.0  0.78752  0.83246  0.99732  1.0000
  I   I360      1.0  0.00890  0.01222  0.19371  1.0000
  I   I361      1.0  0.18698  0.54093  0.24357  1.0000
  I   I362      1.0  0.98867  0.45046  0.37193  1.0000
  I   I363      1.0  0.21191  0.99866  0.14765  1.0000
  I   I364      1.0  0.86634  0.37825  0.20240  1.0000
  I   I365      1.0  0.59406  0.41333  0.15885  1.0000
  I   I366      1.0  0.99728  0.83911  0.34209  1.0000
  I   I367      1.0  0.17754  0.71355  0.66331  1.0000
  I   I368      1.0  0.88398  0.35192  0.47734  1.0000
  I   I369      1.0  0.56590  0.20070  0.28147  1.0000
  I   I370      1.0  0.46307  0.65934  0.92625  1.0000
  I   I371      1.0  0.80208  0.52133  0.81221  1.0000
  I   I372      1.0  0.06503  0.48279  0.95232  1.0000
  I   I373      1.0  0.06302  0.25129  0.38276  1.0000
  I   I374      1.0  0.34947  0.52575  0.25547  1.0000
  I   I375      1.0  0.74270  0.21017  0.48852  1.0000
  I   I376      1.0  0.61193  0.82453  0.13304  1.0000
  I   I377      1.0  0.60772  0.67135  0.39973  1.0000
  I   I378      1.0  0.59195  0.21821  0.64869  1.0000
  I   I379      1.0  0.42472  0.64576  0.09745  1.0000
  I   I380      1.0  0.82040  0.08730  0.65401  1.0000
  I   I381      1.0  0.80779  0.51256  0.02807  1.0000
  I   I382      1.0  0.38540  0.69378  0.69926  1.0000
  I   I383      1.0  0.22236  0.31736  0.94488  1.0000
  I   I384      1.0  0.08655  0.33139  0.08961  1.0000
