data_image0
_chemical_formula_structural       Ti96I384
_chemical_formula_sum              "Ti96 I384"
_cell_length_a       61.7794
_cell_length_b       61.6315
_cell_length_c       29.991
_cell_angle_alpha    88.7757
_cell_angle_beta     88.7757
_cell_angle_gamma    62.1586

_space_group_name_H-M_alt    "P 1"
_space_group_IT_number       1

loop_
  _space_group_symop_operation_xyz
  'x, y, z'

loop_
  _atom_site_type_symbol
  _atom_site_label
  _atom_site_symmetry_multiplicity
  _atom_site_fract_x
  _atom_site_fract_y
  _atom_site_fract_z
  _atom_site_occupancy
  Ti  Ti1       1.0  0.61015  0.02924  0.53132  1.0000
  Ti  Ti2       1.0  0.46136  0.14046  0.33356  1.0000
  Ti  Ti3       1.0  0.01770  0.57757  0.99237  1.0000
  Ti  Ti4       1.0  0.46006  0.48254  0.68491  1.0000
  Ti  Ti5       1.0  0.18571  0.77883  0.15100  1.0000
  Ti  Ti6       1.0  0.53208  0.08639  0.03000  1.0000
  Ti  Ti7       1.0  0.05815  0.91131  0.42669  1.0000
  Ti  Ti8       1.0  0.16806  0.54720  0.20718  1.0000
  Ti  Ti9       1.0  0.11880  0.91059  0.77566  1.0000
  Ti  Ti10      1.0  0.00738  0.87562  0.74155  1.0000
  Ti  Ti11      1.0  0.35124  0.38044  0.94215  1.0000
  Ti  Ti12      1.0  0.16493  0.73788  0.55277  1.0000
  Ti  Ti13      1.0  0.34543  0.43257  0.53954  1.0000
  Ti  Ti14      1.0  0.14717  0.04835  0.50275  1.0000
  Ti  Ti15      1.0  0.49303  0.78280  0.96136  1.0000
  Ti  Ti16      1.0  0.98346  0.44707  0.71804  1.0000
  Ti  Ti17      1.0  0.20193  0.21743  0.23409  1.0000
  Ti  Ti18      1.0  0.70879  0.58880  0.70185  1.0000
  Ti  Ti19      1.0  0.76793  0.04170  0.34010  1.0000
  Ti  Ti20      1.0  0.35816  0.15350  0.70928  1.0000
  Ti  Ti21      1.0  0.71846  0.31077  0.25591  1.0000
  Ti  Ti22      1.0  0.57303  0.85940  0.34284  1.0000
  Ti  Ti23      1.0  0.61662  0.86309  0.00704  1.0000
  Ti  Ti24      1.0  0.29852  0.85520  0.54301  1.0000
  Ti  Ti25      1.0  0.23081  0.30768  0.82314  1.0000
  Ti  Ti26      1.0  0.96571  0.28599  0.32828  1.0000
  Ti  Ti27      1.0  0.29430  0.48265  0.79611  1.0000
  Ti  Ti28      1.0  0.74900  0.50732  0.04377  1.0000
  Ti  Ti29      1.0  0.99652  0.10823  0.16804  1.0000
  Ti  Ti30      1.0  0.88533  0.41694  0.13970  1.0000
  Ti  Ti31      1.0  0.70746  0.35213  0.48664  1.0000
  Ti  Ti32      1.0  0.69936  0.06456  0.86468  1.0000
  Ti  Ti33      1.0  0.37811  0.81219  0.33333  1.0000
  Ti  Ti34      1.0  0.60569  0.80341  0.69799  1.0000
  Ti  Ti35      1.0  0.80218  0.34191  0.04479  1.0000
  Ti  Ti36      1.0  0.08072  0.51620  0.69734  1.0000
  Ti  Ti37      1.0  0.07462  0.20544  0.17881  1.0000
  Ti  Ti38      1.0  0.49945  0.23011  0.56928  1.0000
  Ti  Ti39      1.0  0.41279  0.27744  0.12455  1.0000
  Ti  Ti40      1.0  0.75240  0.85105  0.42896  1.0000
  Ti  Ti41      1.0  0.51071  0.68631  0.36522  1.0000
  Ti  Ti42      1.0  0.88109  0.84285  0.71244  1.0000
  Ti  Ti43      1.0  0.30758  0.11171  0.08000  1.0000
  Ti  Ti44      1.0  0.81506  0.64100  0.27164  1.0000
  Ti  Ti45      1.0  0.47956  0.64397  0.69001  1.0000
  Ti  Ti46      1.0  0.17789  0.01438  0.11454  1.0000
  Ti  Ti47      1.0  0.84634  0.07151  0.09747  1.0000
  Ti  Ti48      1.0  0.37367  0.57839  0.22614  1.0000
  Ti  Ti49      1.0  0.64265  0.04867  0.56233  1.0000
  Ti  Ti50      1.0  0.76295  0.19147  0.93435  1.0000
  Ti  Ti51      1.0  0.50721  0.15942  0.33580  1.0000
  Ti  Ti52      1.0  0.42916  0.55362  0.61469  1.0000
  Ti  Ti53      1.0  0.22516  0.73158  0.14448  1.0000
  Ti  Ti54      1.0  0.48728  0.04911  0.01919  1.0000
  Ti  Ti55      1.0  0.07468  0.90180  0.32778  1.0000
  Ti  Ti56      1.0  0.15461  0.59723  0.29160  1.0000
  Ti  Ti57      1.0  0.08027  0.96348  0.70893  1.0000
  Ti  Ti58      1.0  0.30680  0.10993  0.94854  1.0000
  Ti  Ti59      1.0  0.00622  0.89251  0.85350  1.0000
  Ti  Ti60      1.0  0.21493  0.74265  0.62457  1.0000
  Ti  Ti61      1.0  0.46796  0.74882  0.88364  1.0000
  Ti  Ti62      1.0  0.28147  0.44191  0.51229  1.0000
  Ti  Ti63      1.0  0.16783  0.02687  0.40729  1.0000
  Ti  Ti64      1.0  0.74310  0.53024  0.64062  1.0000
  Ti  Ti65      1.0  0.94240  0.49483  0.80521  1.0000
  Ti  Ti66      1.0  0.58222  0.22412  0.78872  1.0000
  Ti  Ti67      1.0  0.82347  0.98822  0.28596  1.0000
  Ti  Ti68      1.0  0.32573  0.16913  0.60499  1.0000
  Ti  Ti69      1.0  0.66647  0.35047  0.12446  1.0000
  Ti  Ti70      1.0  0.59483  0.79757  0.35259  1.0000
  Ti  Ti71      1.0  0.58532  0.91896  0.03054  1.0000
  Ti  Ti72      1.0  0.86078  0.84796  0.15515  1.0000
  Ti  Ti73      1.0  0.29603  0.52480  0.70533  1.0000
  Ti  Ti74      1.0  0.26837  0.34457  0.88200  1.0000
  Ti  Ti75      1.0  0.97250  0.22348  0.33710  1.0000
  Ti  Ti76      1.0  0.86699  0.43705  0.23622  1.0000
  Ti  Ti77      1.0  0.70580  0.55864  0.02088  1.0000
  Ti  Ti78      1.0  0.98581  0.07303  0.23260  1.0000
  Ti  Ti79      1.0  0.33172  0.77426  0.28647  1.0000
  Ti  Ti80      1.0  0.68096  0.43055  0.47661  1.0000
  Ti  Ti81      1.0  0.66543  0.02324  0.92962  1.0000
  Ti  Ti82      1.0  0.67112  0.74845  0.74628  1.0000
  Ti  Ti83      1.0  0.74689  0.36946  0.00941  1.0000
  Ti  Ti84      1.0  0.14084  0.47418  0.66992  1.0000
  Ti  Ti85      1.0  0.06285  0.21544  0.06095  1.0000
  Ti  Ti86      1.0  0.52785  0.21073  0.72358  1.0000
  Ti  Ti87      1.0  0.47378  0.23452  0.09504  1.0000
  Ti  Ti88      1.0  0.82108  0.80242  0.44610  1.0000
  Ti  Ti89      1.0  0.53773  0.71028  0.46713  1.0000
  Ti  Ti90      1.0  0.87602  0.88415  0.59289  1.0000
  Ti  Ti91      1.0  0.42129  0.65217  0.74412  1.0000
  Ti  Ti92      1.0  0.92230  0.21098  0.61255  1.0000
  Ti  Ti93      1.0  0.75651  0.64632  0.18175  1.0000
  Ti  Ti94      1.0  0.37098  0.60131  0.12153  1.0000
  Ti  Ti95      1.0  0.22677  0.01480  0.04201  1.0000
  Ti  Ti96      1.0  0.84025  0.12962  0.05519  1.0000
  I   I1        1.0  0.87573  0.12706  0.00404  1.0000
  I   I2        1.0  0.54234  0.11319  0.34767  1.0000
  I   I3        1.0  0.63395  0.00013  0.60007  1.0000
  I   I4        1.0  0.18504  0.75548  0.22417  1.0000
  I   I5        1.0  0.49485  0.08164  0.08349  1.0000
  I   I6        1.0  0.49514  0.01778  0.07884  1.0000
  I   I7        1.0  0.12241  0.61179  0.35725  1.0000
  I   I8        1.0  0.13058  0.63946  0.24573  1.0000
  I   I9        1.0  0.07737  0.91537  0.80852  1.0000
  I   I10       1.0  0.02286  0.89410  0.67791  1.0000
  I   I11       1.0  0.32362  0.35881  0.90444  1.0000
  I   I12       1.0  0.13650  0.79442  0.13690  1.0000
  I   I13       1.0  0.32634  0.42642  0.46396  1.0000
  I   I14       1.0  0.16279  0.00006  0.48522  1.0000
  I   I15       1.0  0.49336  0.77852  0.86660  1.0000
  I   I16       1.0  0.97616  0.44884  0.83366  1.0000
  I   I17       1.0  0.56536  0.24498  0.85917  1.0000
  I   I18       1.0  0.76130  0.56200  0.68428  1.0000
  I   I19       1.0  0.30573  0.16200  0.68066  1.0000
  I   I20       1.0  0.31050  0.41466  0.97814  1.0000
  I   I21       1.0  0.68096  0.33862  0.04417  1.0000
  I   I22       1.0  0.54763  0.93682  0.97691  1.0000
  I   I23       1.0  0.62274  0.88673  0.08843  1.0000
  I   I24       1.0  0.59486  0.77356  0.27850  1.0000
  I   I25       1.0  0.30559  0.30219  0.85615  1.0000
  I   I26       1.0  0.99746  0.28877  0.27003  1.0000
  I   I27       1.0  0.32923  0.53180  0.64437  1.0000
  I   I28       1.0  0.66079  0.56535  0.04040  1.0000
  I   I29       1.0  0.02534  0.07963  0.24585  1.0000
  I   I30       1.0  0.86428  0.42416  0.31676  1.0000
  I   I31       1.0  0.71445  0.44700  0.47913  1.0000
  I   I32       1.0  0.65732  0.98823  0.88659  1.0000
  I   I33       1.0  0.37385  0.74021  0.29684  1.0000
  I   I34       1.0  0.77492  0.31479  0.01835  1.0000
  I   I35       1.0  0.08078  0.53532  0.77628  1.0000
  I   I36       1.0  0.55593  0.81823  0.71303  1.0000
  I   I37       1.0  0.07637  0.16645  0.13245  1.0000
  I   I38       1.0  0.46779  0.19225  0.10520  1.0000
  I   I39       1.0  0.02227  0.23301  0.11463  1.0000
  I   I40       1.0  0.52368  0.71281  0.54927  1.0000
  I   I41       1.0  0.85037  0.88974  0.52597  1.0000
  I   I42       1.0  0.85483  0.79134  0.50243  1.0000
  I   I43       1.0  0.33757  0.06960  0.91709  1.0000
  I   I44       1.0  0.76997  0.62859  0.10281  1.0000
  I   I45       1.0  0.46579  0.64597  0.78561  1.0000
  I   I46       1.0  0.19468  0.98956  0.18395  1.0000
  I   I47       1.0  0.86562  0.10390  0.12408  1.0000
  I   I48       1.0  0.41062  0.55001  0.27342  1.0000
  I   I49       1.0  0.64108  0.08946  0.52313  1.0000
  I   I50       1.0  0.43290  0.13987  0.39700  1.0000
  I   I51       1.0  0.42546  0.15582  0.27193  1.0000
  I   I52       1.0  0.44971  0.45620  0.74496  1.0000
  I   I53       1.0  0.23383  0.77378  0.15177  1.0000
  I   I54       1.0  0.50712  0.02790  0.94464  1.0000
  I   I55       1.0  0.05281  0.94701  0.48017  1.0000
  I   I56       1.0  0.21188  0.51278  0.18219  1.0000
  I   I57       1.0  0.10099  0.95796  0.79421  1.0000
  I   I58       1.0  0.01498  0.83099  0.72292  1.0000
  I   I59       1.0  0.95848  0.90899  0.73767  1.0000
  I   I60       1.0  0.15296  0.70409  0.57416  1.0000
  I   I61       1.0  0.29740  0.46776  0.57118  1.0000
  I   I62       1.0  0.27032  0.43924  0.42968  1.0000
  I   I63       1.0  0.19323  0.03592  0.49338  1.0000
  I   I64       1.0  0.02580  0.44072  0.69554  1.0000
  I   I65       1.0  0.90079  0.53092  0.77890  1.0000
  I   I66       1.0  0.59605  0.25799  0.75611  1.0000
  I   I67       1.0  0.78297  0.99858  0.23770  1.0000
  I   I68       1.0  0.40480  0.14155  0.71192  1.0000
  I   I69       1.0  0.71075  0.30431  0.34006  1.0000
  I   I70       1.0  0.59625  0.83402  0.41302  1.0000
  I   I71       1.0  0.64766  0.86298  0.94559  1.0000
  I   I72       1.0  0.90035  0.85253  0.13391  1.0000
  I   I73       1.0  0.33317  0.48246  0.73251  1.0000
  I   I74       1.0  0.00419  0.24136  0.37015  1.0000
  I   I75       1.0  0.93259  0.26666  0.35187  1.0000
  I   I76       1.0  0.74457  0.48572  0.12271  1.0000
  I   I77       1.0  0.70183  0.59910  0.06887  1.0000
  I   I78       1.0  0.99846  0.13843  0.22868  1.0000
  I   I79       1.0  0.31054  0.76687  0.21485  1.0000
  I   I80       1.0  0.64491  0.45825  0.53484  1.0000
  I   I81       1.0  0.73570  0.07394  0.85764  1.0000
  I   I82       1.0  0.64172  0.80267  0.76277  1.0000
  I   I83       1.0  0.82119  0.31453  0.12293  1.0000
  I   I84       1.0  0.11010  0.46212  0.71068  1.0000
  I   I85       1.0  0.06305  0.25392  0.02030  1.0000
  I   I86       1.0  0.47983  0.24340  0.69203  1.0000
  I   I87       1.0  0.44665  0.24978  0.19120  1.0000
  I   I88       1.0  0.75622  0.88725  0.38606  1.0000
  I   I89       1.0  0.50065  0.70435  0.27436  1.0000
  I   I90       1.0  0.87207  0.85555  0.79843  1.0000
  I   I91       1.0  0.43472  0.69005  0.69128  1.0000
  I   I92       1.0  0.94848  0.22233  0.56035  1.0000
  I   I93       1.0  0.71283  0.65364  0.16813  1.0000
  I   I94       1.0  0.39712  0.54808  0.14804  1.0000
  I   I95       1.0  0.27385  0.00378  0.06027  1.0000
  I   I96       1.0  0.83258  0.17029  0.09318  1.0000
  I   I97       1.0  0.03924  0.55562  0.92142  1.0000
  I   I98       1.0  0.67324  0.02744  0.49291  1.0000
  I   I99       1.0  0.45920  0.18853  0.29606  1.0000
  I   I100      1.0  0.50721  0.46579  0.71271  1.0000
  I   I101      1.0  0.44764  0.52846  0.54109  1.0000
  I   I102      1.0  0.16215  0.82396  0.20585  1.0000
  I   I103      1.0  0.08756  0.87957  0.48447  1.0000
  I   I104      1.0  0.10618  0.85739  0.36736  1.0000
  I   I105      1.0  0.12969  0.92424  0.69548  1.0000
  I   I106      1.0  0.23632  0.72950  0.70128  1.0000
  I   I107      1.0  0.99903  0.85291  0.82726  1.0000
  I   I108      1.0  0.21869  0.70117  0.57356  1.0000
  I   I109      1.0  0.50357  0.81825  0.96891  1.0000
  I   I110      1.0  0.34942  0.42029  0.62604  1.0000
  I   I111      1.0  0.13889  0.03817  0.58368  1.0000
  I   I112      1.0  0.72565  0.49990  0.61718  1.0000
  I   I113      1.0  0.92900  0.46145  0.75124  1.0000
  I   I114      1.0  0.24533  0.18275  0.26983  1.0000
  I   I115      1.0  0.81529  0.00222  0.37787  1.0000
  I   I116      1.0  0.83513  0.94402  0.29710  1.0000
  I   I117      1.0  0.37434  0.13470  0.61326  1.0000
  I   I118      1.0  0.55163  0.80982  0.39005  1.0000
  I   I119      1.0  0.53245  0.89029  0.38480  1.0000
  I   I120      1.0  0.84268  0.85391  0.23923  1.0000
  I   I121      1.0  0.27650  0.48117  0.71227  1.0000
  I   I122      1.0  0.25239  0.28389  0.74557  1.0000
  I   I123      1.0  0.92952  0.32247  0.28271  1.0000
  I   I124      1.0  0.86590  0.41920  0.06598  1.0000
  I   I125      1.0  0.70334  0.58427  0.95112  1.0000
  I   I126      1.0  0.98170  0.07537  0.32220  1.0000
  I   I127      1.0  0.34140  0.80125  0.35536  1.0000
  I   I128      1.0  0.71401  0.30588  0.47543  1.0000
  I   I129      1.0  0.70047  0.03601  0.94869  1.0000
  I   I130      1.0  0.03834  0.52007  0.70068  1.0000
  I   I131      1.0  0.59462  0.84730  0.68193  1.0000
  I   I132      1.0  0.78300  0.38377  0.99848  1.0000
  I   I133      1.0  0.42875  0.25143  0.04622  1.0000
  I   I134      1.0  0.45994  0.27254  0.57604  1.0000
  I   I135      1.0  0.53009  0.16845  0.71843  1.0000
  I   I136      1.0  0.93091  0.82111  0.71140  1.0000
  I   I137      1.0  0.78708  0.82701  0.36343  1.0000
  I   I138      1.0  0.47039  0.72332  0.37592  1.0000
  I   I139      1.0  0.52573  0.61751  0.72725  1.0000
  I   I140      1.0  0.88422  0.25252  0.63291  1.0000
  I   I141      1.0  0.84168  0.60741  0.32960  1.0000
  I   I142      1.0  0.41557  0.58282  0.06878  1.0000
  I   I143      1.0  0.24292  0.00612  0.96013  1.0000
  I   I144      1.0  0.85854  0.05201  0.18795  1.0000
  I   I145      1.0  0.59508  0.06923  0.58149  1.0000
  I   I146      1.0  0.52858  0.17878  0.29149  1.0000
  I   I147      1.0  0.99492  0.62386  0.97161  1.0000
  I   I148      1.0  0.38047  0.57900  0.59653  1.0000
  I   I149      1.0  0.25885  0.71320  0.08212  1.0000
  I   I150      1.0  0.56349  0.04569  0.99555  1.0000
  I   I151      1.0  0.05195  0.88637  0.27070  1.0000
  I   I152      1.0  0.18554  0.58017  0.21084  1.0000
  I   I153      1.0  0.16293  0.89517  0.80777  1.0000
  I   I154      1.0  0.26299  0.14359  0.02338  1.0000
  I   I155      1.0  0.38980  0.35946  0.99370  1.0000
  I   I156      1.0  0.17992  0.73469  0.46828  1.0000
  I   I157      1.0  0.49425  0.77345  0.04671  1.0000
  I   I158      1.0  0.21189  0.99993  0.38051  1.0000
  I   I159      1.0  0.42979  0.73788  0.90231  1.0000
  I   I160      1.0  0.74019  0.56193  0.57306  1.0000
  I   I161      1.0  0.19483  0.21002  0.15367  1.0000
  I   I162      1.0  0.67859  0.57746  0.64812  1.0000
  I   I163      1.0  0.86001  0.98422  0.23412  1.0000
  I   I164      1.0  0.29214  0.21131  0.58265  1.0000
  I   I165      1.0  0.62227  0.36924  0.15251  1.0000
  I   I166      1.0  0.62673  0.81490  0.31413  1.0000
  I   I167      1.0  0.59448  0.84919  0.95020  1.0000
  I   I168      1.0  0.32518  0.86455  0.48384  1.0000
  I   I169      1.0  0.22656  0.33311  0.90189  1.0000
  I   I170      1.0  0.18534  0.31379  0.81744  1.0000
  I   I171      1.0  0.28663  0.44360  0.81438  1.0000
  I   I172      1.0  0.83741  0.46158  0.16065  1.0000
  I   I173      1.0  0.98250  0.07123  0.13516  1.0000
  I   I174      1.0  0.91791  0.37045  0.13004  1.0000
  I   I175      1.0  0.67148  0.36168  0.55103  1.0000
  I   I176      1.0  0.65710  0.01288  0.00603  1.0000
  I   I177      1.0  0.30009  0.76542  0.32989  1.0000
  I   I178      1.0  0.70687  0.75487  0.70362  1.0000
  I   I179      1.0  0.80183  0.37421  0.10831  1.0000
  I   I180      1.0  0.13721  0.52151  0.66029  1.0000
  I   I181      1.0  0.05296  0.20129  0.25190  1.0000
  I   I182      1.0  0.50743  0.22254  0.80264  1.0000
  I   I183      1.0  0.37216  0.31900  0.09807  1.0000
  I   I184      1.0  0.79240  0.84852  0.47762  1.0000
  I   I185      1.0  0.51883  0.67684  0.45563  1.0000
  I   I186      1.0  0.88494  0.92069  0.60021  1.0000
  I   I187      1.0  0.91136  0.17549  0.58781  1.0000
  I   I188      1.0  0.76445  0.64573  0.27117  1.0000
  I   I189      1.0  0.49093  0.60081  0.64897  1.0000
  I   I190      1.0  0.14133  0.05145  0.16050  1.0000
  I   I191      1.0  0.78153  0.15545  0.87180  1.0000
  I   I192      1.0  0.36774  0.61758  0.26453  1.0000
  I   I193      1.0  0.67314  0.04350  0.62301  1.0000
  I   I194      1.0  0.71772  0.19540  0.93450  1.0000
  I   I195      1.0  0.98336  0.57598  0.04220  1.0000
  I   I196      1.0  0.42051  0.53159  0.70057  1.0000
  I   I197      1.0  0.29361  0.15548  0.11066  1.0000
  I   I198      1.0  0.48816  0.08804  0.97146  1.0000
  I   I199      1.0  0.08430  0.92361  0.26443  1.0000
  I   I200      1.0  0.18639  0.60824  0.31567  1.0000
  I   I201      1.0  0.12521  0.86746  0.73872  1.0000
  I   I202      1.0  0.98443  0.89144  0.92733  1.0000
  I   I203      1.0  0.73442  0.34199  0.22999  1.0000
  I   I204      1.0  0.12011  0.77403  0.56348  1.0000
  I   I205      1.0  0.29468  0.39500  0.53155  1.0000
  I   I206      1.0  0.13565  0.01867  0.36498  1.0000
  I   I207      1.0  0.44761  0.76913  0.80899  1.0000
  I   I208      1.0  0.99818  0.39988  0.72593  1.0000
  I   I209      1.0  0.21476  0.25172  0.25081  1.0000
  I   I210      1.0  0.70782  0.62962  0.67683  1.0000
  I   I211      1.0  0.74331  0.08394  0.30192  1.0000
  I   I212      1.0  0.36458  0.12133  0.76718  1.0000
  I   I213      1.0  0.69150  0.30487  0.16428  1.0000
  I   I214      1.0  0.55605  0.84623  0.27149  1.0000
  I   I215      1.0  0.63778  0.81674  0.04174  1.0000
  I   I216      1.0  0.29644  0.81392  0.54614  1.0000
  I   I217      1.0  0.26564  0.26709  0.87047  1.0000
  I   I218      1.0  0.97056  0.24128  0.25692  1.0000
  I   I219      1.0  0.25622  0.53205  0.78249  1.0000
  I   I220      1.0  0.71619  0.51229  0.97884  1.0000
  I   I221      1.0  0.03458  0.09823  0.12051  1.0000
  I   I222      1.0  0.92727  0.42400  0.11364  1.0000
  I   I223      1.0  0.73743  0.35234  0.41661  1.0000
  I   I224      1.0  0.67905  0.03572  0.84443  1.0000
  I   I225      1.0  0.40751  0.80681  0.40128  1.0000
  I   I226      1.0  0.68514  0.70402  0.70539  1.0000
  I   I227      1.0  0.83968  0.31963  0.00035  1.0000
  I   I228      1.0  0.07089  0.55943  0.66070  1.0000
  I   I229      1.0  0.06526  0.18028  0.00813  1.0000
  I   I230      1.0  0.51971  0.22444  0.49092  1.0000
  I   I231      1.0  0.49492  0.22909  0.01654  1.0000
  I   I232      1.0  0.72529  0.83512  0.38715  1.0000
  I   I233      1.0  0.54898  0.69610  0.36811  1.0000
  I   I234      1.0  0.87085  0.84062  0.62288  1.0000
  I   I235      1.0  0.30579  0.07587  0.02352  1.0000
  I   I236      1.0  0.84515  0.65491  0.24161  1.0000
  I   I237      1.0  0.49010  0.65741  0.61610  1.0000
  I   I238      1.0  0.15547  0.00044  0.05242  1.0000
  I   I239      1.0  0.84681  0.07866  0.01136  1.0000
  I   I240      1.0  0.35665  0.59217  0.04297  1.0000
  I   I241      1.0  0.56704  0.02788  0.51197  1.0000
  I   I242      1.0  0.48986  0.08961  0.31927  1.0000
  I   I243      1.0  0.04963  0.57562  0.04876  1.0000
  I   I244      1.0  0.46753  0.45249  0.62441  1.0000
  I   I245      1.0  0.25067  0.71326  0.21712  1.0000
  I   I246      1.0  0.56069  0.08795  0.08692  1.0000
  I   I247      1.0  0.09125  0.92420  0.39252  1.0000
  I   I248      1.0  0.18318  0.53436  0.28984  1.0000
  I   I249      1.0  0.07650  0.92655  0.66898  1.0000
  I   I250      1.0  0.99827  0.93472  0.83029  1.0000
  I   I251      1.0  0.35203  0.41817  0.89911  1.0000
  I   I252      1.0  0.25245  0.74607  0.59426  1.0000
  I   I253      1.0  0.38644  0.38840  0.53531  1.0000
  I   I254      1.0  0.16378  0.06352  0.34633  1.0000
  I   I255      1.0  0.49627  0.70647  0.84453  1.0000
  I   I256      1.0  0.94268  0.52336  0.86819  1.0000
  I   I257      1.0  0.17597  0.19996  0.28099  1.0000
  I   I258      1.0  0.78742  0.49403  0.65150  1.0000
  I   I259      1.0  0.76288  0.07087  0.40890  1.0000
  I   I260      1.0  0.32738  0.14328  0.53499  1.0000
  I   I261      1.0  0.76310  0.27670  0.23944  1.0000
  I   I262      1.0  0.59587  0.88138  0.30929  1.0000
  I   I263      1.0  0.57457  0.87998  0.06492  1.0000
  I   I264      1.0  0.25572  0.89154  0.54351  1.0000
  I   I265      1.0  0.26165  0.39006  0.84658  1.0000
  I   I266      1.0  0.00788  0.17657  0.33011  1.0000
  I   I267      1.0  0.31856  0.49257  0.85299  1.0000
  I   I268      1.0  0.76847  0.53165  0.99384  1.0000
  I   I269      1.0  0.96679  0.04472  0.22940  1.0000
  I   I270      1.0  0.86771  0.47799  0.24692  1.0000
  I   I271      1.0  0.70941  0.39015  0.52934  1.0000
  I   I272      1.0  0.68541  0.09821  0.92970  1.0000
  I   I273      1.0  0.40589  0.79214  0.26662  1.0000
  I   I274      1.0  0.67782  0.73620  0.82926  1.0000
  I   I275      1.0  0.73911  0.37636  0.09549  1.0000
  I   I276      1.0  0.10587  0.49201  0.60789  1.0000
  I   I277      1.0  0.12132  0.17554  0.20763  1.0000
  I   I278      1.0  0.54227  0.21717  0.61413  1.0000
  I   I279      1.0  0.39006  0.25441  0.14483  1.0000
  I   I280      1.0  0.78481  0.79359  0.48419  1.0000
  I   I281      1.0  0.50854  0.64585  0.34467  1.0000
  I   I282      1.0  0.86961  0.80665  0.71857  1.0000
  I   I283      1.0  0.31093  0.08510  0.15228  1.0000
  I   I284      1.0  0.81507  0.61386  0.19117  1.0000
  I   I285      1.0  0.39985  0.65175  0.82321  1.0000
  I   I286      1.0  0.20859  0.03572  0.12523  1.0000
  I   I287      1.0  0.81164  0.15344  0.96872  1.0000
  I   I288      1.0  0.33399  0.59487  0.16396  1.0000
  I   I289      1.0  0.63519  0.00168  0.45719  1.0000
  I   I290      1.0  0.75745  0.23247  0.89993  1.0000
  I   I291      1.0  0.49861  0.13491  0.26287  1.0000
  I   I292      1.0  0.47678  0.51682  0.64131  1.0000
  I   I293      1.0  0.20211  0.70879  0.11394  1.0000
  I   I294      1.0  0.53308  0.11267  0.95936  1.0000
  I   I295      1.0  0.03075  0.89276  0.42454  1.0000
  I   I296      1.0  0.14857  0.54281  0.12642  1.0000
  I   I297      1.0  0.09086  0.98958  0.65536  1.0000
  I   I298      1.0  0.27259  0.13486  0.88519  1.0000
  I   I299      1.0  0.05143  0.85866  0.79136  1.0000
  I   I300      1.0  0.18849  0.77305  0.56085  1.0000
  I   I301      1.0  0.54190  0.75587  0.94914  1.0000
  I   I302      1.0  0.23964  0.46531  0.54961  1.0000
  I   I303      1.0  0.12601  0.09729  0.51298  1.0000
  I   I304      1.0  0.72967  0.53870  0.72428  1.0000
  I   I305      1.0  0.96937  0.45577  0.63919  1.0000
  I   I306      1.0  0.54516  0.24713  0.72576  1.0000
  I   I307      1.0  0.73112  0.03268  0.36467  1.0000
  I   I308      1.0  0.34766  0.19127  0.76148  1.0000
  I   I309      1.0  0.67458  0.35244  0.24866  1.0000
  I   I310      1.0  0.62570  0.76166  0.40333  1.0000
  I   I311      1.0  0.55910  0.94970  0.09155  1.0000
  I   I312      1.0  0.82514  0.88976  0.12462  1.0000
  I   I313      1.0  0.25888  0.56010  0.66636  1.0000
  I   I314      1.0  0.27709  0.34333  0.96194  1.0000
  I   I315      1.0  0.96621  0.31414  0.38602  1.0000
  I   I316      1.0  0.91547  0.41560  0.21830  1.0000
  I   I317      1.0  0.78490  0.46131  0.03941  1.0000
  I   I318      1.0  0.94330  0.11245  0.22391  1.0000
  I   I319      1.0  0.36395  0.85603  0.29003  1.0000
  I   I320      1.0  0.67112  0.38645  0.44542  1.0000
  I   I321      1.0  0.67614  0.09424  0.80342  1.0000
  I   I322      1.0  0.60875  0.78601  0.61879  1.0000
  I   I323      1.0  0.71125  0.41656  0.98583  1.0000
  I   I324      1.0  0.17545  0.46936  0.72955  1.0000
  I   I325      1.0  0.11310  0.19568  0.07628  1.0000
  I   I326      1.0  0.57184  0.18588  0.77367  1.0000
  I   I327      1.0  0.51336  0.22784  0.13125  1.0000
  I   I328      1.0  0.72144  0.86599  0.49466  1.0000
  I   I329      1.0  0.52567  0.75385  0.43609  1.0000
  I   I330      1.0  0.85631  0.89849  0.68071  1.0000
  I   I331      1.0  0.38629  0.66351  0.68317  1.0000
  I   I332      1.0  0.35327  0.09543  0.07679  1.0000
  I   I333      1.0  0.75236  0.68963  0.17840  1.0000
  I   I334      1.0  0.35581  0.64816  0.14098  1.0000
  I   I335      1.0  0.22400  0.97508  0.07365  1.0000
  I   I336      1.0  0.80633  0.11256  0.11386  1.0000
  I   I337      1.0  0.58884  0.05758  0.44772  1.0000
  I   I338      1.0  0.76336  0.19241  0.02398  1.0000
  I   I339      1.0  0.47621  0.17105  0.40870  1.0000
  I   I340      1.0  0.44586  0.58240  0.58279  1.0000
  I   I341      1.0  0.20587  0.77803  0.06774  1.0000
  I   I342      1.0  0.44216  0.05957  0.01030  1.0000
  I   I343      1.0  0.03293  0.93961  0.35431  1.0000
  I   I344      1.0  0.12084  0.58834  0.22810  1.0000
  I   I345      1.0  0.03148  0.98937  0.71919  1.0000
  I   I346      1.0  0.32665  0.13203  0.90849  1.0000
  I   I347      1.0  0.04498  0.88808  0.90007  1.0000
  I   I348      1.0  0.17315  0.73418  0.64648  1.0000
  I   I349      1.0  0.44595  0.78239  0.95078  1.0000
  I   I350      1.0  0.36632  0.46317  0.52328  1.0000
  I   I351      1.0  0.09920  0.05746  0.48223  1.0000
  I   I352      1.0  0.71659  0.59082  0.78395  1.0000
  I   I353      1.0  0.97191  0.49681  0.74247  1.0000
  I   I354      1.0  0.62507  0.18740  0.80510  1.0000
  I   I355      1.0  0.80582  0.04138  0.28532  1.0000
  I   I356      1.0  0.35533  0.19555  0.61388  1.0000
  I   I357      1.0  0.67343  0.38790  0.14175  1.0000
  I   I358      1.0  0.32277  0.85234  0.61099  1.0000
  I   I359      1.0  0.61125  0.93951  0.99940  1.0000
  I   I360      1.0  0.87113  0.80382  0.14016  1.0000
  I   I361      1.0  0.30067  0.55499  0.76707  1.0000
  I   I362      1.0  0.24125  0.34630  0.80472  1.0000
  I   I363      1.0  0.95114  0.19609  0.32844  1.0000
  I   I364      1.0  0.85546  0.40536  0.20346  1.0000
  I   I365      1.0  0.73581  0.54121  0.11247  1.0000
  I   I366      1.0  0.97078  0.13820  0.10587  1.0000
  I   I367      1.0  0.34594  0.80319  0.23619  1.0000
  I   I368      1.0  0.66123  0.45013  0.40471  1.0000
  I   I369      1.0  0.62115  0.05710  0.91470  1.0000
  I   I370      1.0  0.62296  0.75798  0.74344  1.0000
  I   I371      1.0  0.73413  0.35608  0.93553  1.0000
  I   I372      1.0  0.16197  0.43204  0.62287  1.0000
  I   I373      1.0  0.07159  0.24730  0.18151  1.0000
  I   I374      1.0  0.47946  0.20057  0.55120  1.0000
  I   I375      1.0  0.45689  0.28444  0.12140  1.0000
  I   I376      1.0  0.84201  0.75598  0.40546  1.0000
  I   I377      1.0  0.58327  0.68297  0.49057  1.0000
  I   I378      1.0  0.91880  0.86135  0.56182  1.0000
  I   I379      1.0  0.44146  0.60411  0.73197  1.0000
  I   I380      1.0  0.94974  0.20509  0.67891  1.0000
  I   I381      1.0  0.79225  0.68607  0.30660  1.0000
  I   I382      1.0  0.34337  0.57418  0.28300  1.0000
  I   I383      1.0  0.18697  0.05284  0.01680  1.0000
  I   I384      1.0  0.83075  0.03951  0.07855  1.0000
