data_image0
_chemical_formula_structural       Ti96I384
_chemical_formula_sum              "Ti96 I384"
_cell_length_a       78.4429
_cell_length_b       78.3144
_cell_length_c       38.3539
_cell_angle_alpha    88.7757
_cell_angle_beta     88.7757
_cell_angle_gamma    62.1586

_space_group_name_H-M_alt    "P 1"
_space_group_IT_number       1

loop_
  _space_group_symop_operation_xyz
  'x, y, z'

loop_
  _atom_site_type_symbol
  _atom_site_label
  _atom_site_symmetry_multiplicity
  _atom_site_fract_x
  _atom_site_fract_y
  _atom_site_fract_z
  _atom_site_occupancy
  Ti  Ti1       1.0  0.60878  0.75725  0.02048  1.0000
  Ti  Ti2       1.0  0.61117  0.85463  0.40939  1.0000
  Ti  Ti3       1.0  0.11980  0.08429  0.49725  1.0000
  Ti  Ti4       1.0  0.36082  0.90418  0.93062  1.0000
  Ti  Ti5       1.0  0.78434  0.02833  0.66201  1.0000
  Ti  Ti6       1.0  0.35522  0.86492  0.17809  1.0000
  Ti  Ti7       1.0  0.61437  0.00731  0.49319  1.0000
  Ti  Ti8       1.0  0.80107  0.29130  0.41909  1.0000
  Ti  Ti9       1.0  0.06389  0.12221  0.68419  1.0000
  Ti  Ti10      1.0  0.87288  0.44652  0.41561  1.0000
  Ti  Ti11      1.0  0.96723  0.93074  0.74177  1.0000
  Ti  Ti12      1.0  0.24353  0.84434  0.07595  1.0000
  Ti  Ti13      1.0  0.56907  0.73849  0.60159  1.0000
  Ti  Ti14      1.0  0.36489  0.86943  0.98035  1.0000
  Ti  Ti15      1.0  0.98164  0.10761  0.76458  1.0000
  Ti  Ti16      1.0  0.95490  0.23580  0.27706  1.0000
  Ti  Ti17      1.0  0.19853  0.18653  0.22172  1.0000
  Ti  Ti18      1.0  0.68946  0.25833  0.29327  1.0000
  Ti  Ti19      1.0  0.28467  0.03576  0.42168  1.0000
  Ti  Ti20      1.0  0.13869  0.39967  0.66820  1.0000
  Ti  Ti21      1.0  0.79280  0.27284  0.34748  1.0000
  Ti  Ti22      1.0  0.55537  0.40940  0.36806  1.0000
  Ti  Ti23      1.0  0.34722  0.32635  0.05735  1.0000
  Ti  Ti24      1.0  0.48864  0.40018  0.59938  1.0000
  Ti  Ti25      1.0  0.74706  0.21605  0.52712  1.0000
  Ti  Ti26      1.0  0.17270  0.79466  0.94420  1.0000
  Ti  Ti27      1.0  0.81652  0.79836  0.24169  1.0000
  Ti  Ti28      1.0  0.46600  0.91273  0.44395  1.0000
  Ti  Ti29      1.0  0.06782  0.86497  0.79097  1.0000
  Ti  Ti30      1.0  0.23680  0.64391  0.33084  1.0000
  Ti  Ti31      1.0  0.87574  0.01547  0.51798  1.0000
  Ti  Ti32      1.0  0.31470  0.00184  0.66784  1.0000
  Ti  Ti33      1.0  0.61735  0.24769  0.07785  1.0000
  Ti  Ti34      1.0  0.05665  0.42309  0.43251  1.0000
  Ti  Ti35      1.0  0.60066  0.13411  0.83645  1.0000
  Ti  Ti36      1.0  0.77358  0.03698  0.08400  1.0000
  Ti  Ti37      1.0  0.53010  0.96592  0.72367  1.0000
  Ti  Ti38      1.0  0.50443  0.55925  0.58592  1.0000
  Ti  Ti39      1.0  0.89755  0.46473  0.36216  1.0000
  Ti  Ti40      1.0  0.71024  0.62976  0.01210  1.0000
  Ti  Ti41      1.0  0.42605  0.54122  0.30129  1.0000
  Ti  Ti42      1.0  0.09072  0.52301  0.30792  1.0000
  Ti  Ti43      1.0  0.35939  0.70996  0.69274  1.0000
  Ti  Ti44      1.0  0.99152  0.28979  0.67093  1.0000
  Ti  Ti45      1.0  0.93633  0.30442  0.73526  1.0000
  Ti  Ti46      1.0  0.74269  0.58960  0.77567  1.0000
  Ti  Ti47      1.0  0.64421  0.29014  0.70734  1.0000
  Ti  Ti48      1.0  0.75407  0.78907  0.72873  1.0000
  Ti  Ti49      1.0  0.06157  0.85012  0.30211  1.0000
  Ti  Ti50      1.0  0.08265  0.41324  0.67349  1.0000
  Ti  Ti51      1.0  0.59600  0.85397  0.50968  1.0000
  Ti  Ti52      1.0  0.34571  0.73616  0.32647  1.0000
  Ti  Ti53      1.0  0.89033  0.82929  0.37268  1.0000
  Ti  Ti54      1.0  0.49786  0.85633  0.85571  1.0000
  Ti  Ti55      1.0  0.68332  0.57611  0.35385  1.0000
  Ti  Ti56      1.0  0.69906  0.13614  0.56936  1.0000
  Ti  Ti57      1.0  0.09725  0.13347  0.70514  1.0000
  Ti  Ti58      1.0  0.55120  0.20341  0.38872  1.0000
  Ti  Ti59      1.0  0.00165  0.19512  0.31315  1.0000
  Ti  Ti60      1.0  0.09853  0.31917  0.44773  1.0000
  Ti  Ti61      1.0  0.49560  0.22806  0.62546  1.0000
  Ti  Ti62      1.0  0.57573  0.69663  0.67106  1.0000
  Ti  Ti63      1.0  0.05826  0.78939  0.09605  1.0000
  Ti  Ti64      1.0  0.66562  0.26141  0.37084  1.0000
  Ti  Ti65      1.0  0.78079  0.60807  0.03522  1.0000
  Ti  Ti66      1.0  0.42932  0.89635  0.41163  1.0000
  Ti  Ti67      1.0  0.07145  0.64774  0.71663  1.0000
  Ti  Ti68      1.0  0.80360  0.57774  0.78925  1.0000
  Ti  Ti69      1.0  0.17250  0.83635  0.00776  1.0000
  Ti  Ti70      1.0  0.35576  0.27941  0.60215  1.0000
  Ti  Ti71      1.0  0.43564  0.73620  0.02745  1.0000
  Ti  Ti72      1.0  0.63202  0.27398  0.61812  1.0000
  Ti  Ti73      1.0  0.51772  0.29922  0.50674  1.0000
  Ti  Ti74      1.0  0.78965  0.19507  0.54094  1.0000
  Ti  Ti75      1.0  0.68872  0.78224  0.30888  1.0000
  Ti  Ti76      1.0  0.01969  0.02075  0.99071  1.0000
  Ti  Ti77      1.0  0.96354  0.14360  0.67274  1.0000
  Ti  Ti78      1.0  0.09490  0.85382  0.69967  1.0000
  Ti  Ti79      1.0  0.56636  0.99087  0.14991  1.0000
  Ti  Ti80      1.0  0.02985  0.62034  0.62906  1.0000
  Ti  Ti81      1.0  0.30864  0.35938  0.03402  1.0000
  Ti  Ti82      1.0  0.70678  0.46560  0.48953  1.0000
  Ti  Ti83      1.0  0.90851  0.30817  0.81025  1.0000
  Ti  Ti84      1.0  0.72205  0.07847  0.04783  1.0000
  Ti  Ti85      1.0  0.47047  0.97912  0.71650  1.0000
  Ti  Ti86      1.0  0.58678  0.02769  0.59526  1.0000
  Ti  Ti87      1.0  0.48715  0.87052  0.70424  1.0000
  Ti  Ti88      1.0  0.90688  0.13226  0.11690  1.0000
  Ti  Ti89      1.0  0.08524  0.25770  0.06075  1.0000
  Ti  Ti90      1.0  0.15836  0.20442  0.24697  1.0000
  Ti  Ti91      1.0  0.59116  0.43763  0.79569  1.0000
  Ti  Ti92      1.0  0.61948  0.58419  0.79569  1.0000
  Ti  Ti93      1.0  0.45759  0.73726  0.76464  1.0000
  Ti  Ti94      1.0  0.71641  0.81166  0.73763  1.0000
  Ti  Ti95      1.0  0.90156  0.97696  0.05315  1.0000
  Ti  Ti96      1.0  0.40927  0.31058  0.87410  1.0000
  I   I1        1.0  0.61223  0.31213  0.67429  1.0000
  I   I2        1.0  0.58021  0.88504  0.54211  1.0000
  I   I3        1.0  0.07530  0.85000  0.36394  1.0000
  I   I4        1.0  0.91661  0.80046  0.42067  1.0000
  I   I5        1.0  0.34611  0.89869  0.15120  1.0000
  I   I6        1.0  0.46602  0.86755  0.82372  1.0000
  I   I7        1.0  0.77575  0.25057  0.32290  1.0000
  I   I8        1.0  0.73398  0.13507  0.56492  1.0000
  I   I9        1.0  0.05844  0.09883  0.72390  1.0000
  I   I10       1.0  0.69863  0.65662  0.05498  1.0000
  I   I11       1.0  0.95590  0.90507  0.74108  1.0000
  I   I12       1.0  0.76418  0.03630  0.60583  1.0000
  I   I13       1.0  0.56104  0.71674  0.73149  1.0000
  I   I14       1.0  0.07487  0.76166  0.14621  1.0000
  I   I15       1.0  0.96182  0.08699  0.77925  1.0000
  I   I16       1.0  0.71979  0.64691  0.95782  1.0000
  I   I17       1.0  0.45254  0.87064  0.37752  1.0000
  I   I18       1.0  0.71786  0.26100  0.25605  1.0000
  I   I19       1.0  0.06380  0.81778  0.10619  1.0000
  I   I20       1.0  0.96344  0.96296  0.71482  1.0000
  I   I21       1.0  0.81556  0.29683  0.35211  1.0000
  I   I22       1.0  0.37386  0.33792  0.06070  1.0000
  I   I23       1.0  0.94396  0.12521  0.12618  1.0000
  I   I24       1.0  0.34088  0.27662  0.66565  1.0000
  I   I25       1.0  0.74032  0.25016  0.53251  1.0000
  I   I26       1.0  0.67274  0.75988  0.31826  1.0000
  I   I27       1.0  0.58613  0.16813  0.80706  1.0000
  I   I28       1.0  0.48863  0.89368  0.38819  1.0000
  I   I29       1.0  0.07079  0.83965  0.68984  1.0000
  I   I30       1.0  0.20059  0.66744  0.32254  1.0000
  I   I31       1.0  0.05742  0.58653  0.64715  1.0000
  I   I32       1.0  0.30500  0.39111  0.99922  1.0000
  I   I33       1.0  0.60106  0.99174  0.13227  1.0000
  I   I34       1.0  0.63812  0.11899  0.84807  1.0000
  I   I35       1.0  0.69342  0.11224  0.06084  1.0000
  I   I36       1.0  0.07599  0.38798  0.40267  1.0000
  I   I37       1.0  0.47120  0.99520  0.77272  1.0000
  I   I38       1.0  0.84630  0.46199  0.46288  1.0000
  I   I39       1.0  0.56564  0.94809  0.70526  1.0000
  I   I40       1.0  0.00218  0.25819  0.63150  1.0000
  I   I41       1.0  0.09805  0.37583  0.65829  1.0000
  I   I42       1.0  0.68876  0.61142  0.02036  1.0000
  I   I43       1.0  0.58452  0.19804  0.40773  1.0000
  I   I44       1.0  0.95509  0.26592  0.72098  1.0000
  I   I45       1.0  0.91096  0.31980  0.87104  1.0000
  I   I46       1.0  0.86527  0.99871  0.03100  1.0000
  I   I47       1.0  0.64362  0.29050  0.77063  1.0000
  I   I48       1.0  0.73378  0.76782  0.75987  1.0000
  I   I49       1.0  0.02941  0.84862  0.30494  1.0000
  I   I50       1.0  0.60722  0.88206  0.36334  1.0000
  I   I51       1.0  0.64790  0.83442  0.41866  1.0000
  I   I52       1.0  0.01097  0.65026  0.67747  1.0000
  I   I53       1.0  0.89377  0.85808  0.34274  1.0000
  I   I54       1.0  0.52529  0.82720  0.82438  1.0000
  I   I55       1.0  0.57347  0.02066  0.52354  1.0000
  I   I56       1.0  0.78742  0.26796  0.43437  1.0000
  I   I57       1.0  0.92952  0.94924  0.09197  1.0000
  I   I58       1.0  0.89420  0.49914  0.36937  1.0000
  I   I59       1.0  0.99437  0.23096  0.29818  1.0000
  I   I60       1.0  0.07516  0.32049  0.49707  1.0000
  I   I61       1.0  0.59502  0.71695  0.66145  1.0000
  I   I62       1.0  0.54009  0.77175  0.57255  1.0000
  I   I63       1.0  0.15554  0.39101  0.60723  1.0000
  I   I64       1.0  0.99269  0.16655  0.31549  1.0000
  I   I65       1.0  0.74297  0.60672  0.03034  1.0000
  I   I66       1.0  0.46841  0.87799  0.46167  1.0000
  I   I67       1.0  0.25410  0.05913  0.45443  1.0000
  I   I68       1.0  0.11580  0.39628  0.71992  1.0000
  I   I69       1.0  0.19822  0.80993  0.95574  1.0000
  I   I70       1.0  0.38952  0.25720  0.62580  1.0000
  I   I71       1.0  0.35126  0.29985  0.00840  1.0000
  I   I72       1.0  0.59956  0.27300  0.61358  1.0000
  I   I73       1.0  0.83263  0.79872  0.30005  1.0000
  I   I74       1.0  0.18789  0.78474  0.88439  1.0000
  I   I75       1.0  0.13826  0.79747  0.92927  1.0000
  I   I76       1.0  0.99652  0.10291  0.69600  1.0000
  I   I77       1.0  0.96349  0.13523  0.80677  1.0000
  I   I78       1.0  0.86027  0.00145  0.47356  1.0000
  I   I79       1.0  0.60478  0.22186  0.06015  1.0000
  I   I80       1.0  0.58985  0.74005  0.98854  1.0000
  I   I81       1.0  0.29526  0.99373  0.62468  1.0000
  I   I82       1.0  0.69335  0.50183  0.46012  1.0000
  I   I83       1.0  0.91153  0.27419  0.82864  1.0000
  I   I84       1.0  0.79173  0.05084  0.12944  1.0000
  I   I85       1.0  0.44103  0.00894  0.68785  1.0000
  I   I86       1.0  0.39802  0.92419  0.38225  1.0000
  I   I87       1.0  0.93344  0.45402  0.38185  1.0000
  I   I88       1.0  0.89071  0.46882  0.44476  1.0000
  I   I89       1.0  0.02906  0.43820  0.37917  1.0000
  I   I90       1.0  0.07157  0.44432  0.71094  1.0000
  I   I91       1.0  0.56150  0.43038  0.79679  1.0000
  I   I92       1.0  0.59834  0.57985  0.75116  1.0000
  I   I93       1.0  0.97338  0.30329  0.60835  1.0000
  I   I94       1.0  0.72771  0.79152  0.67441  1.0000
  I   I95       1.0  0.75429  0.60236  0.71697  1.0000
  I   I96       1.0  0.59194  0.38422  0.37173  1.0000
  I   I97       1.0  0.10780  0.09781  0.56008  1.0000
  I   I98       1.0  0.61679  0.74251  0.08094  1.0000
  I   I99       1.0  0.57571  0.86529  0.43088  1.0000
  I   I100      1.0  0.32733  0.88508  0.99844  1.0000
  I   I101      1.0  0.88208  0.15664  0.15808  1.0000
  I   I102      1.0  0.80972  0.04113  0.66602  1.0000
  I   I103      1.0  0.61411  0.99566  0.62622  1.0000
  I   I104      1.0  0.65287  0.61394  0.34088  1.0000
  I   I105      1.0  0.10177  0.09866  0.67909  1.0000
  I   I106      1.0  0.25664  0.82012  0.12710  1.0000
  I   I107      1.0  0.87285  0.41169  0.39650  1.0000
  I   I108      1.0  0.27389  0.82732  0.03695  1.0000
  I   I109      1.0  0.01168  0.09442  0.80639  1.0000
  I   I110      1.0  0.57657  0.70911  0.56231  1.0000
  I   I111      1.0  0.14236  0.42515  0.70315  1.0000
  I   I112      1.0  0.62779  0.28514  0.38162  1.0000
  I   I113      1.0  0.79745  0.58609  0.97931  1.0000
  I   I114      1.0  0.21559  0.20798  0.18890  1.0000
  I   I115      1.0  0.08889  0.61424  0.68635  1.0000
  I   I116      1.0  0.04079  0.67461  0.67983  1.0000
  I   I117      1.0  0.83417  0.58659  0.78134  1.0000
  I   I118      1.0  0.37146  0.33838  0.88004  1.0000
  I   I119      1.0  0.05731  0.63773  0.77044  1.0000
  I   I120      1.0  0.66144  0.28200  0.63114  1.0000
  I   I121      1.0  0.52368  0.26495  0.48823  1.0000
  I   I122      1.0  0.73225  0.21079  0.47207  1.0000
  I   I123      1.0  0.71854  0.76572  0.26733  1.0000
  I   I124      1.0  0.26123  0.62198  0.37687  1.0000
  I   I125      1.0  0.02253  0.01502  0.92497  1.0000
  I   I126      1.0  0.08291  0.86981  0.63456  1.0000
  I   I127      1.0  0.62404  0.24584  0.14391  1.0000
  I   I128      1.0  0.38612  0.85480  0.03782  1.0000
  I   I129      1.0  0.29725  0.34641  0.98763  1.0000
  I   I130      1.0  0.70283  0.07933  0.98263  1.0000
  I   I131      1.0  0.70591  0.48137  0.54787  1.0000
  I   I132      1.0  0.58268  0.13954  0.89449  1.0000
  I   I133      1.0  0.89455  0.46903  0.29326  1.0000
  I   I134      1.0  0.49207  0.59637  0.58846  1.0000
  I   I135      1.0  0.40785  0.89110  0.46073  1.0000
  I   I136      1.0  0.12329  0.49073  0.28577  1.0000
  I   I137      1.0  0.36630  0.74431  0.27811  1.0000
  I   I138      1.0  0.05080  0.27852  0.03468  1.0000
  I   I139      1.0  0.58955  0.44856  0.85764  1.0000
  I   I140      1.0  0.65482  0.57267  0.77581  1.0000
  I   I141      1.0  0.47953  0.73667  0.81875  1.0000
  I   I142      1.0  0.67987  0.83742  0.72320  1.0000
  I   I143      1.0  0.14287  0.05145  0.54365  1.0000
  I   I144      1.0  0.54655  0.43069  0.31415  1.0000
  I   I145      1.0  0.64429  0.73428  0.00450  1.0000
  I   I146      1.0  0.60873  0.88143  0.46109  1.0000
  I   I147      1.0  0.09854  0.11392  0.45829  1.0000
  I   I148      1.0  0.34396  0.70395  0.31797  1.0000
  I   I149      1.0  0.80590  0.99313  0.65239  1.0000
  I   I150      1.0  0.32224  0.86571  0.20276  1.0000
  I   I151      1.0  0.67267  0.56497  0.41098  1.0000
  I   I152      1.0  0.79249  0.33166  0.43182  1.0000
  I   I153      1.0  0.08387  0.15823  0.76569  1.0000
  I   I154      1.0  0.34137  0.73085  0.74675  1.0000
  I   I155      1.0  0.97818  0.92460  0.81246  1.0000
  I   I156      1.0  0.12146  0.32052  0.49317  1.0000
  I   I157      1.0  0.98709  0.13493  0.61900  1.0000
  I   I158      1.0  0.01750  0.81900  0.09379  1.0000
  I   I159      1.0  0.49853  0.19621  0.65263  1.0000
  I   I160      1.0  0.65368  0.25804  0.30762  1.0000
  I   I161      1.0  0.17376  0.23209  0.24914  1.0000
  I   I162      1.0  0.66174  0.28130  0.24323  1.0000
  I   I163      1.0  0.30552  0.99895  0.43360  1.0000
  I   I164      1.0  0.72548  0.57567  0.72851  1.0000
  I   I165      1.0  0.79059  0.27743  0.28014  1.0000
  I   I166      1.0  0.41456  0.34063  0.85911  1.0000
  I   I167      1.0  0.34242  0.34463  0.98372  1.0000
  I   I168      1.0  0.49990  0.37841  0.54880  1.0000
  I   I169      1.0  0.77599  0.22075  0.59823  1.0000
  I   I170      1.0  0.77608  0.21383  0.47666  1.0000
  I   I171      1.0  0.83461  0.80731  0.18766  1.0000
  I   I172      1.0  0.01841  0.99008  0.01855  1.0000
  I   I173      1.0  0.09943  0.82986  0.76920  1.0000
  I   I174      1.0  0.23609  0.61971  0.28490  1.0000
  I   I175      1.0  0.91034  0.00633  0.48867  1.0000
  I   I176      1.0  0.33609  0.97578  0.71382  1.0000
  I   I177      1.0  0.54946  0.01429  0.09893  1.0000
  I   I178      1.0  0.73384  0.47132  0.45170  1.0000
  I   I179      1.0  0.90700  0.29716  0.70302  1.0000
  I   I180      1.0  0.73966  0.07104  0.11772  1.0000
  I   I181      1.0  0.52579  0.98386  0.78246  1.0000
  I   I182      1.0  0.56679  0.01043  0.60609  1.0000
  I   I183      1.0  0.48722  0.89293  0.65305  1.0000
  I   I184      1.0  0.89220  0.13345  0.05071  1.0000
  I   I185      1.0  0.08315  0.26697  0.12708  1.0000
  I   I186      1.0  0.06020  0.55265  0.33471  1.0000
  I   I187      1.0  0.60310  0.61634  0.83097  1.0000
  I   I188      1.0  0.00652  0.27161  0.72795  1.0000
  I   I189      1.0  0.49992  0.88281  0.75083  1.0000
  I   I190      1.0  0.72809  0.59416  0.83366  1.0000
  I   I191      1.0  0.13618  0.22811  0.29642  1.0000
  I   I192      1.0  0.14309  0.07096  0.43902  1.0000
  I   I193      1.0  0.08612  0.88328  0.74431  1.0000
  I   I194      1.0  0.10412  0.42461  0.62913  1.0000
  I   I195      1.0  0.10485  0.06001  0.48634  1.0000
  I   I196      1.0  0.34176  0.89366  0.88981  1.0000
  I   I197      1.0  0.53371  0.20784  0.44720  1.0000
  I   I198      1.0  0.36671  0.83428  0.13826  1.0000
  I   I199      1.0  0.33437  0.01630  0.63461  1.0000
  I   I200      1.0  0.70588  0.10659  0.53443  1.0000
  I   I201      1.0  0.06519  0.10738  0.61896  1.0000
  I   I202      1.0  0.93002  0.23719  0.23435  1.0000
  I   I203      1.0  0.14578  0.83567  0.96755  1.0000
  I   I204      1.0  0.20794  0.86071  0.08173  1.0000
  I   I205      1.0  0.55971  0.67269  0.69832  1.0000
  I   I206      1.0  0.38086  0.91922  0.89154  1.0000
  I   I207      1.0  0.93434  0.15470  0.63409  1.0000
  I   I208      1.0  0.94940  0.22366  0.34198  1.0000
  I   I209      1.0  0.22878  0.15501  0.19211  1.0000
  I   I210      1.0  0.59747  0.95268  0.13881  1.0000
  I   I211      1.0  0.35066  0.31572  0.61030  1.0000
  I   I212      1.0  0.09515  0.76274  0.05661  1.0000
  I   I213      1.0  0.17841  0.86638  0.99635  1.0000
  I   I214      1.0  0.55337  0.43459  0.41403  1.0000
  I   I215      1.0  0.31860  0.33215  0.09299  1.0000
  I   I216      1.0  0.42442  0.75449  0.73661  1.0000
  I   I217      1.0  0.71737  0.21780  0.56731  1.0000
  I   I218      1.0  0.68344  0.80547  0.36218  1.0000
  I   I219      1.0  0.54118  0.29485  0.55755  1.0000
  I   I220      1.0  0.94492  0.13450  0.72715  1.0000
  I   I221      1.0  0.08007  0.86335  0.85454  1.0000
  I   I222      1.0  0.04918  0.01610  0.04414  1.0000
  I   I223      1.0  0.85180  0.04751  0.55273  1.0000
  I   I224      1.0  0.28769  0.01450  0.71975  1.0000
  I   I225      1.0  0.64816  0.22850  0.03450  1.0000
  I   I226      1.0  0.73138  0.43513  0.52381  1.0000
  I   I227      1.0  0.58595  0.11116  0.82856  1.0000
  I   I228      1.0  0.80237  0.02960  0.03803  1.0000
  I   I229      1.0  0.52684  0.22702  0.34325  1.0000
  I   I230      1.0  0.53587  0.54244  0.62830  1.0000
  I   I231      1.0  0.91031  0.42814  0.37524  1.0000
  I   I232      1.0  0.38075  0.90055  0.99124  1.0000
  I   I233      1.0  0.42858  0.56036  0.35031  1.0000
  I   I234      1.0  0.20964  0.18898  0.28558  1.0000
  I   I235      1.0  0.39130  0.71327  0.71889  1.0000
  I   I236      1.0  0.43820  0.72179  0.80584  1.0000
  I   I237      1.0  0.57686  0.47023  0.76123  1.0000
  I   I238      1.0  0.87960  0.98673  0.11312  1.0000
  I   I239      1.0  0.42598  0.28782  0.82112  1.0000
  I   I240      1.0  0.77155  0.78993  0.78465  1.0000
  I   I241      1.0  0.60466  0.79136  0.02974  1.0000
  I   I242      1.0  0.61356  0.82931  0.35769  1.0000
  I   I243      1.0  0.76745  0.60592  0.81043  1.0000
  I   I244      1.0  0.90534  0.09954  0.12419  1.0000
  I   I245      1.0  0.90041  0.79184  0.33860  1.0000
  I   I246      1.0  0.38293  0.85943  0.22319  1.0000
  I   I247      1.0  0.60500  0.02590  0.43033  1.0000
  I   I248      1.0  0.76790  0.30913  0.38685  1.0000
  I   I249      1.0  0.13192  0.12642  0.70738  1.0000
  I   I250      1.0  0.02705  0.19064  0.26668  1.0000
  I   I251      1.0  0.99643  0.90619  0.71030  1.0000
  I   I252      1.0  0.07474  0.33703  0.39612  1.0000
  I   I253      1.0  0.53938  0.72822  0.64183  1.0000
  I   I254      1.0  0.38602  0.86752  0.92362  1.0000
  I   I255      1.0  0.52892  0.21812  0.59369  1.0000
  I   I256      1.0  0.77814  0.60590  0.10507  1.0000
  I   I257      1.0  0.51520  0.94601  0.75430  1.0000
  I   I258      1.0  0.67520  0.28870  0.33764  1.0000
  I   I259      1.0  0.10212  0.65477  0.70627  1.0000
  I   I260      1.0  0.81869  0.54982  0.84009  1.0000
  I   I261      1.0  0.82594  0.24479  0.34724  1.0000
  I   I262      1.0  0.53894  0.38919  0.35388  1.0000
  I   I263      1.0  0.42868  0.77154  0.04466  1.0000
  I   I264      1.0  0.78491  0.00525  0.11761  1.0000
  I   I265      1.0  0.77089  0.17192  0.52075  1.0000
  I   I266      1.0  0.17434  0.77632  0.00129  1.0000
  I   I267      1.0  0.48229  0.32644  0.51494  1.0000
  I   I268      1.0  0.48056  0.91915  0.49588  1.0000
  I   I269      1.0  0.13399  0.83509  0.69251  1.0000
  I   I270      1.0  0.43075  0.93944  0.46742  1.0000
  I   I271      1.0  0.88221  0.98797  0.56279  1.0000
  I   I272      1.0  0.27344  0.38163  0.05680  1.0000
  I   I273      1.0  0.60409  0.28423  0.06668  1.0000
  I   I274      1.0  0.41676  0.55479  0.23757  1.0000
  I   I275      1.0  0.82637  0.76015  0.23777  1.0000
  I   I276      1.0  0.73869  0.10002  0.01759  1.0000
  I   I277      1.0  0.68937  0.44784  0.47380  1.0000
  I   I278      1.0  0.52071  0.55078  0.53000  1.0000
  I   I279      1.0  0.01729  0.30106  0.64528  1.0000
  I   I280      1.0  0.36007  0.73170  0.38917  1.0000
  I   I281      1.0  0.46475  0.52411  0.29235  1.0000
  I   I282      1.0  0.07123  0.50307  0.29951  1.0000
  I   I283      1.0  0.36767  0.67366  0.70659  1.0000
  I   I284      1.0  0.45136  0.41750  0.61116  1.0000
  I   I285      1.0  0.45087  0.88607  0.71659  1.0000
  I   I286      1.0  0.91728  0.98333  0.00027  1.0000
  I   I287      1.0  0.65692  0.24582  0.57678  1.0000
  I   I288      1.0  0.74008  0.82822  0.72209  1.0000
  I   I289      1.0  0.33441  0.72295  0.64409  1.0000
  I   I290      1.0  0.16856  0.20822  0.18353  1.0000
  I   I291      1.0  0.58105  0.83555  0.53802  1.0000
  I   I292      1.0  0.32522  0.74168  0.26467  1.0000
  I   I293      1.0  0.85904  0.84622  0.40969  1.0000
  I   I294      1.0  0.49249  0.83050  0.89320  1.0000
  I   I295      1.0  0.65197  0.99368  0.49259  1.0000
  I   I296      1.0  0.69870  0.12856  0.63590  1.0000
  I   I297      1.0  0.07686  0.15483  0.64854  1.0000
  I   I298      1.0  0.55431  0.17135  0.36454  1.0000
  I   I299      1.0  0.94323  0.27169  0.29267  1.0000
  I   I300      1.0  0.47193  0.72095  0.70794  1.0000
  I   I301      1.0  0.48598  0.26065  0.66014  1.0000
  I   I302      1.0  0.60186  0.73828  0.58578  1.0000
  I   I303      1.0  0.76890  0.64610  0.01837  1.0000
  I   I304      1.0  0.70300  0.23002  0.35709  1.0000
  I   I305      1.0  0.01941  0.18370  0.37460  1.0000
  I   I306      1.0  0.61005  0.98165  0.46088  1.0000
  I   I307      1.0  0.27237  0.04378  0.36008  1.0000
  I   I308      1.0  0.17040  0.36582  0.68679  1.0000
  I   I309      1.0  0.84062  0.27133  0.43416  1.0000
  I   I310      1.0  0.08432  0.81514  0.27153  1.0000
  I   I311      1.0  0.42032  0.72519  0.98228  1.0000
  I   I312      1.0  0.64802  0.25468  0.70630  1.0000
  I   I313      1.0  0.52769  0.31591  0.45743  1.0000
  I   I314      1.0  0.82228  0.16450  0.54034  1.0000
  I   I315      1.0  0.66773  0.80880  0.26592  1.0000
  I   I316      1.0  0.98757  0.05355  0.00277  1.0000
  I   I317      1.0  0.43817  0.92565  0.38872  1.0000
  I   I318      1.0  0.04221  0.90296  0.81493  1.0000
  I   I319      1.0  0.55464  0.02044  0.19213  1.0000
  I   I320      1.0  0.33857  0.94274  0.93827  1.0000
  I   I321      1.0  0.71448  0.57993  0.35665  1.0000
  I   I322      1.0  0.03324  0.41893  0.46880  1.0000
  I   I323      1.0  0.95550  0.30960  0.78440  1.0000
  I   I324      1.0  0.75228  0.03931  0.03156  1.0000
  I   I325      1.0  0.50017  0.98461  0.67541  1.0000
  I   I326      1.0  0.60669  0.03610  0.54486  1.0000
  I   I327      1.0  0.94860  0.32142  0.68663  1.0000
  I   I328      1.0  0.86019  0.47496  0.36493  1.0000
  I   I329      1.0  0.09955  0.26137  0.99786  1.0000
  I   I330      1.0  0.12898  0.20260  0.21841  1.0000
  I   I331      1.0  0.48462  0.83870  0.70001  1.0000
  I   I332      1.0  0.17961  0.16472  0.24133  1.0000
  I   I333      1.0  0.08696  0.42616  0.46110  1.0000
  I   I334      1.0  0.71121  0.82251  0.80230  1.0000
  I   I335      1.0  0.80851  0.56931  0.72248  1.0000
  I   I336      1.0  0.41818  0.27981  0.91281  1.0000
  I   I337      1.0  0.05551  0.88164  0.26325  1.0000
  I   I338      1.0  0.04722  0.41878  0.68528  1.0000
  I   I339      1.0  0.62942  0.84343  0.53834  1.0000
  I   I340      1.0  0.04879  0.63633  0.59136  1.0000
  I   I341      1.0  0.76602  0.03684  0.72148  1.0000
  I   I342      1.0  0.50105  0.87974  0.90505  1.0000
  I   I343      1.0  0.68138  0.55419  0.30691  1.0000
  I   I344      1.0  0.66258  0.15877  0.55055  1.0000
  I   I345      1.0  0.04503  0.15093  0.72659  1.0000
  I   I346      1.0  0.34977  0.25346  0.56743  1.0000
  I   I347      1.0  0.98247  0.20160  0.24815  1.0000
  I   I348      1.0  0.11917  0.28235  0.42060  1.0000
  I   I349      1.0  0.46253  0.25127  0.59745  1.0000
  I   I350      1.0  0.60718  0.66578  0.64093  1.0000
  I   I351      1.0  0.36558  0.83523  0.97453  1.0000
  I   I352      1.0  0.68359  0.25908  0.43484  1.0000
  I   I353      1.0  0.81321  0.61102  0.06039  1.0000
  I   I354      1.0  0.58029  0.05379  0.64079  1.0000
  I   I355      1.0  0.31388  0.03901  0.44105  1.0000
  I   I356      1.0  0.77749  0.55695  0.78389  1.0000
  I   I357      1.0  0.14673  0.84910  0.06288  1.0000
  I   I358      1.0  0.49425  0.38794  0.66421  1.0000
  I   I359      1.0  0.43806  0.71361  0.08122  1.0000
  I   I360      1.0  0.61283  0.30026  0.56432  1.0000
  I   I361      1.0  0.78235  0.81991  0.25393  1.0000
  I   I362      1.0  0.81351  0.21204  0.53155  1.0000
  I   I363      1.0  0.19920  0.81133  0.05197  1.0000
  I   I364      1.0  0.24299  0.66890  0.29581  1.0000
  I   I365      1.0  0.95177  0.17899  0.68551  1.0000
  I   I366      1.0  0.04168  0.85491  0.79356  1.0000
  I   I367      1.0  0.53850  0.98432  0.19100  1.0000
  I   I368      1.0  0.00252  0.61087  0.65092  1.0000
  I   I369      1.0  0.36761  0.29549  0.09851  1.0000
  I   I370      1.0  0.39568  0.53663  0.31379  1.0000
  I   I371      1.0  0.90406  0.33976  0.76869  1.0000
  I   I372      1.0  0.51563  0.40943  0.59750  1.0000
  I   I373      1.0  0.46475  0.95198  0.68975  1.0000
  I   I374      1.0  0.48133  0.54727  0.60322  1.0000
  I   I375      1.0  0.87211  0.32012  0.79434  1.0000
  I   I376      1.0  0.47217  0.72078  0.99930  1.0000
  I   I377      1.0  0.09246  0.22287  0.05902  1.0000
  I   I378      1.0  0.10941  0.54269  0.28494  1.0000
  I   I379      1.0  0.61200  0.39760  0.79387  1.0000
  I   I380      1.0  0.62702  0.55614  0.84744  1.0000
  I   I381      1.0  0.24841  0.87126  0.10718  1.0000
  I   I382      1.0  0.78778  0.77516  0.69299  1.0000
  I   I383      1.0  0.89436  0.95089  0.02652  1.0000
  I   I384      1.0  0.67579  0.29136  0.71645  1.0000
