data_image0
_chemical_formula_structural       Ti96I384
_chemical_formula_sum              "Ti96 I384"
_cell_length_a       50.6803
_cell_length_b       50.4575
_cell_length_c       24.4248
_cell_angle_alpha    88.7757
_cell_angle_beta     88.7757
_cell_angle_gamma    62.1586

_space_group_name_H-M_alt    "P 1"
_space_group_IT_number       1

loop_
  _space_group_symop_operation_xyz
  'x, y, z'

loop_
  _atom_site_type_symbol
  _atom_site_label
  _atom_site_symmetry_multiplicity
  _atom_site_fract_x
  _atom_site_fract_y
  _atom_site_fract_z
  _atom_site_occupancy
  Ti  Ti1       1.0  0.34994  0.92754  0.39746  1.0000
  Ti  Ti2       1.0  0.14847  0.02476  0.96395  1.0000
  Ti  Ti3       1.0  0.30203  0.87676  0.13373  1.0000
  Ti  Ti4       1.0  0.18824  0.06832  0.50519  1.0000
  Ti  Ti5       1.0  0.09423  0.42936  0.86214  1.0000
  Ti  Ti6       1.0  0.17682  0.22383  0.76250  1.0000
  Ti  Ti7       1.0  0.93759  0.72206  0.92459  1.0000
  Ti  Ti8       1.0  0.95281  0.00461  0.58470  1.0000
  Ti  Ti9       1.0  0.95984  0.82603  0.08407  1.0000
  Ti  Ti10      1.0  0.11840  0.81542  0.04091  1.0000
  Ti  Ti11      1.0  0.07768  0.75141  0.72651  1.0000
  Ti  Ti12      1.0  0.93296  0.84548  0.61864  1.0000
  Ti  Ti13      1.0  0.32317  0.18747  0.43319  1.0000
  Ti  Ti14      1.0  0.35657  0.00554  0.81873  1.0000
  Ti  Ti15      1.0  0.30571  0.11256  0.13831  1.0000
  Ti  Ti16      1.0  0.29537  0.58971  0.93720  1.0000
  Ti  Ti17      1.0  0.19064  0.66054  0.19795  1.0000
  Ti  Ti18      1.0  0.23858  0.39187  0.51254  1.0000
  Ti  Ti19      1.0  0.40675  0.68361  0.17227  1.0000
  Ti  Ti20      1.0  0.66442  0.65088  0.62227  1.0000
  Ti  Ti21      1.0  0.36466  0.63228  0.43924  1.0000
  Ti  Ti22      1.0  0.34944  0.78935  0.80720  1.0000
  Ti  Ti23      1.0  0.59456  0.85168  0.82748  1.0000
  Ti  Ti24      1.0  0.51975  0.71189  0.89632  1.0000
  Ti  Ti25      1.0  0.47001  0.32633  0.92965  1.0000
  Ti  Ti26      1.0  0.32507  0.36472  0.98099  1.0000
  Ti  Ti27      1.0  0.55161  0.38157  0.60650  1.0000
  Ti  Ti28      1.0  0.52557  0.39507  0.13812  1.0000
  Ti  Ti29      1.0  0.59506  0.50825  0.08078  1.0000
  Ti  Ti30      1.0  0.50876  0.47694  0.85928  1.0000
  Ti  Ti31      1.0  0.90175  0.54325  0.14758  1.0000
  Ti  Ti32      1.0  0.78889  0.46571  0.67182  1.0000
  Ti  Ti33      1.0  0.82951  0.53203  0.92932  1.0000
  Ti  Ti34      1.0  0.72535  0.92100  0.05968  1.0000
  Ti  Ti35      1.0  0.59211  0.72534  0.20014  1.0000
  Ti  Ti36      1.0  0.86772  0.68220  0.60031  1.0000
  Ti  Ti37      1.0  0.74274  0.17626  0.33957  1.0000
  Ti  Ti38      1.0  0.82290  0.20459  0.08510  1.0000
  Ti  Ti39      1.0  0.76977  0.16123  0.76042  1.0000
  Ti  Ti40      1.0  0.95947  0.25943  0.99214  1.0000
  Ti  Ti41      1.0  0.94162  0.21595  0.63645  1.0000
  Ti  Ti42      1.0  0.14909  0.92798  0.62018  1.0000
  Ti  Ti43      1.0  0.11255  0.34370  0.16923  1.0000
  Ti  Ti44      1.0  0.07624  0.56880  0.53616  1.0000
  Ti  Ti45      1.0  0.13281  0.58781  0.83395  1.0000
  Ti  Ti46      1.0  0.71473  0.92575  0.45534  1.0000
  Ti  Ti47      1.0  0.65016  0.02706  0.68183  1.0000
  Ti  Ti48      1.0  0.57849  0.13385  0.94710  1.0000
  Ti  Ti49      1.0  0.37178  0.89868  0.21949  1.0000
  Ti  Ti50      1.0  0.07076  0.08148  0.88947  1.0000
  Ti  Ti51      1.0  0.23083  0.99968  0.02627  1.0000
  Ti  Ti52      1.0  0.13434  0.13837  0.43445  1.0000
  Ti  Ti53      1.0  0.08896  0.39721  0.72889  1.0000
  Ti  Ti54      1.0  0.21149  0.15908  0.87160  1.0000
  Ti  Ti55      1.0  0.89453  0.82747  0.94769  1.0000
  Ti  Ti56      1.0  0.90275  0.99509  0.49285  1.0000
  Ti  Ti57      1.0  0.95181  0.90399  0.16522  1.0000
  Ti  Ti58      1.0  0.08063  0.90500  0.98179  1.0000
  Ti  Ti59      1.0  0.18540  0.78398  0.95112  1.0000
  Ti  Ti60      1.0  0.01359  0.79340  0.68116  1.0000
  Ti  Ti61      1.0  0.34432  0.11673  0.29467  1.0000
  Ti  Ti62      1.0  0.28021  0.24454  0.50802  1.0000
  Ti  Ti63      1.0  0.37632  0.07923  0.85340  1.0000
  Ti  Ti64      1.0  0.24083  0.42121  0.62930  1.0000
  Ti  Ti65      1.0  0.27647  0.60012  0.11049  1.0000
  Ti  Ti66      1.0  0.16544  0.70695  0.34244  1.0000
  Ti  Ti67      1.0  0.35641  0.69007  0.29101  1.0000
  Ti  Ti68      1.0  0.67402  0.62484  0.74147  1.0000
  Ti  Ti69      1.0  0.30846  0.65996  0.59279  1.0000
  Ti  Ti70      1.0  0.43604  0.74295  0.84005  1.0000
  Ti  Ti71      1.0  0.57726  0.85302  0.65880  1.0000
  Ti  Ti72      1.0  0.56363  0.87787  0.97766  1.0000
  Ti  Ti73      1.0  0.51021  0.33986  0.64907  1.0000
  Ti  Ti74      1.0  0.38176  0.35636  0.84772  1.0000
  Ti  Ti75      1.0  0.25153  0.39155  0.03505  1.0000
  Ti  Ti76      1.0  0.50118  0.51319  0.67394  1.0000
  Ti  Ti77      1.0  0.45660  0.43166  0.15141  1.0000
  Ti  Ti78      1.0  0.57894  0.49634  0.92072  1.0000
  Ti  Ti79      1.0  0.91377  0.47796  0.00981  1.0000
  Ti  Ti80      1.0  0.95672  0.54412  0.25231  1.0000
  Ti  Ti81      1.0  0.83657  0.48899  0.76889  1.0000
  Ti  Ti82      1.0  0.74456  0.97320  0.07688  1.0000
  Ti  Ti83      1.0  0.66380  0.69517  0.32024  1.0000
  Ti  Ti84      1.0  0.84735  0.71657  0.49653  1.0000
  Ti  Ti85      1.0  0.70950  0.12280  0.36024  1.0000
  Ti  Ti86      1.0  0.82762  0.15246  0.24011  1.0000
  Ti  Ti87      1.0  0.69337  0.22689  0.84562  1.0000
  Ti  Ti88      1.0  0.02925  0.24480  0.00389  1.0000
  Ti  Ti89      1.0  0.97407  0.14007  0.56792  1.0000
  Ti  Ti90      1.0  0.13588  0.86850  0.60370  1.0000
  Ti  Ti91      1.0  0.12874  0.58054  0.98823  1.0000
  Ti  Ti92      1.0  0.06671  0.33684  0.30114  1.0000
  Ti  Ti93      1.0  0.08621  0.57862  0.69245  1.0000
  Ti  Ti94      1.0  0.53600  0.12907  0.07494  1.0000
  Ti  Ti95      1.0  0.66402  0.95762  0.55983  1.0000
  Ti  Ti96      1.0  0.55759  0.11980  0.70127  1.0000
  I   I1        1.0  0.06097  0.05016  0.81926  1.0000
  I   I2        1.0  0.17333  0.05220  0.04411  1.0000
  I   I3        1.0  0.34020  0.90674  0.11201  1.0000
  I   I4        1.0  0.07437  0.35924  0.68267  1.0000
  I   I5        1.0  0.14931  0.19821  0.83547  1.0000
  I   I6        1.0  0.15661  0.20874  0.67943  1.0000
  I   I7        1.0  0.84525  0.03237  0.50300  1.0000
  I   I8        1.0  0.00983  0.99700  0.57261  1.0000
  I   I9        1.0  0.95767  0.81806  0.97509  1.0000
  I   I10       1.0  0.13349  0.77565  0.96310  1.0000
  I   I11       1.0  0.06358  0.77106  0.62619  1.0000
  I   I12       1.0  0.10066  0.93241  0.03828  1.0000
  I   I13       1.0  0.25679  0.21506  0.43453  1.0000
  I   I14       1.0  0.39246  0.02253  0.88734  1.0000
  I   I15       1.0  0.34029  0.06928  0.31176  1.0000
  I   I16       1.0  0.31674  0.60380  0.03570  1.0000
  I   I17       1.0  0.22283  0.68305  0.26613  1.0000
  I   I18       1.0  0.22991  0.47633  0.61019  1.0000
  I   I19       1.0  0.68500  0.57517  0.79944  1.0000
  I   I20       1.0  0.26229  0.67605  0.65488  1.0000
  I   I21       1.0  0.36274  0.68756  0.39271  1.0000
  I   I22       1.0  0.54995  0.87627  0.56932  1.0000
  I   I23       1.0  0.58743  0.89143  0.72718  1.0000
  I   I24       1.0  0.46557  0.77100  0.89837  1.0000
  I   I25       1.0  0.44037  0.30731  0.85292  1.0000
  I   I26       1.0  0.27008  0.38254  0.93358  1.0000
  I   I27       1.0  0.51472  0.28895  0.60897  1.0000
  I   I28       1.0  0.44637  0.40320  0.23094  1.0000
  I   I29       1.0  0.60605  0.45655  0.01607  1.0000
  I   I30       1.0  0.54575  0.47464  0.74543  1.0000
  I   I31       1.0  0.97395  0.51292  0.16572  1.0000
  I   I32       1.0  0.83492  0.50220  0.65982  1.0000
  I   I33       1.0  0.88867  0.50497  0.91056  1.0000
  I   I34       1.0  0.63471  0.66430  0.24334  1.0000
  I   I35       1.0  0.88776  0.65562  0.48804  1.0000
  I   I36       1.0  0.71502  0.03232  0.08293  1.0000
  I   I37       1.0  0.76269  0.18033  0.20822  1.0000
  I   I38       1.0  0.67785  0.28285  0.83829  1.0000
  I   I39       1.0  0.68455  0.09613  0.30166  1.0000
  I   I40       1.0  0.97715  0.13258  0.46135  1.0000
  I   I41       1.0  0.10870  0.85100  0.54088  1.0000
  I   I42       1.0  0.97804  0.28622  0.07990  1.0000
  I   I43       1.0  0.06232  0.37329  0.37684  1.0000
  I   I44       1.0  0.09117  0.53048  0.63617  1.0000
  I   I45       1.0  0.08253  0.59878  0.89770  1.0000
  I   I46       1.0  0.70791  0.90164  0.56974  1.0000
  I   I47       1.0  0.58788  0.05596  0.72557  1.0000
  I   I48       1.0  0.54734  0.09572  0.97999  1.0000
  I   I49       1.0  0.38735  0.87445  0.32754  1.0000
  I   I50       1.0  0.12655  0.08091  0.90166  1.0000
  I   I51       1.0  0.26862  0.94289  0.01186  1.0000
  I   I52       1.0  0.15490  0.11697  0.55950  1.0000
  I   I53       1.0  0.04330  0.44615  0.77885  1.0000
  I   I54       1.0  0.23817  0.19484  0.85444  1.0000
  I   I55       1.0  0.83916  0.83922  0.94743  1.0000
  I   I56       1.0  0.91320  0.98094  0.61532  1.0000
  I   I57       1.0  0.95482  0.87960  0.05907  1.0000
  I   I58       1.0  0.09957  0.78091  0.09433  1.0000
  I   I59       1.0  0.18141  0.78849  0.84900  1.0000
  I   I60       1.0  0.97268  0.81693  0.76075  1.0000
  I   I61       1.0  0.34091  0.17664  0.30879  1.0000
  I   I62       1.0  0.23684  0.29429  0.47668  1.0000
  I   I63       1.0  0.42276  0.08337  0.88682  1.0000
  I   I64       1.0  0.30121  0.53672  0.92712  1.0000
  I   I65       1.0  0.23731  0.60493  0.19761  1.0000
  I   I66       1.0  0.18424  0.67763  0.43276  1.0000
  I   I67       1.0  0.36287  0.66350  0.18587  1.0000
  I   I68       1.0  0.66512  0.59667  0.64066  1.0000
  I   I69       1.0  0.30358  0.65937  0.48026  1.0000
  I   I70       1.0  0.40653  0.71796  0.79647  1.0000
  I   I71       1.0  0.64356  0.80459  0.80487  1.0000
  I   I72       1.0  0.62046  0.83315  0.00850  1.0000
  I   I73       1.0  0.50283  0.33600  0.74920  1.0000
  I   I74       1.0  0.33194  0.40132  0.89285  1.0000
  I   I75       1.0  0.23645  0.39199  0.14510  1.0000
  I   I76       1.0  0.54195  0.34332  0.19192  1.0000
  I   I77       1.0  0.49749  0.44870  0.07910  1.0000
  I   I78       1.0  0.52480  0.52829  0.87209  1.0000
  I   I79       1.0  0.92253  0.47912  0.11231  1.0000
  I   I80       1.0  0.90840  0.57824  0.31720  1.0000
  I   I81       1.0  0.83456  0.47835  0.88938  1.0000
  I   I82       1.0  0.77723  0.90604  0.11465  1.0000
  I   I83       1.0  0.55235  0.70870  0.22383  1.0000
  I   I84       1.0  0.87196  0.73262  0.41542  1.0000
  I   I85       1.0  0.77062  0.11339  0.34402  1.0000
  I   I86       1.0  0.87368  0.14911  0.29671  1.0000
  I   I87       1.0  0.82155  0.15593  0.73982  1.0000
  I   I88       1.0  0.93470  0.30767  0.93668  1.0000
  I   I89       1.0  0.89627  0.26541  0.64699  1.0000
  I   I90       1.0  0.13820  0.91150  0.71079  1.0000
  I   I91       1.0  0.17205  0.57313  0.05683  1.0000
  I   I92       1.0  0.01322  0.34593  0.30274  1.0000
  I   I93       1.0  0.08930  0.62585  0.77532  1.0000
  I   I94       1.0  0.48791  0.14627  0.13153  1.0000
  I   I95       1.0  0.62614  0.01953  0.57096  1.0000
  I   I96       1.0  0.54597  0.17250  0.72892  1.0000
  I   I97       1.0  0.32050  0.88824  0.24054  1.0000
  I   I98       1.0  0.31403  0.90217  0.40801  1.0000
  I   I99       1.0  0.20031  0.00827  0.91965  1.0000
  I   I100      1.0  0.13999  0.13297  0.33081  1.0000
  I   I101      1.0  0.18839  0.03026  0.57843  1.0000
  I   I102      1.0  0.08013  0.38095  0.85362  1.0000
  I   I103      1.0  0.89014  0.86105  0.05117  1.0000
  I   I104      1.0  0.98637  0.69019  0.86664  1.0000
  I   I105      1.0  0.96176  0.91381  0.26658  1.0000
  I   I106      1.0  0.90392  0.82293  0.68158  1.0000
  I   I107      1.0  0.17833  0.79028  0.07012  1.0000
  I   I108      1.0  0.02725  0.73441  0.71693  1.0000
  I   I109      1.0  0.39761  0.10154  0.33053  1.0000
  I   I110      1.0  0.30911  0.24256  0.39063  1.0000
  I   I111      1.0  0.38448  0.94774  0.83825  1.0000
  I   I112      1.0  0.24104  0.36375  0.61477  1.0000
  I   I113      1.0  0.24268  0.60729  0.00208  1.0000
  I   I114      1.0  0.17165  0.64917  0.29850  1.0000
  I   I115      1.0  0.35857  0.62679  0.32231  1.0000
  I   I116      1.0  0.44534  0.70622  0.19405  1.0000
  I   I117      1.0  0.61379  0.67560  0.57309  1.0000
  I   I118      1.0  0.49175  0.70980  0.79568  1.0000
  I   I119      1.0  0.32174  0.75900  0.84038  1.0000
  I   I120      1.0  0.62443  0.87513  0.87338  1.0000
  I   I121      1.0  0.57265  0.32827  0.65956  1.0000
  I   I122      1.0  0.41910  0.38038  0.91544  1.0000
  I   I123      1.0  0.28877  0.41604  0.05406  1.0000
  I   I124      1.0  0.46771  0.52427  0.78167  1.0000
  I   I125      1.0  0.57496  0.36667  0.07226  1.0000
  I   I126      1.0  0.54171  0.52737  0.01301  1.0000
  I   I127      1.0  0.84702  0.51138  0.03866  1.0000
  I   I128      1.0  0.90878  0.51813  0.24866  1.0000
  I   I129      1.0  0.77512  0.50570  0.75409  1.0000
  I   I130      1.0  0.81382  0.68244  0.57525  1.0000
  I   I131      1.0  0.69426  0.98026  0.01415  1.0000
  I   I132      1.0  0.66102  0.72078  0.41366  1.0000
  I   I133      1.0  0.68164  0.22453  0.94897  1.0000
  I   I134      1.0  0.79476  0.18119  0.34955  1.0000
  I   I135      1.0  0.84352  0.18815  0.98444  1.0000
  I   I136      1.0  0.11992  0.98474  0.63653  1.0000
  I   I137      1.0  0.00443  0.20477  0.04359  1.0000
  I   I138      1.0  0.96852  0.21657  0.54513  1.0000
  I   I139      1.0  0.15503  0.61406  0.89543  1.0000
  I   I140      1.0  0.05525  0.37635  0.19403  1.0000
  I   I141      1.0  0.11825  0.59183  0.62815  1.0000
  I   I142      1.0  0.51325  0.17490  0.98251  1.0000
  I   I143      1.0  0.70736  0.97729  0.52033  1.0000
  I   I144      1.0  0.61560  0.09813  0.66184  1.0000
  I   I145      1.0  0.32909  0.95098  0.28807  1.0000
  I   I146      1.0  0.08942  0.05533  0.99327  1.0000
  I   I147      1.0  0.24477  0.89831  0.13533  1.0000
  I   I148      1.0  0.19712  0.11048  0.43955  1.0000
  I   I149      1.0  0.11065  0.46073  0.80240  1.0000
  I   I150      1.0  0.21501  0.15179  0.76446  1.0000
  I   I151      1.0  0.89977  0.77073  0.00123  1.0000
  I   I152      1.0  0.95212  0.01591  0.68626  1.0000
  I   I153      1.0  0.01786  0.79855  0.11625  1.0000
  I   I154      1.0  0.05800  0.86029  0.99928  1.0000
  I   I155      1.0  0.11560  0.69583  0.71310  1.0000
  I   I156      1.0  0.98104  0.78299  0.61212  1.0000
  I   I157      1.0  0.32098  0.13588  0.41294  1.0000
  I   I158      1.0  0.32757  0.06682  0.81966  1.0000
  I   I159      1.0  0.25465  0.11637  0.10782  1.0000
  I   I160      1.0  0.21553  0.38040  0.42835  1.0000
  I   I161      1.0  0.23377  0.66732  0.11356  1.0000
  I   I162      1.0  0.25340  0.43598  0.46848  1.0000
  I   I163      1.0  0.42109  0.65641  0.27961  1.0000
  I   I164      1.0  0.61625  0.64709  0.73082  1.0000
  I   I165      1.0  0.36832  0.65414  0.54579  1.0000
  I   I166      1.0  0.42023  0.79008  0.77607  1.0000
  I   I167      1.0  0.55815  0.83837  0.75345  1.0000
  I   I168      1.0  0.55686  0.65719  0.88019  1.0000
  I   I169      1.0  0.50988  0.27153  0.90030  1.0000
  I   I170      1.0  0.35865  0.31755  0.91341  1.0000
  I   I171      1.0  0.53934  0.42370  0.52056  1.0000
  I   I172      1.0  0.48608  0.47437  0.62654  1.0000
  I   I173      1.0  0.57254  0.51079  0.17430  1.0000
  I   I174      1.0  0.56241  0.44938  0.90562  1.0000
  I   I175      1.0  0.90311  0.54561  0.03491  1.0000
  I   I176      1.0  0.83544  0.43273  0.60460  1.0000
  I   I177      1.0  0.82581  0.54524  0.81571  1.0000
  I   I178      1.0  0.77238  0.96007  0.98835  1.0000
  I   I179      1.0  0.60544  0.73515  0.29840  1.0000
  I   I180      1.0  0.91329  0.68949  0.55475  1.0000
  I   I181      1.0  0.69519  0.16822  0.28825  1.0000
  I   I182      1.0  0.82358  0.21161  0.19597  1.0000
  I   I183      1.0  0.78564  0.11479  0.82372  1.0000
  I   I184      1.0  0.93967  0.22660  0.93740  1.0000
  I   I185      1.0  0.97682  0.15236  0.67805  1.0000
  I   I186      1.0  0.19324  0.82375  0.59889  1.0000
  I   I187      1.0  0.15930  0.30361  0.10337  1.0000
  I   I188      1.0  0.04072  0.54583  0.50860  1.0000
  I   I189      1.0  0.12668  0.54169  0.76781  1.0000
  I   I190      1.0  0.70854  0.88467  0.40456  1.0000
  I   I191      1.0  0.66935  0.97049  0.68210  1.0000
  I   I192      1.0  0.60545  0.09691  0.87664  1.0000
  I   I193      1.0  0.31876  0.97493  0.44703  1.0000
  I   I194      1.0  0.13851  0.99573  0.88289  1.0000
  I   I195      1.0  0.31743  0.84607  0.04261  1.0000
  I   I196      1.0  0.23986  0.06149  0.53985  1.0000
  I   I197      1.0  0.05153  0.47092  0.92115  1.0000
  I   I198      1.0  0.22176  0.22718  0.71994  1.0000
  I   I199      1.0  0.90235  0.72047  0.85653  1.0000
  I   I200      1.0  0.90088  0.00449  0.38676  1.0000
  I   I201      1.0  0.93353  0.86023  0.18189  1.0000
  I   I202      1.0  0.10229  0.86210  0.10371  1.0000
  I   I203      1.0  0.12485  0.76285  0.73202  1.0000
  I   I204      1.0  0.91156  0.85040  0.52763  1.0000
  I   I205      1.0  0.37665  0.17637  0.43812  1.0000
  I   I206      1.0  0.38277  0.00061  0.72452  1.0000
  I   I207      1.0  0.29355  0.15954  0.07811  1.0000
  I   I208      1.0  0.26713  0.62800  0.86075  1.0000
  I   I209      1.0  0.15959  0.64273  0.13733  1.0000
  I   I210      1.0  0.18823  0.43137  0.56921  1.0000
  I   I211      1.0  0.36420  0.73221  0.12710  1.0000
  I   I212      1.0  0.66299  0.65022  0.84086  1.0000
  I   I213      1.0  0.36522  0.58143  0.46084  1.0000
  I   I214      1.0  0.34041  0.78591  0.70838  1.0000
  I   I215      1.0  0.56944  0.83264  0.91369  1.0000
  I   I216      1.0  0.55788  0.72612  0.84903  1.0000
  I   I217      1.0  0.50069  0.35400  0.92212  1.0000
  I   I218      1.0  0.37491  0.36252  0.03336  1.0000
  I   I219      1.0  0.50906  0.39842  0.67884  1.0000
  I   I220      1.0  0.54241  0.42143  0.20850  1.0000
  I   I221      1.0  0.64975  0.47777  0.12081  1.0000
  I   I222      1.0  0.46766  0.49623  0.93607  1.0000
  I   I223      1.0  0.84543  0.57093  0.15743  1.0000
  I   I224      1.0  0.75953  0.43626  0.67875  1.0000
  I   I225      1.0  0.77171  0.54692  0.94997  1.0000
  I   I226      1.0  0.69256  0.89505  0.09510  1.0000
  I   I227      1.0  0.55864  0.78030  0.16368  1.0000
  I   I228      1.0  0.84808  0.71159  0.69090  1.0000
  I   I229      1.0  0.72335  0.17968  0.43756  1.0000
  I   I230      1.0  0.82480  0.25375  0.07115  1.0000
  I   I231      1.0  0.72959  0.21925  0.73815  1.0000
  I   I232      1.0  0.91830  0.27256  0.06429  1.0000
  I   I233      1.0  0.95772  0.10032  0.58971  1.0000
  I   I234      1.0  0.15625  0.89400  0.52482  1.0000
  I   I235      1.0  0.11827  0.38409  0.09882  1.0000
  I   I236      1.0  0.05534  0.61185  0.46253  1.0000
  I   I237      1.0  0.17421  0.57702  0.75785  1.0000
  I   I238      1.0  0.72544  0.94934  0.36726  1.0000
  I   I239      1.0  0.69283  0.03616  0.62859  1.0000
  I   I240      1.0  0.58929  0.17799  0.90977  1.0000
  I   I241      1.0  0.39986  0.91748  0.44210  1.0000
  I   I242      1.0  0.16993  0.97651  0.02726  1.0000
  I   I243      1.0  0.32065  0.82249  0.17581  1.0000
  I   I244      1.0  0.18551  0.04313  0.41633  1.0000
  I   I245      1.0  0.13737  0.39904  0.93520  1.0000
  I   I246      1.0  0.14196  0.27934  0.77952  1.0000
  I   I247      1.0  0.94470  0.67918  0.98929  1.0000
  I   I248      1.0  0.96671  0.96979  0.49338  1.0000
  I   I249      1.0  0.95686  0.78156  0.12092  1.0000
  I   I250      1.0  0.13965  0.84876  0.95295  1.0000
  I   I251      1.0  0.05216  0.77270  0.82004  1.0000
  I   I252      1.0  0.90609  0.90118  0.64608  1.0000
  I   I253      1.0  0.32390  0.18365  0.54202  1.0000
  I   I254      1.0  0.30971  0.00094  0.78475  1.0000
  I   I255      1.0  0.33348  0.06469  0.08373  1.0000
  I   I256      1.0  0.34777  0.58192  0.89746  1.0000
  I   I257      1.0  0.14781  0.71652  0.21934  1.0000
  I   I258      1.0  0.29978  0.40016  0.62246  1.0000
  I   I259      1.0  0.44393  0.64599  0.10045  1.0000
  I   I260      1.0  0.65606  0.69975  0.68455  1.0000
  I   I261      1.0  0.42384  0.60229  0.39625  1.0000
  I   I262      1.0  0.31659  0.84821  0.82250  1.0000
  I   I263      1.0  0.55017  0.91234  0.88832  1.0000
  I   I264      1.0  0.53618  0.70721  0.00066  1.0000
  I   I265      1.0  0.47274  0.30860  0.03570  1.0000
  I   I266      1.0  0.31278  0.33544  0.06209  1.0000
  I   I267      1.0  0.58892  0.39723  0.64607  1.0000
  I   I268      1.0  0.48599  0.38543  0.07446  1.0000
  I   I269      1.0  0.59446  0.55980  0.08178  1.0000
  I   I270      1.0  0.50990  0.42611  0.83157  1.0000
  I   I271      1.0  0.90319  0.59275  0.17089  1.0000
  I   I272      1.0  0.76524  0.50439  0.59106  1.0000
  I   I273      1.0  0.82877  0.58650  0.93874  1.0000
  I   I274      1.0  0.72684  0.90147  0.96118  1.0000
  I   I275      1.0  0.61564  0.70225  0.10451  1.0000
  I   I276      1.0  0.89734  0.62797  0.64303  1.0000
  I   I277      1.0  0.70951  0.23279  0.30583  1.0000
  I   I278      1.0  0.76700  0.22321  0.06706  1.0000
  I   I279      1.0  0.76021  0.13421  0.68066  1.0000
  I   I280      1.0  0.01445  0.23533  0.90944  1.0000
  I   I281      1.0  0.91098  0.18821  0.59674  1.0000
  I   I282      1.0  0.20229  0.91992  0.63684  1.0000
  I   I283      1.0  0.13645  0.34525  0.26095  1.0000
  I   I284      1.0  0.12626  0.52801  0.48538  1.0000
  I   I285      1.0  0.17223  0.53188  0.91567  1.0000
  I   I286      1.0  0.77096  0.89417  0.48390  1.0000
  I   I287      1.0  0.66524  0.03111  0.77814  1.0000
  I   I288      1.0  0.62312  0.10844  0.01802  1.0000
  I   I289      1.0  0.39403  0.93371  0.19109  1.0000
  I   I290      1.0  0.01888  0.11326  0.92865  1.0000
  I   I291      1.0  0.24137  0.00499  0.12595  1.0000
  I   I292      1.0  0.08646  0.13312  0.42328  1.0000
  I   I293      1.0  0.08380  0.42081  0.63500  1.0000
  I   I294      1.0  0.23912  0.10136  0.88059  1.0000
  I   I295      1.0  0.92685  0.78366  0.86790  1.0000
  I   I296      1.0  0.91011  0.93970  0.48284  1.0000
  I   I297      1.0  0.00201  0.90125  0.13591  1.0000
  I   I298      1.0  0.08602  0.92243  0.88087  1.0000
  I   I299      1.0  0.23186  0.73013  0.95840  1.0000
  I   I300      1.0  0.98543  0.84902  0.60855  1.0000
  I   I301      1.0  0.28421  0.14685  0.23140  1.0000
  I   I302      1.0  0.31455  0.26017  0.55762  1.0000
  I   I303      1.0  0.33778  0.13360  0.88307  1.0000
  I   I304      1.0  0.21883  0.41924  0.72326  1.0000
  I   I305      1.0  0.31564  0.58544  0.18358  1.0000
  I   I306      1.0  0.11274  0.74818  0.38885  1.0000
  I   I307      1.0  0.36245  0.73939  0.28314  1.0000
  I   I308      1.0  0.69415  0.64386  0.52906  1.0000
  I   I309      1.0  0.33303  0.60063  0.62139  1.0000
  I   I310      1.0  0.38527  0.77395  0.91196  1.0000
  I   I311      1.0  0.63583  0.82586  0.64182  1.0000
  I   I312      1.0  0.50952  0.88619  0.01031  1.0000
  I   I313      1.0  0.45605  0.37171  0.62173  1.0000
  I   I314      1.0  0.36273  0.33921  0.76598  1.0000
  I   I315      1.0  0.22033  0.36246  0.02327  1.0000
  I   I316      1.0  0.54171  0.50663  0.60210  1.0000
  I   I317      1.0  0.43455  0.48555  0.19322  1.0000
  I   I318      1.0  0.61667  0.46083  0.85307  1.0000
  I   I319      1.0  0.97040  0.45445  0.97572  1.0000
  I   I320      1.0  0.99976  0.55751  0.26039  1.0000
  I   I321      1.0  0.89740  0.46114  0.77364  1.0000
  I   I322      1.0  0.70241  0.96234  0.15878  1.0000
  I   I323      1.0  0.69615  0.70575  0.24710  1.0000
  I   I324      1.0  0.82238  0.76515  0.54345  1.0000
  I   I325      1.0  0.74300  0.07463  0.42388  1.0000
  I   I326      1.0  0.84570  0.14106  0.14045  1.0000
  I   I327      1.0  0.75066  0.19110  0.86335  1.0000
  I   I328      1.0  0.08075  0.20858  0.04042  1.0000
  I   I329      1.0  0.97767  0.22394  0.70637  1.0000
  I   I330      1.0  0.11316  0.85501  0.68423  1.0000
  I   I331      1.0  0.12449  0.53663  0.04404  1.0000
  I   I332      1.0  0.08860  0.28936  0.36244  1.0000
  I   I333      1.0  0.04121  0.58260  0.75582  1.0000
  I   I334      1.0  0.56030  0.16062  0.11048  1.0000
  I   I335      1.0  0.62337  0.94368  0.59507  1.0000
  I   I336      1.0  0.51093  0.11849  0.75593  1.0000
  I   I337      1.0  0.41033  0.84545  0.19029  1.0000
  I   I338      1.0  0.06889  0.12110  0.81686  1.0000
  I   I339      1.0  0.26474  0.01923  0.97532  1.0000
  I   I340      1.0  0.11298  0.19401  0.44769  1.0000
  I   I341      1.0  0.14876  0.36630  0.74304  1.0000
  I   I342      1.0  0.19429  0.17144  0.97472  1.0000
  I   I343      1.0  0.89366  0.87294  0.89589  1.0000
  I   I344      1.0  0.90465  0.05311  0.55157  1.0000
  I   I345      1.0  0.90347  0.95382  0.13242  1.0000
  I   I346      1.0  0.02566  0.93278  0.01058  1.0000
  I   I347      1.0  0.21986  0.81253  0.94372  1.0000
  I   I348      1.0  0.04347  0.82896  0.71325  1.0000
  I   I349      1.0  0.35681  0.11341  0.18951  1.0000
  I   I350      1.0  0.24511  0.24464  0.59284  1.0000
  I   I351      1.0  0.38280  0.08602  0.74870  1.0000
  I   I352      1.0  0.29515  0.35517  0.48781  1.0000
  I   I353      1.0  0.28516  0.54410  0.09432  1.0000
  I   I354      1.0  0.19574  0.73864  0.37336  1.0000
  I   I355      1.0  0.29972  0.72477  0.28822  1.0000
  I   I356      1.0  0.72048  0.62394  0.68383  1.0000
  I   I357      1.0  0.32063  0.69599  0.64907  1.0000
  I   I358      1.0  0.46385  0.70421  0.93473  1.0000
  I   I359      1.0  0.59213  0.79719  0.63041  1.0000
  I   I360      1.0  0.58120  0.90964  0.03350  1.0000
  I   I361      1.0  0.52938  0.35295  0.53528  1.0000
  I   I362      1.0  0.39045  0.39167  0.77300  1.0000
  I   I363      1.0  0.20990  0.44391  0.99999  1.0000
  I   I364      1.0  0.45351  0.55909  0.64392  1.0000
  I   I365      1.0  0.40368  0.45130  0.10213  1.0000
  I   I366      1.0  0.59952  0.53533  0.91592  1.0000
  I   I367      1.0  0.91100  0.42904  0.02445  1.0000
  I   I368      1.0  0.97676  0.49871  0.32072  1.0000
  I   I369      1.0  0.83928  0.43382  0.76664  1.0000
  I   I370      1.0  0.79181  0.96782  0.13253  1.0000
  I   I371      1.0  0.69503  0.63963  0.34002  1.0000
  I   I372      1.0  0.80406  0.72109  0.43545  1.0000
  I   I373      1.0  0.66075  0.15535  0.42213  1.0000
  I   I374      1.0  0.84167  0.09917  0.25398  1.0000
  I   I375      1.0  0.65561  0.21520  0.78624  1.0000
  I   I376      1.0  0.02646  0.29587  0.98599  1.0000
  I   I377      1.0  0.03255  0.10698  0.56573  1.0000
  I   I378      1.0  0.09130  0.92919  0.59229  1.0000
  I   I379      1.0  0.08793  0.62760  0.04119  1.0000
  I   I380      1.0  0.10300  0.29610  0.20972  1.0000
  I   I381      1.0  0.04385  0.61177  0.61101  1.0000
  I   I382      1.0  0.56744  0.07994  0.12415  1.0000
  I   I383      1.0  0.65101  0.97110  0.45418  1.0000
  I   I384      1.0  0.53497  0.12949  0.60022  1.0000
