data_image0
_chemical_formula_structural       Ti96I384
_chemical_formula_sum              "Ti96 I384"
_cell_length_a       54.1154
_cell_length_b       54.2782
_cell_length_c       26.2474
_cell_angle_alpha    88.7757
_cell_angle_beta     88.7757
_cell_angle_gamma    62.1586

_space_group_name_H-M_alt    "P 1"
_space_group_IT_number       1

loop_
  _space_group_symop_operation_xyz
  'x, y, z'

loop_
  _atom_site_type_symbol
  _atom_site_label
  _atom_site_symmetry_multiplicity
  _atom_site_fract_x
  _atom_site_fract_y
  _atom_site_fract_z
  _atom_site_occupancy
  Ti  Ti1       1.0  0.63922  0.67626  0.31317  1.0000
  Ti  Ti2       1.0  0.87746  0.13107  0.34772  1.0000
  Ti  Ti3       1.0  0.52718  0.82507  0.30801  1.0000
  Ti  Ti4       1.0  0.19482  0.05456  0.64356  1.0000
  Ti  Ti5       1.0  0.08567  0.20563  0.37852  1.0000
  Ti  Ti6       1.0  0.11724  0.21209  0.85888  1.0000
  Ti  Ti7       1.0  0.03531  0.90520  0.29290  1.0000
  Ti  Ti8       1.0  0.05233  0.05821  0.69413  1.0000
  Ti  Ti9       1.0  0.92107  0.86579  0.69014  1.0000
  Ti  Ti10      1.0  0.35820  0.89710  0.99213  1.0000
  Ti  Ti11      1.0  0.02350  0.59392  0.91099  1.0000
  Ti  Ti12      1.0  0.94192  0.65364  0.13798  1.0000
  Ti  Ti13      1.0  0.43348  0.16622  0.49635  1.0000
  Ti  Ti14      1.0  0.25506  0.17246  0.40114  1.0000
  Ti  Ti15      1.0  0.35260  0.02505  0.05483  1.0000
  Ti  Ti16      1.0  0.14636  0.81231  0.90283  1.0000
  Ti  Ti17      1.0  0.23019  0.65980  0.99659  1.0000
  Ti  Ti18      1.0  0.15141  0.50369  0.23289  1.0000
  Ti  Ti19      1.0  0.59448  0.63102  0.60003  1.0000
  Ti  Ti20      1.0  0.79497  0.82527  0.91177  1.0000
  Ti  Ti21      1.0  0.21498  0.62477  0.71556  1.0000
  Ti  Ti22      1.0  0.49220  0.92788  0.55419  1.0000
  Ti  Ti23      1.0  0.77950  0.87706  0.33305  1.0000
  Ti  Ti24      1.0  0.44148  0.04110  0.63777  1.0000
  Ti  Ti25      1.0  0.29839  0.22267  0.91243  1.0000
  Ti  Ti26      1.0  0.29103  0.35162  0.92909  1.0000
  Ti  Ti27      1.0  0.37611  0.58676  0.88631  1.0000
  Ti  Ti28      1.0  0.46275  0.66600  0.92378  1.0000
  Ti  Ti29      1.0  0.62183  0.45475  0.85325  1.0000
  Ti  Ti30      1.0  0.75778  0.47507  0.73239  1.0000
  Ti  Ti31      1.0  0.84137  0.41837  0.32540  1.0000
  Ti  Ti32      1.0  0.85740  0.25607  0.56989  1.0000
  Ti  Ti33      1.0  0.96044  0.48973  0.89215  1.0000
  Ti  Ti34      1.0  0.96197  0.80111  0.02702  1.0000
  Ti  Ti35      1.0  0.71529  0.70397  0.04829  1.0000
  Ti  Ti36      1.0  0.86414  0.64713  0.66130  1.0000
  Ti  Ti37      1.0  0.62577  0.23149  0.24717  1.0000
  Ti  Ti38      1.0  0.46990  0.31728  0.41343  1.0000
  Ti  Ti39      1.0  0.55720  0.37489  0.95075  1.0000
  Ti  Ti40      1.0  0.10650  0.94598  0.01697  1.0000
  Ti  Ti41      1.0  0.74147  0.15327  0.56397  1.0000
  Ti  Ti42      1.0  0.18003  0.88409  0.56639  1.0000
  Ti  Ti43      1.0  0.83158  0.18729  0.01921  1.0000
  Ti  Ti44      1.0  0.95813  0.43255  0.51882  1.0000
  Ti  Ti45      1.0  0.01041  0.53010  0.52477  1.0000
  Ti  Ti46      1.0  0.68273  0.03316  0.48764  1.0000
  Ti  Ti47      1.0  0.60294  0.98481  0.09024  1.0000
  Ti  Ti48      1.0  0.53896  0.20670  0.83480  1.0000
  Ti  Ti49      1.0  0.58377  0.76746  0.38518  1.0000
  Ti  Ti50      1.0  0.80177  0.12035  0.29883  1.0000
  Ti  Ti51      1.0  0.95205  0.08431  0.25129  1.0000
  Ti  Ti52      1.0  0.24266  0.01497  0.56161  1.0000
  Ti  Ti53      1.0  0.07461  0.27997  0.34772  1.0000
  Ti  Ti54      1.0  0.08707  0.16603  0.77711  1.0000
  Ti  Ti55      1.0  0.97780  0.91101  0.35520  1.0000
  Ti  Ti56      1.0  0.01183  0.10479  0.60168  1.0000
  Ti  Ti57      1.0  0.98596  0.87389  0.72665  1.0000
  Ti  Ti58      1.0  0.34333  0.87527  0.14054  1.0000
  Ti  Ti59      1.0  0.33080  0.90109  0.84374  1.0000
  Ti  Ti60      1.0  0.97696  0.62405  0.02028  1.0000
  Ti  Ti61      1.0  0.28764  0.01333  0.13791  1.0000
  Ti  Ti62      1.0  0.42271  0.15900  0.36930  1.0000
  Ti  Ti63      1.0  0.28855  0.09792  0.36450  1.0000
  Ti  Ti64      1.0  0.15421  0.44484  0.29350  1.0000
  Ti  Ti65      1.0  0.19193  0.73731  0.96086  1.0000
  Ti  Ti66      1.0  0.07639  0.77928  0.49303  1.0000
  Ti  Ti67      1.0  0.61442  0.64264  0.69983  1.0000
  Ti  Ti68      1.0  0.76147  0.85444  0.82244  1.0000
  Ti  Ti69      1.0  0.18603  0.59480  0.77831  1.0000
  Ti  Ti70      1.0  0.47906  0.00422  0.49009  1.0000
  Ti  Ti71      1.0  0.86200  0.80576  0.25203  1.0000
  Ti  Ti72      1.0  0.78872  0.83467  0.45382  1.0000
  Ti  Ti73      1.0  0.39158  0.60446  0.76079  1.0000
  Ti  Ti74      1.0  0.28987  0.28835  0.83558  1.0000
  Ti  Ti75      1.0  0.27298  0.43683  0.89549  1.0000
  Ti  Ti76      1.0  0.78542  0.53535  0.70664  1.0000
  Ti  Ti77      1.0  0.52204  0.62040  0.92461  1.0000
  Ti  Ti78      1.0  0.67880  0.48428  0.81758  1.0000
  Ti  Ti79      1.0  0.92806  0.44714  0.84823  1.0000
  Ti  Ti80      1.0  0.87532  0.33132  0.28516  1.0000
  Ti  Ti81      1.0  0.81186  0.33622  0.58200  1.0000
  Ti  Ti82      1.0  0.94283  0.89335  0.01366  1.0000
  Ti  Ti83      1.0  0.62751  0.72123  0.02683  1.0000
  Ti  Ti84      1.0  0.82353  0.68062  0.56904  1.0000
  Ti  Ti85      1.0  0.66230  0.16970  0.13659  1.0000
  Ti  Ti86      1.0  0.54002  0.26038  0.33479  1.0000
  Ti  Ti87      1.0  0.54460  0.40073  0.08929  1.0000
  Ti  Ti88      1.0  0.14276  0.94010  0.13844  1.0000
  Ti  Ti89      1.0  0.68483  0.23075  0.55900  1.0000
  Ti  Ti90      1.0  0.22851  0.88172  0.43611  1.0000
  Ti  Ti91      1.0  0.09760  0.48384  0.57262  1.0000
  Ti  Ti92      1.0  0.83929  0.23946  0.09713  1.0000
  Ti  Ti93      1.0  0.96106  0.50966  0.43034  1.0000
  Ti  Ti94      1.0  0.56630  0.17649  0.70895  1.0000
  Ti  Ti95      1.0  0.73065  0.03146  0.43246  1.0000
  Ti  Ti96      1.0  0.58617  0.94248  0.02184  1.0000
  I   I1        1.0  0.80662  0.07185  0.32591  1.0000
  I   I2        1.0  0.88476  0.17764  0.33943  1.0000
  I   I3        1.0  0.58263  0.74315  0.47177  1.0000
  I   I4        1.0  0.10610  0.26090  0.26518  1.0000
  I   I5        1.0  0.10680  0.11389  0.81267  1.0000
  I   I6        1.0  0.07970  0.21654  0.92949  1.0000
  I   I7        1.0  0.02957  0.11981  0.52056  1.0000
  I   I8        1.0  0.05761  0.01107  0.71482  1.0000
  I   I9        1.0  0.88068  0.87479  0.76011  1.0000
  I   I10       1.0  0.38288  0.87596  0.89532  1.0000
  I   I11       1.0  0.04186  0.59863  0.01883  1.0000
  I   I12       1.0  0.34052  0.83056  0.17549  1.0000
  I   I13       1.0  0.40932  0.13495  0.46545  1.0000
  I   I14       1.0  0.32441  0.08896  0.28826  1.0000
  I   I15       1.0  0.34879  0.97656  0.11330  1.0000
  I   I16       1.0  0.13564  0.75729  0.98750  1.0000
  I   I17       1.0  0.12134  0.78420  0.51173  1.0000
  I   I18       1.0  0.13613  0.42260  0.22426  1.0000
  I   I19       1.0  0.81181  0.80250  0.81525  1.0000
  I   I20       1.0  0.14521  0.64719  0.74701  1.0000
  I   I21       1.0  0.23846  0.57924  0.79181  1.0000
  I   I22       1.0  0.91409  0.79196  0.25269  1.0000
  I   I23       1.0  0.83294  0.83656  0.35962  1.0000
  I   I24       1.0  0.46585  0.05569  0.54798  1.0000
  I   I25       1.0  0.25161  0.26593  0.84179  1.0000
  I   I26       1.0  0.28776  0.38518  0.83667  1.0000
  I   I27       1.0  0.36926  0.64027  0.85406  1.0000
  I   I28       1.0  0.50857  0.62848  0.82001  1.0000
  I   I29       1.0  0.65562  0.47808  0.90423  1.0000
  I   I30       1.0  0.74623  0.52941  0.77665  1.0000
  I   I31       1.0  0.88754  0.42172  0.32796  1.0000
  I   I32       1.0  0.76161  0.35993  0.61671  1.0000
  I   I33       1.0  0.98856  0.43164  0.86999  1.0000
  I   I34       1.0  0.73699  0.71293  0.12654  1.0000
  I   I35       1.0  0.80089  0.70074  0.66945  1.0000
  I   I36       1.0  0.97150  0.91809  0.03786  1.0000
  I   I37       1.0  0.60225  0.23522  0.34827  1.0000
  I   I38       1.0  0.52278  0.45416  0.10170  1.0000
  I   I39       1.0  0.69723  0.12080  0.18001  1.0000
  I   I40       1.0  0.69038  0.27082  0.59838  1.0000
  I   I41       1.0  0.24948  0.90249  0.50480  1.0000
  I   I42       1.0  0.16366  0.90225  0.20633  1.0000
  I   I43       1.0  0.80099  0.22195  0.10267  1.0000
  I   I44       1.0  0.92652  0.47979  0.46471  1.0000
  I   I45       1.0  0.97757  0.58201  0.48807  1.0000
  I   I46       1.0  0.68253  0.00184  0.41457  1.0000
  I   I47       1.0  0.62904  0.93043  0.11549  1.0000
  I   I48       1.0  0.55490  0.23122  0.75175  1.0000
  I   I49       1.0  0.61239  0.64910  0.31219  1.0000
  I   I50       1.0  0.82269  0.15472  0.30977  1.0000
  I   I51       1.0  0.00679  0.05295  0.27761  1.0000
  I   I52       1.0  0.25990  0.05041  0.52725  1.0000
  I   I53       1.0  0.05968  0.25543  0.42405  1.0000
  I   I54       1.0  0.03813  0.17180  0.78622  1.0000
  I   I55       1.0  0.01146  0.92173  0.41047  1.0000
  I   I56       1.0  0.01009  0.05987  0.56254  1.0000
  I   I57       1.0  0.98517  0.85981  0.63223  1.0000
  I   I58       1.0  0.33180  0.94031  0.92232  1.0000
  I   I59       1.0  0.31229  0.92564  0.75127  1.0000
  I   I60       1.0  0.92219  0.63468  0.02861  1.0000
  I   I61       1.0  0.47192  0.16433  0.42674  1.0000
  I   I62       1.0  0.46643  0.11435  0.32988  1.0000
  I   I63       1.0  0.20770  0.22090  0.40763  1.0000
  I   I64       1.0  0.15770  0.82887  0.81771  1.0000
  I   I65       1.0  0.24639  0.70931  0.96361  1.0000
  I   I66       1.0  0.07363  0.75514  0.41299  1.0000
  I   I67       1.0  0.55889  0.64339  0.68510  1.0000
  I   I68       1.0  0.81966  0.77767  0.95873  1.0000
  I   I69       1.0  0.20063  0.65941  0.64492  1.0000
  I   I70       1.0  0.49038  0.95640  0.45085  1.0000
  I   I71       1.0  0.80717  0.84167  0.23921  1.0000
  I   I72       1.0  0.82545  0.78159  0.46248  1.0000
  I   I73       1.0  0.35445  0.61921  0.97257  1.0000
  I   I74       1.0  0.32541  0.31056  0.85129  1.0000
  I   I75       1.0  0.32433  0.42877  0.85972  1.0000
  I   I76       1.0  0.47034  0.71037  0.93273  1.0000
  I   I77       1.0  0.54928  0.64960  0.92276  1.0000
  I   I78       1.0  0.69733  0.50155  0.71884  1.0000
  I   I79       1.0  0.94121  0.39574  0.88988  1.0000
  I   I80       1.0  0.83466  0.31974  0.28819  1.0000
  I   I81       1.0  0.80668  0.30890  0.50325  1.0000
  I   I82       1.0  0.01307  0.76502  0.03954  1.0000
  I   I83       1.0  0.71473  0.74308  0.99332  1.0000
  I   I84       1.0  0.80741  0.64437  0.61237  1.0000
  I   I85       1.0  0.62281  0.18388  0.23055  1.0000
  I   I86       1.0  0.48054  0.27996  0.31708  1.0000
  I   I87       1.0  0.51126  0.39386  0.15464  1.0000
  I   I88       1.0  0.05797  0.94570  0.01057  1.0000
  I   I89       1.0  0.76744  0.11400  0.63766  1.0000
  I   I90       1.0  0.20228  0.86223  0.65534  1.0000
  I   I91       1.0  0.11073  0.44768  0.64838  1.0000
  I   I92       1.0  0.79699  0.16382  0.01792  1.0000
  I   I93       1.0  0.01036  0.50820  0.41453  1.0000
  I   I94       1.0  0.59338  0.12342  0.67931  1.0000
  I   I95       1.0  0.77901  0.03284  0.43895  1.0000
  I   I96       1.0  0.53850  0.94473  0.98921  1.0000
  I   I97       1.0  0.49938  0.87327  0.35010  1.0000
  I   I98       1.0  0.67700  0.65863  0.24483  1.0000
  I   I99       1.0  0.89441  0.12746  0.23674  1.0000
  I   I100      1.0  0.28302  0.96367  0.55985  1.0000
  I   I101      1.0  0.17769  0.08359  0.55967  1.0000
  I   I102      1.0  0.10968  0.15753  0.33250  1.0000
  I   I103      1.0  0.92685  0.95179  0.36412  1.0000
  I   I104      1.0  0.08514  0.85949  0.31780  1.0000
  I   I105      1.0  0.03810  0.84057  0.75340  1.0000
  I   I106      1.0  0.89748  0.70740  0.12311  1.0000
  I   I107      1.0  0.32976  0.87026  0.95615  1.0000
  I   I108      1.0  0.99595  0.57412  0.96805  1.0000
  I   I109      1.0  0.29273  0.97928  0.21190  1.0000
  I   I110      1.0  0.42349  0.20442  0.56343  1.0000
  I   I111      1.0  0.28469  0.16690  0.48572  1.0000
  I   I112      1.0  0.19643  0.44913  0.21194  1.0000
  I   I113      1.0  0.19402  0.76192  0.87294  1.0000
  I   I114      1.0  0.27083  0.63938  0.05486  1.0000
  I   I115      1.0  0.67057  0.62216  0.69150  1.0000
  I   I116      1.0  0.61066  0.61667  0.78152  1.0000
  I   I117      1.0  0.82575  0.85101  0.89248  1.0000
  I   I118      1.0  0.42681  0.01874  0.54056  1.0000
  I   I119      1.0  0.49111  0.88561  0.50749  1.0000
  I   I120      1.0  0.76953  0.83139  0.35558  1.0000
  I   I121      1.0  0.39752  0.53590  0.93223  1.0000
  I   I122      1.0  0.30988  0.26530  0.94027  1.0000
  I   I123      1.0  0.33772  0.34699  0.95625  1.0000
  I   I124      1.0  0.77980  0.49617  0.64743  1.0000
  I   I125      1.0  0.42639  0.67109  0.85212  1.0000
  I   I126      1.0  0.66522  0.44427  0.76833  1.0000
  I   I127      1.0  0.90649  0.47786  0.92621  1.0000
  I   I128      1.0  0.86609  0.36963  0.37614  1.0000
  I   I129      1.0  0.88982  0.22283  0.63683  1.0000
  I   I130      1.0  0.90390  0.61186  0.59920  1.0000
  I   I131      1.0  0.98717  0.83331  0.99596  1.0000
  I   I132      1.0  0.61830  0.77204  0.01862  1.0000
  I   I133      1.0  0.58563  0.39166  0.15504  1.0000
  I   I134      1.0  0.56542  0.25870  0.24175  1.0000
  I   I135      1.0  0.44438  0.36743  0.36314  1.0000
  I   I136      1.0  0.13318  0.88248  0.55250  1.0000
  I   I137      1.0  0.17920  0.93561  0.06457  1.0000
  I   I138      1.0  0.74776  0.19935  0.55648  1.0000
  I   I139      1.0  0.06386  0.51648  0.48548  1.0000
  I   I140      1.0  0.84842  0.24078  0.19683  1.0000
  I   I141      1.0  0.99755  0.45092  0.45144  1.0000
  I   I142      1.0  0.55670  0.21622  0.92014  1.0000
  I   I143      1.0  0.73788  0.99111  0.51378  1.0000
  I   I144      1.0  0.58621  0.99314  0.99259  1.0000
  I   I145      1.0  0.53096  0.80716  0.41637  1.0000
  I   I146      1.0  0.86411  0.14169  0.43910  1.0000
  I   I147      1.0  0.53392  0.84521  0.22163  1.0000
  I   I148      1.0  0.21648  0.01784  0.46945  1.0000
  I   I149      1.0  0.03078  0.31109  0.29667  1.0000
  I   I150      1.0  0.09113  0.21865  0.76431  1.0000
  I   I151      1.0  0.98278  0.94060  0.25577  1.0000
  I   I152      1.0  0.07275  0.06793  0.78000  1.0000
  I   I153      1.0  0.92813  0.90860  0.74562  1.0000
  I   I154      1.0  0.39422  0.91289  0.02999  1.0000
  I   I155      1.0  0.05432  0.54156  0.89424  1.0000
  I   I156      1.0  0.96834  0.65066  0.93167  1.0000
  I   I157      1.0  0.26824  0.00193  0.05551  1.0000
  I   I158      1.0  0.25025  0.14612  0.30586  1.0000
  I   I159      1.0  0.33096  0.05959  0.97840  1.0000
  I   I160      1.0  0.15358  0.51188  0.13255  1.0000
  I   I161      1.0  0.18787  0.69317  0.91992  1.0000
  I   I162      1.0  0.17080  0.48187  0.33334  1.0000
  I   I163      1.0  0.60655  0.67370  0.61728  1.0000
  I   I164      1.0  0.72575  0.89587  0.88611  1.0000
  I   I165      1.0  0.26345  0.60171  0.66642  1.0000
  I   I166      1.0  0.50397  0.97391  0.58295  1.0000
  I   I167      1.0  0.80398  0.91260  0.31384  1.0000
  I   I168      1.0  0.42249  0.08984  0.67452  1.0000
  I   I169      1.0  0.27043  0.21512  0.98686  1.0000
  I   I170      1.0  0.25081  0.34247  0.88405  1.0000
  I   I171      1.0  0.42893  0.57583  0.84929  1.0000
  I   I172      1.0  0.83804  0.51019  0.67825  1.0000
  I   I173      1.0  0.64572  0.40477  0.88805  1.0000
  I   I174      1.0  0.73568  0.45960  0.81890  1.0000
  I   I175      1.0  0.81161  0.46523  0.27716  1.0000
  I   I176      1.0  0.83267  0.32607  0.67660  1.0000
  I   I177      1.0  0.96488  0.49207  0.98388  1.0000
  I   I178      1.0  0.91907  0.85281  0.02529  1.0000
  I   I179      1.0  0.68512  0.68942  0.97553  1.0000
  I   I180      1.0  0.89728  0.65386  0.72075  1.0000
  I   I181      1.0  0.67940  0.20485  0.26628  1.0000
  I   I182      1.0  0.53624  0.31365  0.35426  1.0000
  I   I183      1.0  0.58698  0.32719  0.98457  1.0000
  I   I184      1.0  0.10456  0.98457  0.95156  1.0000
  I   I185      1.0  0.77222  0.12407  0.48776  1.0000
  I   I186      1.0  0.22897  0.91422  0.36162  1.0000
  I   I187      1.0  0.87640  0.18402  0.07168  1.0000
  I   I188      1.0  0.99343  0.42592  0.60037  1.0000
  I   I189      1.0  0.96712  0.52166  0.54965  1.0000
  I   I190      1.0  0.63103  0.07712  0.47117  1.0000
  I   I191      1.0  0.58525  0.02137  0.16459  1.0000
  I   I192      1.0  0.52028  0.17197  0.86926  1.0000
  I   I193      1.0  0.66671  0.64702  0.39086  1.0000
  I   I194      1.0  0.86392  0.08507  0.34217  1.0000
  I   I195      1.0  0.58628  0.78855  0.27984  1.0000
  I   I196      1.0  0.19902  0.09753  0.68261  1.0000
  I   I197      1.0  0.12549  0.22123  0.39011  1.0000
  I   I198      1.0  0.10890  0.26355  0.84652  1.0000
  I   I199      1.0  0.05341  0.94016  0.29933  1.0000
  I   I200      1.0  0.95647  0.13858  0.61890  1.0000
  I   I201      1.0  0.93565  0.81940  0.64565  1.0000
  I   I202      1.0  0.32175  0.92282  0.06836  1.0000
  I   I203      1.0  0.99416  0.61173  0.82708  1.0000
  I   I204      1.0  0.96288  0.66603  0.21295  1.0000
  I   I205      1.0  0.47401  0.12911  0.54969  1.0000
  I   I206      1.0  0.29006  0.18489  0.35533  1.0000
  I   I207      1.0  0.39193  0.03703  0.09545  1.0000
  I   I208      1.0  0.11965  0.78750  0.85985  1.0000
  I   I209      1.0  0.24886  0.62355  0.92177  1.0000
  I   I210      1.0  0.13479  0.55038  0.28248  1.0000
  I   I211      1.0  0.63460  0.60490  0.52998  1.0000
  I   I212      1.0  0.74560  0.82052  0.88523  1.0000
  I   I213      1.0  0.19042  0.59674  0.66023  1.0000
  I   I214      1.0  0.45307  0.93429  0.61515  1.0000
  I   I215      1.0  0.73026  0.89895  0.29219  1.0000
  I   I216      1.0  0.40934  0.02353  0.67152  1.0000
  I   I217      1.0  0.29028  0.19055  0.84126  1.0000
  I   I218      1.0  0.27745  0.34484  0.01832  1.0000
  I   I219      1.0  0.42856  0.61769  0.73552  1.0000
  I   I220      1.0  0.42634  0.68078  0.99723  1.0000
  I   I221      1.0  0.58172  0.47314  0.92543  1.0000
  I   I222      1.0  0.77539  0.42990  0.67437  1.0000
  I   I223      1.0  0.84848  0.38395  0.23485  1.0000
  I   I224      1.0  0.87332  0.22782  0.48360  1.0000
  I   I225      1.0  0.00294  0.48719  0.83730  1.0000
  I   I226      1.0  0.95345  0.77624  0.94521  1.0000
  I   I227      1.0  0.76415  0.66146  0.02195  1.0000
  I   I228      1.0  0.86613  0.68810  0.59280  1.0000
  I   I229      1.0  0.63375  0.22836  0.14128  1.0000
  I   I230      1.0  0.47360  0.34543  0.49665  1.0000
  I   I231      1.0  0.51052  0.40351  0.01109  1.0000
  I   I232      1.0  0.14570  0.90177  0.97357  1.0000
  I   I233      1.0  0.63354  0.24179  0.56616  1.0000
  I   I234      1.0  0.26781  0.83835  0.39989  1.0000
  I   I235      1.0  0.85476  0.14273  0.95414  1.0000
  I   I236      1.0  0.92237  0.43141  0.58198  1.0000
  I   I237      1.0  0.05147  0.47307  0.55098  1.0000
  I   I238      1.0  0.66556  0.01065  0.56780  1.0000
  I   I239      1.0  0.64901  0.98757  0.07596  1.0000
  I   I240      1.0  0.48921  0.24705  0.82708  1.0000
  I   I241      1.0  0.58852  0.71580  0.34755  1.0000
  I   I242      1.0  0.93766  0.09765  0.35157  1.0000
  I   I243      1.0  0.49156  0.80841  0.28694  1.0000
  I   I244      1.0  0.24821  0.01707  0.65999  1.0000
  I   I245      1.0  0.04235  0.22890  0.31477  1.0000
  I   I246      1.0  0.15746  0.21075  0.91512  1.0000
  I   I247      1.0  0.04476  0.88536  0.19810  1.0000
  I   I248      1.0  0.99707  0.08085  0.68853  1.0000
  I   I249      1.0  0.90426  0.89186  0.60608  1.0000
  I   I250      1.0  0.38196  0.84908  0.06436  1.0000
  I   I251      1.0  0.05510  0.61222  0.86706  1.0000
  I   I252      1.0  0.91033  0.63553  0.18610  1.0000
  I   I253      1.0  0.38539  0.20146  0.44024  1.0000
  I   I254      1.0  0.32327  0.08730  0.43778  1.0000
  I   I255      1.0  0.38896  0.98512  0.99522  1.0000
  I   I256      1.0  0.10635  0.85729  0.94257  1.0000
  I   I257      1.0  0.19840  0.63604  0.03547  1.0000
  I   I258      1.0  0.10513  0.49648  0.25306  1.0000
  I   I259      1.0  0.62478  0.58398  0.65356  1.0000
  I   I260      1.0  0.77640  0.88062  0.75366  1.0000
  I   I261      1.0  0.21368  0.65898  0.78868  1.0000
  I   I262      1.0  0.53869  0.89025  0.59759  1.0000
  I   I263      1.0  0.77076  0.89534  0.43683  1.0000
  I   I264      1.0  0.48379  0.02171  0.69634  1.0000
  I   I265      1.0  0.34823  0.18926  0.94385  1.0000
  I   I266      1.0  0.25104  0.41402  0.96794  1.0000
  I   I267      1.0  0.32803  0.60695  0.83612  1.0000
  I   I268      1.0  0.48000  0.60362  0.93886  1.0000
  I   I269      1.0  0.59154  0.45142  0.78797  1.0000
  I   I270      1.0  0.80339  0.46067  0.78725  1.0000
  I   I271      1.0  0.80532  0.44962  0.39928  1.0000
  I   I272      1.0  0.81103  0.25360  0.58973  1.0000
  I   I273      1.0  0.93006  0.54527  0.88297  1.0000
  I   I274      1.0  0.93986  0.77830  0.09094  1.0000
  I   I275      1.0  0.66665  0.71856  0.10374  1.0000
  I   I276      1.0  0.86134  0.61528  0.73585  1.0000
  I   I277      1.0  0.63308  0.27502  0.23155  1.0000
  I   I278      1.0  0.42252  0.30897  0.42667  1.0000
  I   I279      1.0  0.57525  0.39043  0.86534  1.0000
  I   I280      1.0  0.09567  0.98208  0.09436  1.0000
  I   I281      1.0  0.70419  0.19476  0.65658  1.0000
  I   I282      1.0  0.17190  0.92766  0.63098  1.0000
  I   I283      1.0  0.80369  0.29162  0.10921  1.0000
  I   I284      1.0  0.97661  0.38913  0.45504  1.0000
  I   I285      1.0  0.01446  0.54563  0.61150  1.0000
  I   I286      1.0  0.70707  0.07343  0.50261  1.0000
  I   I287      1.0  0.54786  0.99062  0.10195  1.0000
  I   I288      1.0  0.52207  0.18063  0.67187  1.0000
  I   I289      1.0  0.64474  0.72584  0.33671  1.0000
  I   I290      1.0  0.75012  0.15684  0.31978  1.0000
  I   I291      1.0  0.97204  0.08084  0.15655  1.0000
  I   I292      1.0  0.14782  0.06259  0.67782  1.0000
  I   I293      1.0  0.09582  0.31161  0.38982  1.0000
  I   I294      1.0  0.09946  0.15038  0.68416  1.0000
  I   I295      1.0  0.99316  0.86858  0.29193  1.0000
  I   I296      1.0  0.03317  0.11955  0.68013  1.0000
  I   I297      1.0  0.98673  0.92119  0.71420  1.0000
  I   I298      1.0  0.36853  0.89238  0.20234  1.0000
  I   I299      1.0  0.27726  0.93236  0.85779  1.0000
  I   I300      1.0  0.97978  0.66857  0.06485  1.0000
  I   I301      1.0  0.30782  0.05032  0.12027  1.0000
  I   I302      1.0  0.42759  0.18922  0.29491  1.0000
  I   I303      1.0  0.24730  0.12787  0.44783  1.0000
  I   I304      1.0  0.19597  0.40083  0.33478  1.0000
  I   I305      1.0  0.19623  0.71328  0.06305  1.0000
  I   I306      1.0  0.04062  0.82995  0.47350  1.0000
  I   I307      1.0  0.56147  0.62156  0.54546  1.0000
  I   I308      1.0  0.77564  0.85230  0.99591  1.0000
  I   I309      1.0  0.18652  0.54899  0.79615  1.0000
  I   I310      1.0  0.52626  0.00535  0.45384  1.0000
  I   I311      1.0  0.86233  0.76243  0.29234  1.0000
  I   I312      1.0  0.75787  0.82757  0.52840  1.0000
  I   I313      1.0  0.35339  0.64433  0.70918  1.0000
  I   I314      1.0  0.27757  0.30442  0.74418  1.0000
  I   I315      1.0  0.27059  0.47862  0.94835  1.0000
  I   I316      1.0  0.79592  0.55892  0.78324  1.0000
  I   I317      1.0  0.56394  0.57325  0.94931  1.0000
  I   I318      1.0  0.67512  0.53186  0.85411  1.0000
  I   I319      1.0  0.88219  0.45149  0.80856  1.0000
  I   I320      1.0  0.90827  0.29102  0.34783  1.0000
  I   I321      1.0  0.87498  0.29530  0.55681  1.0000
  I   I322      1.0  0.91592  0.91758  0.93425  1.0000
  I   I323      1.0  0.59159  0.70995  0.06698  1.0000
  I   I324      1.0  0.84678  0.64889  0.48652  1.0000
  I   I325      1.0  0.63905  0.15328  0.06433  1.0000
  I   I326      1.0  0.51671  0.27268  0.44004  1.0000
  I   I327      1.0  0.52415  0.36045  0.89843  1.0000
  I   I328      1.0  0.16054  0.96957  0.19470  1.0000
  I   I329      1.0  0.69385  0.16917  0.51802  1.0000
  I   I330      1.0  0.22107  0.83909  0.51120  1.0000
  I   I331      1.0  0.12337  0.51303  0.59555  1.0000
  I   I332      1.0  0.80999  0.23364  0.96537  1.0000
  I   I333      1.0  0.92224  0.55998  0.41970  1.0000
  I   I334      1.0  0.60043  0.15518  0.80182  1.0000
  I   I335      1.0  0.69297  0.06944  0.37131  1.0000
  I   I336      1.0  0.59726  0.89386  0.05748  1.0000
  I   I337      1.0  0.60816  0.79220  0.42418  1.0000
  I   I338      1.0  0.81057  0.10690  0.20032  1.0000
  I   I339      1.0  0.94352  0.04188  0.25361  1.0000
  I   I340      1.0  0.18919  0.00954  0.59355  1.0000
  I   I341      1.0  0.06847  0.18649  0.45709  1.0000
  I   I342      1.0  0.14472  0.15901  0.81215  1.0000
  I   I343      1.0  0.96738  0.88172  0.42201  1.0000
  I   I344      1.0  0.08427  0.04420  0.61581  1.0000
  I   I345      1.0  0.96198  0.83537  0.74794  1.0000
  I   I346      1.0  0.29127  0.91131  0.17466  1.0000
  I   I347      1.0  0.34783  0.85098  0.80984  1.0000
  I   I348      1.0  0.98357  0.60369  0.12339  1.0000
  I   I349      1.0  0.23698  0.04930  0.17412  1.0000
  I   I350      1.0  0.37748  0.15863  0.33673  1.0000
  I   I351      1.0  0.28565  0.05358  0.34280  1.0000
  I   I352      1.0  0.11322  0.44478  0.34762  1.0000
  I   I353      1.0  0.18097  0.79223  0.00090  1.0000
  I   I354      1.0  0.05563  0.76197  0.56383  1.0000
  I   I355      1.0  0.59110  0.69302  0.75191  1.0000
  I   I356      1.0  0.72801  0.84498  0.75915  1.0000
  I   I357      1.0  0.16821  0.61147  0.87361  1.0000
  I   I358      1.0  0.44652  0.02800  0.40179  1.0000
  I   I359      1.0  0.85617  0.78949  0.15760  1.0000
  I   I360      1.0  0.81692  0.85331  0.50874  1.0000
  I   I361      1.0  0.39660  0.55677  0.73596  1.0000
  I   I362      1.0  0.33000  0.23581  0.81131  1.0000
  I   I363      1.0  0.23939  0.46085  0.82404  1.0000
  I   I364      1.0  0.77711  0.56890  0.62369  1.0000
  I   I365      1.0  0.50420  0.63972  0.02019  1.0000
  I   I366      1.0  0.62082  0.51144  0.79460  1.0000
  I   I367      1.0  0.92771  0.48289  0.78088  1.0000
  I   I368      1.0  0.90041  0.29599  0.21223  1.0000
  I   I369      1.0  0.81337  0.37676  0.53253  1.0000
  I   I370      1.0  0.89867  0.91897  0.07705  1.0000
  I   I371      1.0  0.61127  0.71997  0.93628  1.0000
  I   I372      1.0  0.79172  0.72186  0.51187  1.0000
  I   I373      1.0  0.69250  0.17627  0.06240  1.0000
  I   I374      1.0  0.54600  0.20975  0.35342  1.0000
  I   I375      1.0  0.58117  0.40339  0.01096  1.0000
  I   I376      1.0  0.11517  0.91084  0.10894  1.0000
  I   I377      1.0  0.67856  0.24189  0.46191  1.0000
  I   I378      1.0  0.17058  0.91237  0.47436  1.0000
  I   I379      1.0  0.12943  0.44664  0.50588  1.0000
  I   I380      1.0  0.86694  0.25480  0.02911  1.0000
  I   I381      1.0  0.95526  0.49632  0.33735  1.0000
  I   I382      1.0  0.59630  0.18867  0.64110  1.0000
  I   I383      1.0  0.76444  0.99122  0.36821  1.0000
  I   I384      1.0  0.61822  0.91895  0.94247  1.0000
