data_image0
_chemical_formula_structural       Ti96I384
_chemical_formula_sum              "Ti96 I384"
_cell_length_a       64.288
_cell_length_b       63.9934
_cell_length_c       31.2809
_cell_angle_alpha    88.7757
_cell_angle_beta     88.7757
_cell_angle_gamma    62.1586

_space_group_name_H-M_alt    "P 1"
_space_group_IT_number       1

loop_
  _space_group_symop_operation_xyz
  'x, y, z'

loop_
  _atom_site_type_symbol
  _atom_site_label
  _atom_site_symmetry_multiplicity
  _atom_site_fract_x
  _atom_site_fract_y
  _atom_site_fract_z
  _atom_site_occupancy
  Ti  Ti1       1.0  0.51899  0.90424  0.75657  1.0000
  Ti  Ti2       1.0  0.39328  0.14555  0.48588  1.0000
  Ti  Ti3       1.0  0.86354  0.75251  0.06378  1.0000
  Ti  Ti4       1.0  0.88761  0.19701  0.03586  1.0000
  Ti  Ti5       1.0  0.26227  0.78972  0.72604  1.0000
  Ti  Ti6       1.0  0.31457  0.22642  0.24666  1.0000
  Ti  Ti7       1.0  0.87492  0.90336  0.96386  1.0000
  Ti  Ti8       1.0  0.48852  0.36465  0.77659  1.0000
  Ti  Ti9       1.0  0.37181  0.85778  0.08822  1.0000
  Ti  Ti10      1.0  0.83967  0.64389  0.70347  1.0000
  Ti  Ti11      1.0  0.36136  0.37372  0.57078  1.0000
  Ti  Ti12      1.0  0.06644  0.63349  0.50328  1.0000
  Ti  Ti13      1.0  0.24745  0.35022  0.50084  1.0000
  Ti  Ti14      1.0  0.09021  0.00881  0.57992  1.0000
  Ti  Ti15      1.0  0.56892  0.07871  0.09945  1.0000
  Ti  Ti16      1.0  0.65051  0.96013  0.88817  1.0000
  Ti  Ti17      1.0  0.41447  0.19242  0.90773  1.0000
  Ti  Ti18      1.0  0.04176  0.69926  0.90757  1.0000
  Ti  Ti19      1.0  0.83170  0.82928  0.40683  1.0000
  Ti  Ti20      1.0  0.37836  0.06848  0.01950  1.0000
  Ti  Ti21      1.0  0.92331  0.13929  0.65647  1.0000
  Ti  Ti22      1.0  0.66655  0.40607  0.81206  1.0000
  Ti  Ti23      1.0  0.75683  0.92141  0.03630  1.0000
  Ti  Ti24      1.0  0.01616  0.72292  0.07399  1.0000
  Ti  Ti25      1.0  0.88123  0.55129  0.38335  1.0000
  Ti  Ti26      1.0  0.22853  0.05144  0.01569  1.0000
  Ti  Ti27      1.0  0.25595  0.51565  0.16703  1.0000
  Ti  Ti28      1.0  0.60490  0.37974  0.23865  1.0000
  Ti  Ti29      1.0  0.93080  0.89500  0.37841  1.0000
  Ti  Ti30      1.0  0.80694  0.39905  0.26619  1.0000
  Ti  Ti31      1.0  0.89307  0.30625  0.43516  1.0000
  Ti  Ti32      1.0  0.60348  0.18189  0.23598  1.0000
  Ti  Ti33      1.0  0.36416  0.90651  0.27969  1.0000
  Ti  Ti34      1.0  0.47062  0.70295  0.84211  1.0000
  Ti  Ti35      1.0  0.83496  0.49610  0.80079  1.0000
  Ti  Ti36      1.0  0.97529  0.55591  0.91829  1.0000
  Ti  Ti37      1.0  0.04319  0.25798  0.33895  1.0000
  Ti  Ti38      1.0  0.36695  0.50997  0.37150  1.0000
  Ti  Ti39      1.0  0.80769  0.18106  0.49497  1.0000
  Ti  Ti40      1.0  0.50917  0.86024  0.20893  1.0000
  Ti  Ti41      1.0  0.58713  0.67330  0.40328  1.0000
  Ti  Ti42      1.0  0.69175  0.26075  0.75876  1.0000
  Ti  Ti43      1.0  0.59247  0.11908  0.78742  1.0000
  Ti  Ti44      1.0  0.81442  0.50320  0.10035  1.0000
  Ti  Ti45      1.0  0.42964  0.58280  0.29537  1.0000
  Ti  Ti46      1.0  0.13996  0.40133  0.88906  1.0000
  Ti  Ti47      1.0  0.07639  0.33873  0.11060  1.0000
  Ti  Ti48      1.0  0.41175  0.69945  0.56888  1.0000
  Ti  Ti49      1.0  0.45365  0.94206  0.77472  1.0000
  Ti  Ti50      1.0  0.24304  0.16131  0.80709  1.0000
  Ti  Ti51      1.0  0.38998  0.09927  0.50866  1.0000
  Ti  Ti52      1.0  0.86357  0.13915  0.01568  1.0000
  Ti  Ti53      1.0  0.26372  0.68179  0.46237  1.0000
  Ti  Ti54      1.0  0.35339  0.16568  0.24103  1.0000
  Ti  Ti55      1.0  0.92561  0.91606  0.98399  1.0000
  Ti  Ti56      1.0  0.48985  0.31616  0.70078  1.0000
  Ti  Ti57      1.0  0.33275  0.85270  0.99799  1.0000
  Ti  Ti58      1.0  0.58242  0.09106  0.68383  1.0000
  Ti  Ti59      1.0  0.85792  0.68242  0.69051  1.0000
  Ti  Ti60      1.0  0.05743  0.69261  0.41848  1.0000
  Ti  Ti61      1.0  0.55292  0.13650  0.04895  1.0000
  Ti  Ti62      1.0  0.19530  0.41001  0.45486  1.0000
  Ti  Ti63      1.0  0.08634  0.96930  0.68050  1.0000
  Ti  Ti64      1.0  0.04438  0.72325  0.78048  1.0000
  Ti  Ti65      1.0  0.15225  0.52697  0.74944  1.0000
  Ti  Ti66      1.0  0.39788  0.41137  0.21001  1.0000
  Ti  Ti67      1.0  0.88298  0.80104  0.48012  1.0000
  Ti  Ti68      1.0  0.99923  0.26877  0.71531  1.0000
  Ti  Ti69      1.0  0.97279  0.14381  0.59293  1.0000
  Ti  Ti70      1.0  0.61544  0.41018  0.78932  1.0000
  Ti  Ti71      1.0  0.71240  0.89123  0.99220  1.0000
  Ti  Ti72      1.0  0.05387  0.00292  0.19024  1.0000
  Ti  Ti73      1.0  0.23648  0.59138  0.18891  1.0000
  Ti  Ti74      1.0  0.94217  0.49530  0.40481  1.0000
  Ti  Ti75      1.0  0.24781  0.01576  0.07505  1.0000
  Ti  Ti76      1.0  0.83848  0.35315  0.16547  1.0000
  Ti  Ti77      1.0  0.62397  0.41581  0.18926  1.0000
  Ti  Ti78      1.0  0.93163  0.93680  0.25340  1.0000
  Ti  Ti79      1.0  0.20440  0.61222  0.76117  1.0000
  Ti  Ti80      1.0  0.88338  0.36153  0.46511  1.0000
  Ti  Ti81      1.0  0.66267  0.16671  0.18200  1.0000
  Ti  Ti82      1.0  0.48207  0.63780  0.87663  1.0000
  Ti  Ti83      1.0  0.79999  0.54908  0.74408  1.0000
  Ti  Ti84      1.0  0.00764  0.51428  0.96503  1.0000
  Ti  Ti85      1.0  0.98340  0.30663  0.23747  1.0000
  Ti  Ti86      1.0  0.36175  0.45314  0.33275  1.0000
  Ti  Ti87      1.0  0.74765  0.23455  0.43061  1.0000
  Ti  Ti88      1.0  0.58978  0.86217  0.99721  1.0000
  Ti  Ti89      1.0  0.54076  0.72456  0.44320  1.0000
  Ti  Ti90      1.0  0.67233  0.23395  0.70758  1.0000
  Ti  Ti91      1.0  0.43129  0.60959  0.16785  1.0000
  Ti  Ti92      1.0  0.84130  0.04448  0.64720  1.0000
  Ti  Ti93      1.0  0.74145  0.56434  0.14241  1.0000
  Ti  Ti94      1.0  0.39957  0.65792  0.63670  1.0000
  Ti  Ti95      1.0  0.18794  0.40116  0.90482  1.0000
  Ti  Ti96      1.0  0.08238  0.29379  0.98783  1.0000
  I   I1        1.0  0.10075  0.30148  0.91825  1.0000
  I   I2        1.0  0.39894  0.11428  0.42011  1.0000
  I   I3        1.0  0.43901  0.93955  0.85654  1.0000
  I   I4        1.0  0.29333  0.69766  0.47184  1.0000
  I   I5        1.0  0.29598  0.26420  0.19328  1.0000
  I   I6        1.0  0.36474  0.20345  0.26548  1.0000
  I   I7        1.0  0.48347  0.36434  0.67920  1.0000
  I   I8        1.0  0.52007  0.38100  0.77293  1.0000
  I   I9        1.0  0.38066  0.81657  0.04102  1.0000
  I   I10       1.0  0.87264  0.64523  0.63345  1.0000
  I   I11       1.0  0.34389  0.35990  0.63202  1.0000
  I   I12       1.0  0.22135  0.80580  0.69181  1.0000
  I   I13       1.0  0.21228  0.39273  0.54759  1.0000
  I   I14       1.0  0.10455  0.92541  0.66457  1.0000
  I   I15       1.0  0.54111  0.07617  0.16175  1.0000
  I   I16       1.0  0.69628  0.92441  0.86051  1.0000
  I   I17       1.0  0.37453  0.41281  0.14647  1.0000
  I   I18       1.0  0.03511  0.76566  0.75574  1.0000
  I   I19       1.0  0.34896  0.10990  0.98536  1.0000
  I   I20       1.0  0.40719  0.35058  0.56290  1.0000
  I   I21       1.0  0.92409  0.10926  0.71402  1.0000
  I   I22       1.0  0.77559  0.93565  0.96757  1.0000
  I   I23       1.0  0.72630  0.92783  0.95948  1.0000
  I   I24       1.0  0.64522  0.36259  0.78596  1.0000
  I   I25       1.0  0.98457  0.47053  0.43394  1.0000
  I   I26       1.0  0.21241  0.00748  0.05341  1.0000
  I   I27       1.0  0.25232  0.50475  0.08938  1.0000
  I   I28       1.0  0.65873  0.41015  0.14320  1.0000
  I   I29       1.0  0.94686  0.92818  0.17763  1.0000
  I   I30       1.0  0.86281  0.30936  0.18659  1.0000
  I   I31       1.0  0.90921  0.31684  0.51729  1.0000
  I   I32       1.0  0.65975  0.20156  0.13825  1.0000
  I   I33       1.0  0.23665  0.57980  0.71029  1.0000
  I   I34       1.0  0.78645  0.58599  0.79092  1.0000
  I   I35       1.0  0.01763  0.48635  0.03583  1.0000
  I   I36       1.0  0.47343  0.73794  0.87459  1.0000
  I   I37       1.0  0.01707  0.28394  0.41215  1.0000
  I   I38       1.0  0.78396  0.15812  0.51116  1.0000
  I   I39       1.0  0.05834  0.21604  0.37560  1.0000
  I   I40       1.0  0.54281  0.75409  0.38876  1.0000
  I   I41       1.0  0.66705  0.20586  0.76063  1.0000
  I   I42       1.0  0.51814  0.81638  0.21837  1.0000
  I   I43       1.0  0.54652  0.08988  0.72352  1.0000
  I   I44       1.0  0.69548  0.58525  0.12272  1.0000
  I   I45       1.0  0.42173  0.59614  0.09628  1.0000
  I   I46       1.0  0.10191  0.41912  0.93445  1.0000
  I   I47       1.0  0.05649  0.33822  0.02583  1.0000
  I   I48       1.0  0.35510  0.67689  0.66287  1.0000
  I   I49       1.0  0.44012  0.98696  0.77980  1.0000
  I   I50       1.0  0.40828  0.17197  0.53293  1.0000
  I   I51       1.0  0.40470  0.16409  0.41736  1.0000
  I   I52       1.0  0.93244  0.18923  0.04789  1.0000
  I   I53       1.0  0.26942  0.66530  0.38394  1.0000
  I   I54       1.0  0.39144  0.12901  0.26538  1.0000
  I   I55       1.0  0.88165  0.94793  0.94477  1.0000
  I   I56       1.0  0.53086  0.30466  0.74355  1.0000
  I   I57       1.0  0.36286  0.87062  0.99322  1.0000
  I   I58       1.0  0.81376  0.65770  0.77621  1.0000
  I   I59       1.0  0.81111  0.64434  0.64729  1.0000
  I   I60       1.0  0.03722  0.64494  0.56921  1.0000
  I   I61       1.0  0.17960  0.41968  0.37220  1.0000
  I   I62       1.0  0.17236  0.38831  0.46788  1.0000
  I   I63       1.0  0.07736  0.00335  0.73969  1.0000
  I   I64       1.0  0.63578  0.99178  0.94009  1.0000
  I   I65       1.0  0.11798  0.56746  0.72430  1.0000
  I   I66       1.0  0.41138  0.37025  0.24451  1.0000
  I   I67       1.0  0.84688  0.85214  0.47120  1.0000
  I   I68       1.0  0.41556  0.06587  0.97597  1.0000
  I   I69       1.0  0.92823  0.18454  0.60147  1.0000
  I   I70       1.0  0.59093  0.39838  0.84957  1.0000
  I   I71       1.0  0.67183  0.91533  0.94423  1.0000
  I   I72       1.0  0.08745  0.96274  0.20555  1.0000
  I   I73       1.0  0.23387  0.54621  0.23795  1.0000
  I   I74       1.0  0.23807  0.08447  0.98158  1.0000
  I   I75       1.0  0.27965  0.97433  0.05616  1.0000
  I   I76       1.0  0.61062  0.33761  0.22126  1.0000
  I   I77       1.0  0.59245  0.44425  0.12555  1.0000
  I   I78       1.0  0.92520  0.90235  0.28673  1.0000
  I   I79       1.0  0.38311  0.86395  0.25349  1.0000
  I   I80       1.0  0.87768  0.39413  0.52369  1.0000
  I   I81       1.0  0.63391  0.20271  0.26656  1.0000
  I   I82       1.0  0.48500  0.70386  0.76267  1.0000
  I   I83       1.0  0.82227  0.55913  0.68575  1.0000
  I   I84       1.0  0.93132  0.56562  0.93057  1.0000
  I   I85       1.0  0.01732  0.31321  0.27731  1.0000
  I   I86       1.0  0.36981  0.48932  0.28833  1.0000
  I   I87       1.0  0.80934  0.18733  0.57534  1.0000
  I   I88       1.0  0.48742  0.88418  0.13716  1.0000
  I   I89       1.0  0.58598  0.70295  0.46913  1.0000
  I   I90       1.0  0.70418  0.20544  0.65398  1.0000
  I   I91       1.0  0.40349  0.58936  0.21218  1.0000
  I   I92       1.0  0.85187  0.06047  0.71001  1.0000
  I   I93       1.0  0.85487  0.49143  0.13069  1.0000
  I   I94       1.0  0.38431  0.67919  0.54906  1.0000
  I   I95       1.0  0.19295  0.37025  0.84577  1.0000
  I   I96       1.0  0.11280  0.24744  0.00436  1.0000
  I   I97       1.0  0.83213  0.75945  0.00156  1.0000
  I   I98       1.0  0.47475  0.88949  0.77294  1.0000
  I   I99       1.0  0.39954  0.06570  0.56364  1.0000
  I   I100      1.0  0.87193  0.13985  0.09769  1.0000
  I   I101      1.0  0.84850  0.19103  0.99673  1.0000
  I   I102      1.0  0.29828  0.75899  0.68305  1.0000
  I   I103      1.0  0.84064  0.92603  0.01100  1.0000
  I   I104      1.0  0.92990  0.94890  0.02299  1.0000
  I   I105      1.0  0.33768  0.81794  0.94968  1.0000
  I   I106      1.0  0.03178  0.74108  0.41622  1.0000
  I   I107      1.0  0.86342  0.60125  0.73447  1.0000
  I   I108      1.0  0.10426  0.62254  0.54316  1.0000
  I   I109      1.0  0.53108  0.10536  0.03912  1.0000
  I   I110      1.0  0.27825  0.33581  0.56287  1.0000
  I   I111      1.0  0.06691  0.03758  0.63943  1.0000
  I   I112      1.0  0.03740  0.72511  0.98619  1.0000
  I   I113      1.0  0.18883  0.50975  0.70093  1.0000
  I   I114      1.0  0.46437  0.16459  0.90415  1.0000
  I   I115      1.0  0.81696  0.80116  0.37856  1.0000
  I   I116      1.0  0.88428  0.77954  0.40864  1.0000
  I   I117      1.0  0.97629  0.31356  0.69923  1.0000
  I   I118      1.0  0.59523  0.42019  0.71957  1.0000
  I   I119      1.0  0.68113  0.43309  0.85837  1.0000
  I   I120      1.0  0.06389  0.03618  0.16567  1.0000
  I   I121      1.0  0.20212  0.59169  0.14726  1.0000
  I   I122      1.0  0.86204  0.59529  0.35537  1.0000
  I   I123      1.0  0.18606  0.05839  0.99155  1.0000
  I   I124      1.0  0.81076  0.35264  0.10386  1.0000
  I   I125      1.0  0.64806  0.37072  0.22756  1.0000
  I   I126      1.0  0.91800  0.86202  0.35980  1.0000
  I   I127      1.0  0.33764  0.91064  0.34603  1.0000
  I   I128      1.0  0.84529  0.32565  0.41957  1.0000
  I   I129      1.0  0.67036  0.14614  0.10478  1.0000
  I   I130      1.0  0.02257  0.54641  0.95372  1.0000
  I   I131      1.0  0.46981  0.68279  0.92320  1.0000
  I   I132      1.0  0.83021  0.50134  0.70678  1.0000
  I   I133      1.0  0.84620  0.15062  0.46486  1.0000
  I   I134      1.0  0.34557  0.51960  0.44786  1.0000
  I   I135      1.0  0.38856  0.46016  0.39343  1.0000
  I   I136      1.0  0.68464  0.28438  0.83069  1.0000
  I   I137      1.0  0.57183  0.89934  0.94243  1.0000
  I   I138      1.0  0.60780  0.68622  0.34800  1.0000
  I   I139      1.0  0.40644  0.59260  0.36741  1.0000
  I   I140      1.0  0.84056  0.06576  0.57548  1.0000
  I   I141      1.0  0.78824  0.52049  0.17099  1.0000
  I   I142      1.0  0.44971  0.70511  0.56767  1.0000
  I   I143      1.0  0.12694  0.38448  0.82572  1.0000
  I   I144      1.0  0.04009  0.33832  0.14593  1.0000
  I   I145      1.0  0.48739  0.94380  0.71985  1.0000
  I   I146      1.0  0.35196  0.18170  0.51582  1.0000
  I   I147      1.0  0.90188  0.74866  0.03280  1.0000
  I   I148      1.0  0.89622  0.10015  0.97732  1.0000
  I   I149      1.0  0.25856  0.78466  0.80729  1.0000
  I   I150      1.0  0.34516  0.13184  0.19279  1.0000
  I   I151      1.0  0.96759  0.89010  0.03117  1.0000
  I   I152      1.0  0.48480  0.35117  0.85270  1.0000
  I   I153      1.0  0.31182  0.84002  0.06908  1.0000
  I   I154      1.0  0.61238  0.07240  0.74242  1.0000
  I   I155      1.0  0.34518  0.36406  0.49884  1.0000
  I   I156      1.0  0.02909  0.69001  0.35463  1.0000
  I   I157      1.0  0.59562  0.03400  0.08320  1.0000
  I   I158      1.0  0.04639  0.96795  0.69810  1.0000
  I   I159      1.0  0.58000  0.15586  0.03629  1.0000
  I   I160      1.0  0.01219  0.73816  0.86310  1.0000
  I   I161      1.0  0.41547  0.20581  0.98463  1.0000
  I   I162      1.0  0.07552  0.70667  0.71895  1.0000
  I   I163      1.0  0.92035  0.80368  0.45226  1.0000
  I   I164      1.0  0.04001  0.26777  0.72864  1.0000
  I   I165      1.0  0.97360  0.10065  0.60647  1.0000
  I   I166      1.0  0.64992  0.39538  0.88298  1.0000
  I   I167      1.0  0.79586  0.90545  0.07507  1.0000
  I   I168      1.0  0.97791  0.73914  0.03163  1.0000
  I   I169      1.0  0.92770  0.54337  0.37524  1.0000
  I   I170      1.0  0.84299  0.55825  0.43098  1.0000
  I   I171      1.0  0.23227  0.62926  0.15104  1.0000
  I   I172      1.0  0.80553  0.35451  0.24386  1.0000
  I   I173      1.0  0.93114  0.93548  0.39061  1.0000
  I   I174      1.0  0.77820  0.40024  0.32128  1.0000
  I   I175      1.0  0.89002  0.27560  0.49368  1.0000
  I   I176      1.0  0.58889  0.18809  0.15687  1.0000
  I   I177      1.0  0.16646  0.65432  0.74584  1.0000
  I   I178      1.0  0.51448  0.59578  0.86867  1.0000
  I   I179      1.0  0.75844  0.55956  0.71978  1.0000
  I   I180      1.0  0.97689  0.50707  0.91367  1.0000
  I   I181      1.0  0.97916  0.29284  0.15951  1.0000
  I   I182      1.0  0.40744  0.41979  0.30283  1.0000
  I   I183      1.0  0.72791  0.28017  0.41629  1.0000
  I   I184      1.0  0.62399  0.82820  0.96240  1.0000
  I   I185      1.0  0.62718  0.63430  0.42201  1.0000
  I   I186      1.0  0.64892  0.26660  0.78440  1.0000
  I   I187      1.0  0.87290  0.99858  0.63825  1.0000
  I   I188      1.0  0.81117  0.46197  0.08442  1.0000
  I   I189      1.0  0.45416  0.53667  0.29300  1.0000
  I   I190      1.0  0.17101  0.42185  0.98085  1.0000
  I   I191      1.0  0.28339  0.14592  0.77313  1.0000
  I   I192      1.0  0.43882  0.64936  0.57103  1.0000
  I   I193      1.0  0.41418  0.94307  0.73829  1.0000
  I   I194      1.0  0.22707  0.20157  0.76429  1.0000
  I   I195      1.0  0.87406  0.71738  0.11030  1.0000
  I   I196      1.0  0.89165  0.22508  0.97360  1.0000
  I   I197      1.0  0.54802  0.13350  0.78195  1.0000
  I   I198      1.0  0.34338  0.19500  0.17466  1.0000
  I   I199      1.0  0.94080  0.91259  0.90548  1.0000
  I   I200      1.0  0.50231  0.30582  0.62093  1.0000
  I   I201      1.0  0.36064  0.83523  0.15075  1.0000
  I   I202      1.0  0.87847  0.64357  0.75557  1.0000
  I   I203      1.0  0.88593  0.17763  0.68766  1.0000
  I   I204      1.0  0.07591  0.64167  0.41276  1.0000
  I   I205      1.0  0.17080  0.45662  0.47032  1.0000
  I   I206      1.0  0.06090  0.02671  0.51548  1.0000
  I   I207      1.0  0.58826  0.09003  0.02411  1.0000
  I   I208      1.0  0.63608  0.98657  0.81721  1.0000
  I   I209      1.0  0.38426  0.17945  0.87712  1.0000
  I   I210      1.0  0.07753  0.69826  0.84439  1.0000
  I   I211      1.0  0.84991  0.83566  0.34035  1.0000
  I   I212      1.0  0.34968  0.05104  0.04495  1.0000
  I   I213      1.0  0.95674  0.14988  0.68615  1.0000
  I   I214      1.0  0.61549  0.44773  0.82770  1.0000
  I   I215      1.0  0.72518  0.95918  0.06721  1.0000
  I   I216      1.0  0.03465  0.67436  0.06655  1.0000
  I   I217      1.0  0.87345  0.53028  0.32265  1.0000
  I   I218      1.0  0.27148  0.04050  0.06716  1.0000
  I   I219      1.0  0.27120  0.54839  0.14852  1.0000
  I   I220      1.0  0.60337  0.37403  0.32165  1.0000
  I   I221      1.0  0.90136  0.89885  0.44396  1.0000
  I   I222      1.0  0.79095  0.41478  0.18671  1.0000
  I   I223      1.0  0.90273  0.37785  0.41237  1.0000
  I   I224      1.0  0.64824  0.13674  0.23408  1.0000
  I   I225      1.0  0.40081  0.90143  0.32040  1.0000
  I   I226      1.0  0.45794  0.64305  0.80675  1.0000
  I   I227      1.0  0.83449  0.50314  0.89516  1.0000
  I   I228      1.0  0.96261  0.59957  0.90739  1.0000
  I   I229      1.0  0.96591  0.35194  0.21575  1.0000
  I   I230      1.0  0.40293  0.51743  0.40262  1.0000
  I   I231      1.0  0.73695  0.22729  0.51607  1.0000
  I   I232      1.0  0.48222  0.88553  0.27263  1.0000
  I   I233      1.0  0.55018  0.67690  0.46660  1.0000
  I   I234      1.0  0.72297  0.27438  0.73537  1.0000
  I   I235      1.0  0.60652  0.08545  0.61237  1.0000
  I   I236      1.0  0.75076  0.60079  0.10397  1.0000
  I   I237      1.0  0.46300  0.58311  0.35030  1.0000
  I   I238      1.0  0.14417  0.43326  0.84128  1.0000
  I   I239      1.0  0.04380  0.29992  0.95698  1.0000
  I   I240      1.0  0.41493  0.61203  0.60955  1.0000
  I   I241      1.0  0.55811  0.90817  0.73715  1.0000
  I   I242      1.0  0.42460  0.10777  0.53126  1.0000
  I   I243      1.0  0.85008  0.78770  0.12037  1.0000
  I   I244      1.0  0.82544  0.13881  0.99394  1.0000
  I   I245      1.0  0.28248  0.63897  0.48861  1.0000
  I   I246      1.0  0.28175  0.21723  0.21421  1.0000
  I   I247      1.0  0.90502  0.89750  0.03781  1.0000
  I   I248      1.0  0.45335  0.34768  0.75698  1.0000
  I   I249      1.0  0.29595  0.88751  0.96512  1.0000
  I   I250      1.0  0.86591  0.71335  0.64439  1.0000
  I   I251      1.0  0.34573  0.41921  0.56654  1.0000
  I   I252      1.0  0.03743  0.68680  0.50043  1.0000
  I   I253      1.0  0.22674  0.32545  0.53053  1.0000
  I   I254      1.0  0.07740  0.97405  0.59534  1.0000
  I   I255      1.0  0.52581  0.15667  0.11273  1.0000
  I   I256      1.0  0.13343  0.50213  0.78375  1.0000
  I   I257      1.0  0.40593  0.23277  0.87466  1.0000
  I   I258      1.0  0.00928  0.72599  0.73306  1.0000
  I   I259      1.0  0.90495  0.78121  0.54960  1.0000
  I   I260      1.0  0.00024  0.24243  0.65220  1.0000
  I   I261      1.0  0.90816  0.13332  0.58205  1.0000
  I   I262      1.0  0.70648  0.36874  0.78823  1.0000
  I   I263      1.0  0.71836  0.85130  0.96119  1.0000
  I   I264      1.0  0.00536  0.72117  0.15924  1.0000
  I   I265      1.0  0.90173  0.51671  0.45235  1.0000
  I   I266      1.0  0.21450  0.07054  0.09615  1.0000
  I   I267      1.0  0.21182  0.61162  0.25496  1.0000
  I   I268      1.0  0.57672  0.42674  0.23449  1.0000
  I   I269      1.0  0.89366  0.97546  0.23975  1.0000
  I   I270      1.0  0.87098  0.35278  0.11780  1.0000
  I   I271      1.0  0.91440  0.26523  0.38812  1.0000
  I   I272      1.0  0.70167  0.15509  0.21778  1.0000
  I   I273      1.0  0.35568  0.93633  0.21181  1.0000
  I   I274      1.0  0.42703  0.72722  0.82608  1.0000
  I   I275      1.0  0.86376  0.45028  0.82311  1.0000
  I   I276      1.0  0.97698  0.55852  0.02190  1.0000
  I   I277      1.0  0.02458  0.25736  0.26118  1.0000
  I   I278      1.0  0.32194  0.48772  0.35399  1.0000
  I   I279      1.0  0.78151  0.19132  0.40828  1.0000
  I   I280      1.0  0.60491  0.88606  0.04370  1.0000
  I   I281      1.0  0.51162  0.72014  0.38463  1.0000
  I   I282      1.0  0.71784  0.21367  0.76685  1.0000
  I   I283      1.0  0.59147  0.09687  0.85845  1.0000
  I   I284      1.0  0.76600  0.53141  0.08035  1.0000
  I   I285      1.0  0.47164  0.57617  0.18311  1.0000
  I   I286      1.0  0.20289  0.42578  0.85834  1.0000
  I   I287      1.0  0.10096  0.29142  0.08154  1.0000
  I   I288      1.0  0.38655  0.73019  0.50516  1.0000
  I   I289      1.0  0.51394  0.91271  0.83812  1.0000
  I   I290      1.0  0.22562  0.13476  0.77087  1.0000
  I   I291      1.0  0.37481  0.07458  0.46304  1.0000
  I   I292      1.0  0.85639  0.23930  0.06601  1.0000
  I   I293      1.0  0.22080  0.69365  0.48204  1.0000
  I   I294      1.0  0.29460  0.25236  0.31247  1.0000
  I   I295      1.0  0.88750  0.86020  0.96011  1.0000
  I   I296      1.0  0.45682  0.40901  0.79404  1.0000
  I   I297      1.0  0.34260  0.90034  0.09114  1.0000
  I   I298      1.0  0.58142  0.05126  0.65954  1.0000
  I   I299      1.0  0.81267  0.70222  0.66719  1.0000
  I   I300      1.0  0.09277  0.69240  0.38074  1.0000
  I   I301      1.0  0.58310  0.10216  0.14935  1.0000
  I   I302      1.0  0.24153  0.39033  0.45135  1.0000
  I   I303      1.0  0.12447  0.01733  0.55521  1.0000
  I   I304      1.0  0.07656  0.65818  0.92036  1.0000
  I   I305      1.0  0.61617  0.94966  0.87854  1.0000
  I   I306      1.0  0.35485  0.44082  0.24840  1.0000
  I   I307      1.0  0.84012  0.79582  0.48712  1.0000
  I   I308      1.0  0.40125  0.05916  0.09458  1.0000
  I   I309      1.0  0.00918  0.14713  0.60837  1.0000
  I   I310      1.0  0.65361  0.42284  0.73572  1.0000
  I   I311      1.0  0.68471  0.89137  0.05009  1.0000
  I   I312      1.0  0.03258  0.99103  0.13528  1.0000
  I   I313      1.0  0.28836  0.49354  0.22355  1.0000
  I   I314      1.0  0.93436  0.45970  0.41214  1.0000
  I   I315      1.0  0.25268  0.02212  0.95426  1.0000
  I   I316      1.0  0.81453  0.43193  0.30087  1.0000
  I   I317      1.0  0.61796  0.44930  0.24222  1.0000
  I   I318      1.0  0.96509  0.93955  0.28728  1.0000
  I   I319      1.0  0.18489  0.59401  0.80813  1.0000
  I   I320      1.0  0.83822  0.38683  0.43646  1.0000
  I   I321      1.0  0.58312  0.15914  0.26603  1.0000
  I   I322      1.0  0.51363  0.65745  0.85492  1.0000
  I   I323      1.0  0.86555  0.51238  0.77724  1.0000
  I   I324      1.0  0.97735  0.54840  0.83837  1.0000
  I   I325      1.0  0.95751  0.29408  0.29147  1.0000
  I   I326      1.0  0.34875  0.42454  0.37356  1.0000
  I   I327      1.0  0.79398  0.22636  0.45412  1.0000
  I   I328      1.0  0.54299  0.87169  0.19972  1.0000
  I   I329      1.0  0.50787  0.76097  0.48750  1.0000
  I   I330      1.0  0.66272  0.28066  0.68383  1.0000
  I   I331      1.0  0.43377  0.61971  0.26244  1.0000
  I   I332      1.0  0.60869  0.14764  0.80536  1.0000
  I   I333      1.0  0.73160  0.57233  0.22235  1.0000
  I   I334      1.0  0.41965  0.64873  0.70629  1.0000
  I   I335      1.0  0.16144  0.37709  0.95402  1.0000
  I   I336      1.0  0.10819  0.32316  0.16619  1.0000
  I   I337      1.0  0.54964  0.85833  0.74682  1.0000
  I   I338      1.0  0.23680  0.17957  0.88372  1.0000
  I   I339      1.0  0.34857  0.12540  0.56255  1.0000
  I   I340      1.0  0.90949  0.15025  0.00490  1.0000
  I   I341      1.0  0.27801  0.82336  0.72559  1.0000
  I   I342      1.0  0.32507  0.17811  0.30659  1.0000
  I   I343      1.0  0.84649  0.91744  0.89378  1.0000
  I   I344      1.0  0.46560  0.28819  0.71640  1.0000
  I   I345      1.0  0.40843  0.85650  0.12434  1.0000
  I   I346      1.0  0.58627  0.13295  0.70075  1.0000
  I   I347      1.0  0.84926  0.70344  0.76016  1.0000
  I   I348      1.0  0.05680  0.60358  0.46976  1.0000
  I   I349      1.0  0.52053  0.16105  0.99128  1.0000
  I   I350      1.0  0.27660  0.32468  0.43834  1.0000
  I   I351      1.0  0.12601  0.97678  0.64522  1.0000
  I   I352      1.0  0.00917  0.68989  0.93010  1.0000
  I   I353      1.0  0.17706  0.53001  0.81240  1.0000
  I   I354      1.0  0.43556  0.41270  0.18482  1.0000
  I   I355      1.0  0.79116  0.86661  0.40352  1.0000
  I   I356      1.0  0.98284  0.25539  0.78157  1.0000
  I   I357      1.0  0.97566  0.12052  0.51898  1.0000
  I   I358      1.0  0.02086  0.76109  0.09702  1.0000
  I   I359      1.0  0.75311  0.88197  0.02512  1.0000
  I   I360      1.0  0.04052  0.00689  0.27116  1.0000
  I   I361      1.0  0.24662  0.48184  0.20484  1.0000
  I   I362      1.0  0.95317  0.48776  0.31836  1.0000
  I   I363      1.0  0.26487  0.00012  0.15267  1.0000
  I   I364      1.0  0.85168  0.37909  0.21482  1.0000
  I   I365      1.0  0.59735  0.38806  0.14779  1.0000
  I   I366      1.0  0.97351  0.85600  0.38670  1.0000
  I   I367      1.0  0.22814  0.61973  0.82152  1.0000
  I   I368      1.0  0.92599  0.32006  0.41430  1.0000
  I   I369      1.0  0.57582  0.22336  0.26936  1.0000
  I   I370      1.0  0.44975  0.64144  0.93323  1.0000
  I   I371      1.0  0.79065  0.52628  0.80479  1.0000
  I   I372      1.0  0.04382  0.48553  0.92071  1.0000
  I   I373      1.0  0.07679  0.26644  0.32178  1.0000
  I   I374      1.0  0.34691  0.55629  0.34968  1.0000
  I   I375      1.0  0.71335  0.23145  0.39317  1.0000
  I   I376      1.0  0.56077  0.84703  0.02627  1.0000
  I   I377      1.0  0.56572  0.65538  0.35277  1.0000
  I   I378      1.0  0.63046  0.24847  0.67689  1.0000
  I   I379      1.0  0.44245  0.64135  0.14462  1.0000
  I   I380      1.0  0.80010  0.04791  0.66707  1.0000
  I   I381      1.0  0.82261  0.51639  0.02616  1.0000
  I   I382      1.0  0.38832  0.72797  0.62551  1.0000
  I   I383      1.0  0.22494  0.37099  0.94518  1.0000
  I   I384      1.0  0.07694  0.37967  0.10442  1.0000
