data_image0
_chemical_formula_structural       Ti96I384
_chemical_formula_sum              "Ti96 I384"
_cell_length_a       41.3064
_cell_length_b       40.8252
_cell_length_c       22.3522
_cell_angle_alpha    88.7757
_cell_angle_beta     88.7757
_cell_angle_gamma    62.1586

_space_group_name_H-M_alt    "P 1"
_space_group_IT_number       1

loop_
  _space_group_symop_operation_xyz
  'x, y, z'

loop_
  _atom_site_type_symbol
  _atom_site_label
  _atom_site_symmetry_multiplicity
  _atom_site_fract_x
  _atom_site_fract_y
  _atom_site_fract_z
  _atom_site_occupancy
  Ti  Ti1       1.0  0.18222  0.07536  0.07167  1.0000
  Ti  Ti2       1.0  0.16193  0.10932  0.44334  1.0000
  Ti  Ti3       1.0  0.15158  0.09624  0.76530  1.0000
  Ti  Ti4       1.0  0.20396  0.33513  0.20515  1.0000
  Ti  Ti5       1.0  0.22025  0.31083  0.53066  1.0000
  Ti  Ti6       1.0  0.21594  0.30772  0.86192  1.0000
  Ti  Ti7       1.0  0.10075  0.68042  0.34373  1.0000
  Ti  Ti8       1.0  0.10455  0.67127  0.68463  1.0000
  Ti  Ti9       1.0  0.09325  0.67848  0.03002  1.0000
  Ti  Ti10      1.0  0.14101  0.87040  0.23968  1.0000
  Ti  Ti11      1.0  0.15581  0.84771  0.58296  1.0000
  Ti  Ti12      1.0  0.15490  0.87099  0.92311  1.0000
  Ti  Ti13      1.0  0.46782  0.04556  0.27643  1.0000
  Ti  Ti14      1.0  0.44702  0.05077  0.60398  1.0000
  Ti  Ti15      1.0  0.47050  0.04175  0.92808  1.0000
  Ti  Ti16      1.0  0.33795  0.45392  0.39710  1.0000
  Ti  Ti17      1.0  0.36079  0.42303  0.71941  1.0000
  Ti  Ti18      1.0  0.35965  0.41612  0.06511  1.0000
  Ti  Ti19      1.0  0.42257  0.61953  0.42459  1.0000
  Ti  Ti20      1.0  0.43115  0.59369  0.77258  1.0000
  Ti  Ti21      1.0  0.40588  0.61975  0.10791  1.0000
  Ti  Ti22      1.0  0.46098  0.79332  0.04320  1.0000
  Ti  Ti23      1.0  0.41542  0.87013  0.38392  1.0000
  Ti  Ti24      1.0  0.42518  0.81098  0.70607  1.0000
  Ti  Ti25      1.0  0.60207  0.13321  0.32665  1.0000
  Ti  Ti26      1.0  0.60776  0.13298  0.64388  1.0000
  Ti  Ti27      1.0  0.60360  0.13281  0.98281  1.0000
  Ti  Ti28      1.0  0.65761  0.34390  0.20954  1.0000
  Ti  Ti29      1.0  0.65020  0.35790  0.54299  1.0000
  Ti  Ti30      1.0  0.62225  0.38555  0.84877  1.0000
  Ti  Ti31      1.0  0.65938  0.56139  0.03423  1.0000
  Ti  Ti32      1.0  0.65509  0.57061  0.36769  1.0000
  Ti  Ti33      1.0  0.67364  0.57015  0.69964  1.0000
  Ti  Ti34      1.0  0.69134  0.79948  0.30730  1.0000
  Ti  Ti35      1.0  0.70457  0.80885  0.65352  1.0000
  Ti  Ti36      1.0  0.68483  0.80499  0.98600  1.0000
  Ti  Ti37      1.0  0.89807  0.07525  0.26979  1.0000
  Ti  Ti38      1.0  0.89935  0.06773  0.61285  1.0000
  Ti  Ti39      1.0  0.87841  0.09213  0.94775  1.0000
  Ti  Ti40      1.0  0.90274  0.32502  0.11377  1.0000
  Ti  Ti41      1.0  0.91118  0.31892  0.44779  1.0000
  Ti  Ti42      1.0  0.90554  0.32933  0.78137  1.0000
  Ti  Ti43      1.0  0.93292  0.53744  0.32620  1.0000
  Ti  Ti44      1.0  0.94756  0.53397  0.66394  1.0000
  Ti  Ti45      1.0  0.93988  0.53847  0.99238  1.0000
  Ti  Ti46      1.0  0.84468  0.89919  0.33494  1.0000
  Ti  Ti47      1.0  0.83679  0.88630  0.67539  1.0000
  Ti  Ti48      1.0  0.83301  0.89859  0.99647  1.0000
  Ti  Ti49      1.0  0.09967  0.15326  0.93535  1.0000
  Ti  Ti50      1.0  0.08585  0.15673  0.27020  1.0000
  Ti  Ti51      1.0  0.08282  0.15366  0.61447  1.0000
  Ti  Ti52      1.0  0.14857  0.33134  0.03817  1.0000
  Ti  Ti53      1.0  0.14416  0.34718  0.37572  1.0000
  Ti  Ti54      1.0  0.15305  0.32536  0.70530  1.0000
  Ti  Ti55      1.0  0.03181  0.73558  0.19345  1.0000
  Ti  Ti56      1.0  0.02918  0.73605  0.52178  1.0000
  Ti  Ti57      1.0  0.02798  0.72135  0.87177  1.0000
  Ti  Ti58      1.0  0.07694  0.93990  0.07907  1.0000
  Ti  Ti59      1.0  0.07464  0.90734  0.42193  1.0000
  Ti  Ti60      1.0  0.09285  0.92086  0.74395  1.0000
  Ti  Ti61      1.0  0.41150  0.08507  0.10435  1.0000
  Ti  Ti62      1.0  0.39917  0.11483  0.42929  1.0000
  Ti  Ti63      1.0  0.38342  0.09430  0.77575  1.0000
  Ti  Ti64      1.0  0.28777  0.47307  0.21361  1.0000
  Ti  Ti65      1.0  0.27723  0.49181  0.56888  1.0000
  Ti  Ti66      1.0  0.30619  0.47032  0.89993  1.0000
  Ti  Ti67      1.0  0.34045  0.67201  0.26622  1.0000
  Ti  Ti68      1.0  0.36686  0.64660  0.61160  1.0000
  Ti  Ti69      1.0  0.36062  0.67013  0.93731  1.0000
  Ti  Ti70      1.0  0.42174  0.83644  0.88595  1.0000
  Ti  Ti71      1.0  0.32013  0.96560  0.28071  1.0000
  Ti  Ti72      1.0  0.36971  0.89938  0.56353  1.0000
  Ti  Ti73      1.0  0.55769  0.19956  0.13870  1.0000
  Ti  Ti74      1.0  0.52946  0.19761  0.49281  1.0000
  Ti  Ti75      1.0  0.54042  0.17432  0.81038  1.0000
  Ti  Ti76      1.0  0.57514  0.43077  0.03877  1.0000
  Ti  Ti77      1.0  0.58573  0.40253  0.36522  1.0000
  Ti  Ti78      1.0  0.57507  0.42799  0.67892  1.0000
  Ti  Ti79      1.0  0.62383  0.63280  0.86701  1.0000
  Ti  Ti80      1.0  0.61285  0.62206  0.18935  1.0000
  Ti  Ti81      1.0  0.61144  0.64353  0.53359  1.0000
  Ti  Ti82      1.0  0.63760  0.86650  0.16176  1.0000
  Ti  Ti83      1.0  0.65095  0.85849  0.48924  1.0000
  Ti  Ti84      1.0  0.63821  0.86027  0.82287  1.0000
  Ti  Ti85      1.0  0.81395  0.13807  0.11705  1.0000
  Ti  Ti86      1.0  0.83832  0.11910  0.44350  1.0000
  Ti  Ti87      1.0  0.82296  0.11867  0.78006  1.0000
  Ti  Ti88      1.0  0.84256  0.38287  0.95309  1.0000
  Ti  Ti89      1.0  0.84467  0.37923  0.28413  1.0000
  Ti  Ti90      1.0  0.84178  0.37571  0.61076  1.0000
  Ti  Ti91      1.0  0.90568  0.61232  0.16672  1.0000
  Ti  Ti92      1.0  0.92196  0.60024  0.48722  1.0000
  Ti  Ti93      1.0  0.90849  0.61412  0.81921  1.0000
  Ti  Ti94      1.0  0.78122  0.97122  0.17117  1.0000
  Ti  Ti95      1.0  0.78183  0.94507  0.51034  1.0000
  Ti  Ti96      1.0  0.76791  0.94587  0.83525  1.0000
  I   I1        1.0  0.08338  0.11258  0.18421  1.0000
  I   I2        1.0  0.08369  0.11538  0.52004  1.0000
  I   I3        1.0  0.08383  0.11527  0.83714  1.0000
  I   I4        1.0  0.15355  0.31114  0.26214  1.0000
  I   I5        1.0  0.17419  0.28994  0.58855  1.0000
  I   I6        1.0  0.17782  0.28104  0.95205  1.0000
  I   I7        1.0  0.03451  0.69199  0.41569  1.0000
  I   I8        1.0  0.02723  0.69040  0.75875  1.0000
  I   I9        1.0  0.02565  0.69868  0.10156  1.0000
  I   I10       1.0  0.07430  0.87919  0.31101  1.0000
  I   I11       1.0  0.09265  0.86517  0.66025  1.0000
  I   I12       1.0  0.08530  0.89245  0.98503  1.0000
  I   I13       1.0  0.39477  0.07820  0.32651  1.0000
  I   I14       1.0  0.37671  0.06592  0.65827  1.0000
  I   I15       1.0  0.40801  0.04812  0.99671  1.0000
  I   I16       1.0  0.26013  0.47365  0.46259  1.0000
  I   I17       1.0  0.30514  0.42239  0.80665  1.0000
  I   I18       1.0  0.28824  0.42990  0.12439  1.0000
  I   I19       1.0  0.36418  0.61586  0.50024  1.0000
  I   I20       1.0  0.35715  0.63031  0.84312  1.0000
  I   I21       1.0  0.33093  0.66038  0.14343  1.0000
  I   I22       1.0  0.27490  0.96482  0.36330  1.0000
  I   I23       1.0  0.35149  0.88305  0.45716  1.0000
  I   I24       1.0  0.37675  0.83628  0.80110  1.0000
  I   I25       1.0  0.52807  0.16553  0.36514  1.0000
  I   I26       1.0  0.54226  0.13569  0.70791  1.0000
  I   I27       1.0  0.53613  0.16466  0.04604  1.0000
  I   I28       1.0  0.59015  0.34892  0.25529  1.0000
  I   I29       1.0  0.57167  0.39634  0.57690  1.0000
  I   I30       1.0  0.55274  0.42726  0.92097  1.0000
  I   I31       1.0  0.59435  0.59454  0.09068  1.0000
  I   I32       1.0  0.59233  0.61794  0.43724  1.0000
  I   I33       1.0  0.60802  0.60515  0.76327  1.0000
  I   I34       1.0  0.62215  0.83997  0.38467  1.0000
  I   I35       1.0  0.62414  0.84438  0.70396  1.0000
  I   I36       1.0  0.62134  0.85512  0.03512  1.0000
  I   I37       1.0  0.83333  0.08510  0.33564  1.0000
  I   I38       1.0  0.83264  0.07268  0.68067  1.0000
  I   I39       1.0  0.81307  0.10683  0.00424  1.0000
  I   I40       1.0  0.83533  0.33690  0.16001  1.0000
  I   I41       1.0  0.84250  0.33672  0.51050  1.0000
  I   I42       1.0  0.83119  0.35563  0.84609  1.0000
  I   I43       1.0  0.87736  0.60722  0.39314  1.0000
  I   I44       1.0  0.88470  0.58663  0.73272  1.0000
  I   I45       1.0  0.87742  0.60029  0.06591  1.0000
  I   I46       1.0  0.77237  0.92957  0.38747  1.0000
  I   I47       1.0  0.76805  0.90252  0.74423  1.0000
  I   I48       1.0  0.76794  0.93273  0.07353  1.0000
  I   I49       1.0  0.14502  0.15350  0.02423  1.0000
  I   I50       1.0  0.11320  0.17431  0.37487  1.0000
  I   I51       1.0  0.11522  0.16595  0.70781  1.0000
  I   I52       1.0  0.13833  0.37843  0.12736  1.0000
  I   I53       1.0  0.15043  0.37985  0.46507  1.0000
  I   I54       1.0  0.14616  0.34889  0.81616  1.0000
  I   I55       1.0  0.07104  0.75442  0.27576  1.0000
  I   I56       1.0  0.04992  0.75259  0.62299  1.0000
  I   I57       1.0  0.04859  0.74810  0.96209  1.0000
  I   I58       1.0  0.11007  0.94298  0.16995  1.0000
  I   I59       1.0  0.10561  0.92419  0.52310  1.0000
  I   I60       1.0  0.10203  0.95320  0.83849  1.0000
  I   I61       1.0  0.43845  0.11239  0.19937  1.0000
  I   I62       1.0  0.41855  0.12253  0.54080  1.0000
  I   I63       1.0  0.41719  0.11164  0.87590  1.0000
  I   I64       1.0  0.29932  0.51327  0.30866  1.0000
  I   I65       1.0  0.31851  0.49661  0.68332  1.0000
  I   I66       1.0  0.32991  0.49049  0.00125  1.0000
  I   I67       1.0  0.36493  0.69412  0.37718  1.0000
  I   I68       1.0  0.38634  0.66699  0.71130  1.0000
  I   I69       1.0  0.38413  0.69332  0.03855  1.0000
  I   I70       1.0  0.47747  0.84223  0.96691  1.0000
  I   I71       1.0  0.37922  0.95267  0.38062  1.0000
  I   I72       1.0  0.40968  0.88612  0.68411  1.0000
  I   I73       1.0  0.58548  0.20503  0.24814  1.0000
  I   I74       1.0  0.54943  0.20451  0.59805  1.0000
  I   I75       1.0  0.56157  0.20163  0.91917  1.0000
  I   I76       1.0  0.61554  0.42193  0.13566  1.0000
  I   I77       1.0  0.60688  0.43226  0.45615  1.0000
  I   I78       1.0  0.59298  0.45055  0.78521  1.0000
  I   I79       1.0  0.65754  0.62365  0.97639  1.0000
  I   I80       1.0  0.63572  0.63737  0.30099  1.0000
  I   I81       1.0  0.63478  0.64917  0.65180  1.0000
  I   I82       1.0  0.67602  0.86873  0.25344  1.0000
  I   I83       1.0  0.67314  0.88024  0.59601  1.0000
  I   I84       1.0  0.67896  0.87006  0.92299  1.0000
  I   I85       1.0  0.84356  0.14673  0.22241  1.0000
  I   I86       1.0  0.86847  0.13434  0.54276  1.0000
  I   I87       1.0  0.85243  0.15280  0.87389  1.0000
  I   I88       1.0  0.87108  0.39727  0.05291  1.0000
  I   I89       1.0  0.87769  0.39534  0.38852  1.0000
  I   I90       1.0  0.87240  0.39880  0.70671  1.0000
  I   I91       1.0  0.94726  0.59552  0.27453  1.0000
  I   I92       1.0  0.97264  0.57815  0.60079  1.0000
  I   I93       1.0  0.95663  0.59651  0.91483  1.0000
  I   I94       1.0  0.81634  0.97831  0.27507  1.0000
  I   I95       1.0  0.79268  0.96111  0.62038  1.0000
  I   I96       1.0  0.79450  0.97126  0.92299  1.0000
  I   I97       1.0  0.15971  0.13535  0.86252  1.0000
  I   I98       1.0  0.18108  0.10877  0.17519  1.0000
  I   I99       1.0  0.15878  0.13803  0.55103  1.0000
  I   I100      1.0  0.19817  0.35328  0.96278  1.0000
  I   I101      1.0  0.18874  0.37074  0.31309  1.0000
  I   I102      1.0  0.19339  0.35576  0.62929  1.0000
  I   I103      1.0  0.10361  0.71130  0.12609  1.0000
  I   I104      1.0  0.10157  0.70009  0.45773  1.0000
  I   I105      1.0  0.09831  0.71262  0.78685  1.0000
  I   I106      1.0  0.15217  0.92092  0.00097  1.0000
  I   I107      1.0  0.14400  0.89469  0.35569  1.0000
  I   I108      1.0  0.16437  0.88233  0.68085  1.0000
  I   I109      1.0  0.46500  0.08999  0.01741  1.0000
  I   I110      1.0  0.46786  0.09238  0.36411  1.0000
  I   I111      1.0  0.45738  0.08496  0.71555  1.0000
  I   I112      1.0  0.35971  0.45539  0.16319  1.0000
  I   I113      1.0  0.33596  0.49059  0.49775  1.0000
  I   I114      1.0  0.36898  0.44904  0.83889  1.0000
  I   I115      1.0  0.41384  0.65591  0.20692  1.0000
  I   I116      1.0  0.43680  0.63705  0.53036  1.0000
  I   I117      1.0  0.43392  0.63906  0.87418  1.0000
  I   I118      1.0  0.47005  0.82214  0.78507  1.0000
  I   I119      1.0  0.46113  0.83531  0.12401  1.0000
  I   I120      1.0  0.43526  0.87201  0.50110  1.0000
  I   I121      1.0  0.62629  0.15366  0.08971  1.0000
  I   I122      1.0  0.59957  0.17229  0.43108  1.0000
  I   I123      1.0  0.60413  0.16913  0.75731  1.0000
  I   I124      1.0  0.63704  0.41772  0.97113  1.0000
  I   I125      1.0  0.65604  0.38373  0.31963  1.0000
  I   I126      1.0  0.65338  0.40452  0.62722  1.0000
  I   I127      1.0  0.69013  0.58882  0.81383  1.0000
  I   I128      1.0  0.68830  0.57728  0.12446  1.0000
  I   I129      1.0  0.68177  0.60264  0.46236  1.0000
  I   I130      1.0  0.70449  0.83021  0.10119  1.0000
  I   I131      1.0  0.71561  0.82631  0.40642  1.0000
  I   I132      1.0  0.70780  0.83404  0.76910  1.0000
  I   I133      1.0  0.87899  0.13267  0.04220  1.0000
  I   I134      1.0  0.90046  0.10824  0.37390  1.0000
  I   I135      1.0  0.89239  0.10277  0.72423  1.0000
  I   I136      1.0  0.91354  0.36069  0.87690  1.0000
  I   I137      1.0  0.91455  0.35035  0.22140  1.0000
  I   I138      1.0  0.91832  0.34826  0.55150  1.0000
  I   I139      1.0  0.97137  0.55439  0.10152  1.0000
  I   I140      1.0  0.97250  0.53451  0.42876  1.0000
  I   I141      1.0  0.97179  0.54580  0.76959  1.0000
  I   I142      1.0  0.84643  0.94335  0.08249  1.0000
  I   I143      1.0  0.85735  0.91285  0.44835  1.0000
  I   I144      1.0  0.84292  0.91204  0.78230  1.0000
  I   I145      1.0  0.13570  0.07444  0.98329  1.0000
  I   I146      1.0  0.12319  0.08948  0.35389  1.0000
  I   I147      1.0  0.11671  0.07899  0.67614  1.0000
  I   I148      1.0  0.21808  0.29469  0.10849  1.0000
  I   I149      1.0  0.21229  0.28837  0.41698  1.0000
  I   I150      1.0  0.22288  0.26886  0.75659  1.0000
  I   I151      1.0  0.06829  0.66233  0.24648  1.0000
  I   I152      1.0  0.06353  0.66006  0.59895  1.0000
  I   I153      1.0  0.07551  0.65273  0.92673  1.0000
  I   I154      1.0  0.10831  0.85598  0.14759  1.0000
  I   I155      1.0  0.12333  0.82899  0.48826  1.0000
  I   I156      1.0  0.13074  0.84933  0.82996  1.0000
  I   I157      1.0  0.45603  0.01780  0.16580  1.0000
  I   I158      1.0  0.41913  0.04316  0.49882  1.0000
  I   I159      1.0  0.43732  0.02861  0.81756  1.0000
  I   I160      1.0  0.32798  0.41694  0.30074  1.0000
  I   I161      1.0  0.32059  0.42002  0.62433  1.0000
  I   I162      1.0  0.35101  0.38741  0.96677  1.0000
  I   I163      1.0  0.39053  0.60253  0.32248  1.0000
  I   I164      1.0  0.42479  0.57138  0.65256  1.0000
  I   I165      1.0  0.37597  0.59829  0.01013  1.0000
  I   I166      1.0  0.45976  0.75777  0.92353  1.0000
  I   I167      1.0  0.36456  0.89006  0.28984  1.0000
  I   I168      1.0  0.39831  0.81838  0.59268  1.0000
  I   I169      1.0  0.58090  0.12708  0.21107  1.0000
  I   I170      1.0  0.58297  0.11842  0.54014  1.0000
  I   I171      1.0  0.58633  0.10351  0.87775  1.0000
  I   I172      1.0  0.65167  0.32326  0.10105  1.0000
  I   I173      1.0  0.63081  0.32889  0.44231  1.0000
  I   I174      1.0  0.61187  0.35813  0.75292  1.0000
  I   I175      1.0  0.62462  0.55864  0.92114  1.0000
  I   I176      1.0  0.61748  0.56423  0.26848  1.0000
  I   I177      1.0  0.64439  0.56520  0.58960  1.0000
  I   I178      1.0  0.65114  0.79345  0.21122  1.0000
  I   I179      1.0  0.69306  0.79159  0.53525  1.0000
  I   I180      1.0  0.66375  0.79190  0.87513  1.0000
  I   I181      1.0  0.87018  0.05786  0.16366  1.0000
  I   I182      1.0  0.88482  0.04343  0.50319  1.0000
  I   I183      1.0  0.87239  0.05325  0.84408  1.0000
  I   I184      1.0  0.86838  0.30849  0.99841  1.0000
  I   I185      1.0  0.87215  0.31180  0.34998  1.0000
  I   I186      1.0  0.87814  0.31377  0.68182  1.0000
  I   I187      1.0  0.88997  0.55773  0.22006  1.0000
  I   I188      1.0  0.90375  0.54519  0.56754  1.0000
  I   I189      1.0  0.89214  0.55520  0.91063  1.0000
  I   I190      1.0  0.81910  0.89551  0.22269  1.0000
  I   I191      1.0  0.80272  0.87672  0.56308  1.0000
  I   I192      1.0  0.80550  0.87306  0.91554  1.0000
  I   I193      1.0  0.24021  0.05668  0.01177  1.0000
  I   I194      1.0  0.22061  0.11369  0.42148  1.0000
  I   I195      1.0  0.21398  0.08852  0.72042  1.0000
  I   I196      1.0  0.24207  0.36786  0.16363  1.0000
  I   I197      1.0  0.25489  0.34624  0.48986  1.0000
  I   I198      1.0  0.25420  0.33454  0.80465  1.0000
  I   I199      1.0  0.16266  0.68058  0.31836  1.0000
  I   I200      1.0  0.16472  0.66362  0.64065  1.0000
  I   I201      1.0  0.14731  0.68120  0.97225  1.0000
  I   I202      1.0  0.20141  0.87347  0.19411  1.0000
  I   I203      1.0  0.21618  0.83452  0.53097  1.0000
  I   I204      1.0  0.20581  0.87639  0.85635  1.0000
  I   I205      1.0  0.53680  0.01979  0.25299  1.0000
  I   I206      1.0  0.51390  0.03413  0.56902  1.0000
  I   I207      1.0  0.52491  0.04157  0.86986  1.0000
  I   I208      1.0  0.40093  0.45121  0.36870  1.0000
  I   I209      1.0  0.41816  0.43140  0.68961  1.0000
  I   I210      1.0  0.42443  0.40979  0.03466  1.0000
  I   I211      1.0  0.47923  0.62071  0.37774  1.0000
  I   I212      1.0  0.49815  0.58403  0.75307  1.0000
  I   I213      1.0  0.46999  0.59456  0.05931  1.0000
  I   I214      1.0  0.53410  0.74706  0.02971  1.0000
  I   I215      1.0  0.46802  0.87798  0.32533  1.0000
  I   I216      1.0  0.48683  0.77355  0.63840  1.0000
  I   I217      1.0  0.66941  0.12025  0.32143  1.0000
  I   I218      1.0  0.66045  0.14290  0.61196  1.0000
  I   I219      1.0  0.66714  0.12280  0.92515  1.0000
  I   I220      1.0  0.71914  0.34376  0.18955  1.0000
  I   I221      1.0  0.71151  0.34334  0.48672  1.0000
  I   I222      1.0  0.68565  0.37706  0.82423  1.0000
  I   I223      1.0  0.72897  0.51945  0.99595  1.0000
  I   I224      1.0  0.71807  0.52387  0.31376  1.0000
  I   I225      1.0  0.73914  0.55383  0.65904  1.0000
  I   I226      1.0  0.75396  0.76243  0.26220  1.0000
  I   I227      1.0  0.77218  0.79048  0.62195  1.0000
  I   I228      1.0  0.75654  0.77174  0.97298  1.0000
  I   I229      1.0  0.94600  0.09107  0.21759  1.0000
  I   I230      1.0  0.96634  0.06339  0.62711  1.0000
  I   I231      1.0  0.94583  0.06760  0.90099  1.0000
  I   I232      1.0  0.96144  0.32044  0.05315  1.0000
  I   I233      1.0  0.97028  0.30736  0.39213  1.0000
  I   I234      1.0  0.97139  0.31198  0.73105  1.0000
  I   I235      1.0  0.98975  0.49314  0.26514  1.0000
  I   I236      1.0  0.00502  0.47671  0.62129  1.0000
  I   I237      1.0  0.99831  0.48314  0.94517  1.0000
  I   I238      1.0  0.91114  0.88369  0.30663  1.0000
  I   I239      1.0  0.90019  0.87377  0.62807  1.0000
  I   I240      1.0  0.89755  0.87278  0.94416  1.0000
  I   I241      1.0  0.18302  0.01947  0.12806  1.0000
  I   I242      1.0  0.18388  0.04532  0.48664  1.0000
  I   I243      1.0  0.18250  0.02309  0.79489  1.0000
  I   I244      1.0  0.26125  0.27042  0.24573  1.0000
  I   I245      1.0  0.27641  0.25024  0.56384  1.0000
  I   I246      1.0  0.27977  0.24884  0.90698  1.0000
  I   I247      1.0  0.13210  0.60997  0.36965  1.0000
  I   I248      1.0  0.12095  0.60794  0.73426  1.0000
  I   I249      1.0  0.12984  0.61008  0.06087  1.0000
  I   I250      1.0  0.17926  0.80186  0.27773  1.0000
  I   I251      1.0  0.18285  0.77863  0.62868  1.0000
  I   I252      1.0  0.19918  0.80557  0.97398  1.0000
  I   I253      1.0  0.47971  0.97949  0.31619  1.0000
  I   I254      1.0  0.46555  0.98543  0.64820  1.0000
  I   I255      1.0  0.50531  0.97532  0.97792  1.0000
  I   I256      1.0  0.35832  0.38883  0.45290  1.0000
  I   I257      1.0  0.39533  0.35075  0.72828  1.0000
  I   I258      1.0  0.38027  0.35455  0.12633  1.0000
  I   I259      1.0  0.44770  0.54779  0.46051  1.0000
  I   I260      1.0  0.44342  0.52925  0.81255  1.0000
  I   I261      1.0  0.41852  0.55756  0.16761  1.0000
  I   I262      1.0  0.45119  0.74700  0.10670  1.0000
  I   I263      1.0  0.44928  0.79808  0.37519  1.0000
  I   I264      1.0  0.42652  0.74864  0.73795  1.0000
  I   I265      1.0  0.61464  0.06613  0.35473  1.0000
  I   I266      1.0  0.64729  0.07118  0.70627  1.0000
  I   I267      1.0  0.63647  0.06662  0.03267  1.0000
  I   I268      1.0  0.69228  0.27509  0.24280  1.0000
  I   I269      1.0  0.66914  0.29484  0.59227  1.0000
  I   I270      1.0  0.64543  0.32751  0.92078  1.0000
  I   I271      1.0  0.66201  0.49465  0.06458  1.0000
  I   I272      1.0  0.65715  0.51277  0.42495  1.0000
  I   I273      1.0  0.68781  0.50476  0.74050  1.0000
  I   I274      1.0  0.70192  0.73924  0.37119  1.0000
  I   I275      1.0  0.70161  0.74843  0.68888  1.0000
  I   I276      1.0  0.68790  0.74155  0.02008  1.0000
  I   I277      1.0  0.94460  0.00516  0.28475  1.0000
  I   I278      1.0  0.93394  0.99678  0.64108  1.0000
  I   I279      1.0  0.91084  0.02261  0.00532  1.0000
  I   I280      1.0  0.93874  0.25552  0.13309  1.0000
  I   I281      1.0  0.93887  0.24839  0.47086  1.0000
  I   I282      1.0  0.92392  0.26377  0.83067  1.0000
  I   I283      1.0  0.89182  0.50709  0.34970  1.0000
  I   I284      1.0  0.93132  0.47978  0.71298  1.0000
  I   I285      1.0  0.91790  0.49521  0.04506  1.0000
  I   I286      1.0  0.84990  0.83350  0.37622  1.0000
  I   I287      1.0  0.85223  0.81911  0.70598  1.0000
  I   I288      1.0  0.85669  0.83293  0.04914  1.0000
  I   I289      1.0  0.03474  0.16982  0.98311  1.0000
  I   I290      1.0  0.01911  0.19333  0.30351  1.0000
  I   I291      1.0  0.02194  0.17238  0.67924  1.0000
  I   I292      1.0  0.14662  0.27731  0.10327  1.0000
  I   I293      1.0  0.11829  0.30542  0.44341  1.0000
  I   I294      1.0  0.13016  0.27664  0.74377  1.0000
  I   I295      1.0  0.97305  0.75509  0.25613  1.0000
  I   I296      1.0  0.96141  0.74983  0.54773  1.0000
  I   I297      1.0  0.97337  0.71392  0.91616  1.0000
  I   I298      1.0  0.01605  0.94525  0.12532  1.0000
  I   I299      1.0  0.01504  0.91795  0.47771  1.0000
  I   I300      1.0  0.02929  0.93481  0.78905  1.0000
  I   I301      1.0  0.35149  0.08447  0.15216  1.0000
  I   I302      1.0  0.32859  0.13981  0.44649  1.0000
  I   I303      1.0  0.32664  0.10335  0.83626  1.0000
  I   I304      1.0  0.23012  0.47088  0.25928  1.0000
  I   I305      1.0  0.22899  0.49347  0.65118  1.0000
  I   I306      1.0  0.25156  0.46785  0.95693  1.0000
  I   I307      1.0  0.29295  0.66588  0.34120  1.0000
  I   I308      1.0  0.30893  0.64076  0.64185  1.0000
  I   I309      1.0  0.29108  0.69640  0.96987  1.0000
  I   I310      1.0  0.38421  0.83972  0.98355  1.0000
  I   I311      1.0  0.30542  0.03094  0.26492  1.0000
  I   I312      1.0  0.31425  0.91003  0.62948  1.0000
  I   I313      1.0  0.48775  0.23348  0.16563  1.0000
  I   I314      1.0  0.47697  0.18388  0.52213  1.0000
  I   I315      1.0  0.49605  0.16577  0.88495  1.0000
  I   I316      1.0  0.52255  0.41626  0.07795  1.0000
  I   I317      1.0  0.52773  0.40128  0.40459  1.0000
  I   I318      1.0  0.51737  0.42580  0.71619  1.0000
  I   I319      1.0  0.55509  0.67106  0.90249  1.0000
  I   I320      1.0  0.54331  0.66902  0.21028  1.0000
  I   I321      1.0  0.54750  0.66064  0.57501  1.0000
  I   I322      1.0  0.57219  0.88267  0.21317  1.0000
  I   I323      1.0  0.58492  0.87042  0.52860  1.0000
  I   I324      1.0  0.57083  0.87068  0.85546  1.0000
  I   I325      1.0  0.76178  0.13274  0.17165  1.0000
  I   I326      1.0  0.77772  0.12715  0.50122  1.0000
  I   I327      1.0  0.76680  0.11627  0.83660  1.0000
  I   I328      1.0  0.78070  0.39745  0.99290  1.0000
  I   I329      1.0  0.77703  0.40665  0.31276  1.0000
  I   I330      1.0  0.78284  0.39228  0.67474  1.0000
  I   I331      1.0  0.84368  0.65560  0.22250  1.0000
  I   I332      1.0  0.87077  0.65069  0.55988  1.0000
  I   I333      1.0  0.85087  0.66065  0.87404  1.0000
  I   I334      1.0  0.72132  0.99282  0.23439  1.0000
  I   I335      1.0  0.71335  0.97460  0.52979  1.0000
  I   I336      1.0  0.70360  0.96455  0.87572  1.0000
  I   I337      1.0  0.08307  0.22047  0.89990  1.0000
  I   I338      1.0  0.09302  0.20828  0.21368  1.0000
  I   I339      1.0  0.05350  0.21630  0.55279  1.0000
  I   I340      1.0  0.09211  0.38102  0.98572  1.0000
  I   I341      1.0  0.08129  0.40161  0.34220  1.0000
  I   I342      1.0  0.09226  0.37634  0.65617  1.0000
  I   I343      1.0  0.00486  0.79782  0.13523  1.0000
  I   I344      1.0  0.01794  0.79562  0.46450  1.0000
  I   I345      1.0  0.99380  0.78567  0.82098  1.0000
  I   I346      1.0  0.04949  0.00729  0.03648  1.0000
  I   I347      1.0  0.04140  0.97353  0.37483  1.0000
  I   I348      1.0  0.07621  0.97514  0.66726  1.0000
  I   I349      1.0  0.36560  0.14982  0.04968  1.0000
  I   I350      1.0  0.39646  0.17762  0.38544  1.0000
  I   I351      1.0  0.35812  0.16020  0.72705  1.0000
  I   I352      1.0  0.25354  0.53495  0.15505  1.0000
  I   I353      1.0  0.23420  0.56443  0.55011  1.0000
  I   I354      1.0  0.27714  0.53929  0.86339  1.0000
  I   I355      1.0  0.31693  0.74120  0.23183  1.0000
  I   I356      1.0  0.34075  0.71508  0.56938  1.0000
  I   I357      1.0  0.33813  0.72704  0.86337  1.0000
  I   I358      1.0  0.39109  0.90812  0.87143  1.0000
  I   I359      1.0  0.28963  0.96328  0.18092  1.0000
  I   I360      1.0  0.36182  0.96688  0.55847  1.0000
  I   I361      1.0  0.55735  0.25842  0.09632  1.0000
  I   I362      1.0  0.50299  0.26616  0.46034  1.0000
  I   I363      1.0  0.49703  0.24619  0.78257  1.0000
  I   I364      1.0  0.53464  0.50273  0.03585  1.0000
  I   I365      1.0  0.55083  0.45685  0.29005  1.0000
  I   I366      1.0  0.55188  0.49344  0.63387  1.0000
  I   I367      1.0  0.61591  0.69692  0.83252  1.0000
  I   I368      1.0  0.62542  0.67695  0.14527  1.0000
  I   I369      1.0  0.61350  0.70595  0.50272  1.0000
  I   I370      1.0  0.62438  0.92944  0.11787  1.0000
  I   I371      1.0  0.63376  0.92320  0.43946  1.0000
  I   I372      1.0  0.60845  0.93258  0.81900  1.0000
  I   I373      1.0  0.78028  0.20913  0.10996  1.0000
  I   I374      1.0  0.80010  0.18893  0.40714  1.0000
  I   I375      1.0  0.78169  0.17625  0.71932  1.0000
  I   I376      1.0  0.83403  0.44650  0.91000  1.0000
  I   I377      1.0  0.84209  0.43882  0.22748  1.0000
  I   I378      1.0  0.81815  0.44025  0.55970  1.0000
  I   I379      1.0  0.93815  0.65606  0.13453  1.0000
  I   I380      1.0  0.94450  0.64250  0.44140  1.0000
  I   I381      1.0  0.92185  0.66392  0.77301  1.0000
  I   I382      1.0  0.76774  0.03370  0.11313  1.0000
  I   I383      1.0  0.79129  0.00596  0.47308  1.0000
  I   I384      1.0  0.75401  0.00622  0.77766  1.0000
