data_image0
_chemical_formula_structural       Ti96I384
_chemical_formula_sum              "Ti96 I384"
_cell_length_a       52.0606
_cell_length_b       52.1628
_cell_length_c       25.1271
_cell_angle_alpha    88.7757
_cell_angle_beta     88.7757
_cell_angle_gamma    62.1586

_space_group_name_H-M_alt    "P 1"
_space_group_IT_number       1

loop_
  _space_group_symop_operation_xyz
  'x, y, z'

loop_
  _atom_site_type_symbol
  _atom_site_label
  _atom_site_symmetry_multiplicity
  _atom_site_fract_x
  _atom_site_fract_y
  _atom_site_fract_z
  _atom_site_occupancy
  Ti  Ti1       1.0  0.50608  0.82648  0.35282  1.0000
  Ti  Ti2       1.0  0.15930  0.92485  0.02634  1.0000
  Ti  Ti3       1.0  0.40536  0.91207  0.15497  1.0000
  Ti  Ti4       1.0  0.27476  0.04031  0.44097  1.0000
  Ti  Ti5       1.0  0.16421  0.37536  0.56095  1.0000
  Ti  Ti6       1.0  0.16608  0.17151  0.84065  1.0000
  Ti  Ti7       1.0  0.95636  0.74824  0.04749  1.0000
  Ti  Ti8       1.0  0.91040  0.03634  0.42771  1.0000
  Ti  Ti9       1.0  0.92042  0.75400  0.34225  1.0000
  Ti  Ti10      1.0  0.27768  0.77067  0.85027  1.0000
  Ti  Ti11      1.0  0.01694  0.71297  0.72230  1.0000
  Ti  Ti12      1.0  0.02293  0.85132  0.72064  1.0000
  Ti  Ti13      1.0  0.36039  0.13284  0.38068  1.0000
  Ti  Ti14      1.0  0.40442  0.06638  0.64071  1.0000
  Ti  Ti15      1.0  0.30743  0.13311  0.10799  1.0000
  Ti  Ti16      1.0  0.26532  0.55171  0.18729  1.0000
  Ti  Ti17      1.0  0.14397  0.68436  0.33031  1.0000
  Ti  Ti18      1.0  0.28847  0.42493  0.61498  1.0000
  Ti  Ti19      1.0  0.47704  0.58852  0.47567  1.0000
  Ti  Ti20      1.0  0.63847  0.76485  0.77184  1.0000
  Ti  Ti21      1.0  0.36256  0.55775  0.66872  1.0000
  Ti  Ti22      1.0  0.44372  0.88568  0.69169  1.0000
  Ti  Ti23      1.0  0.61129  0.85414  0.08163  1.0000
  Ti  Ti24      1.0  0.46045  0.77548  0.92071  1.0000
  Ti  Ti25      1.0  0.38362  0.30521  0.81608  1.0000
  Ti  Ti26      1.0  0.30025  0.36680  0.06252  1.0000
  Ti  Ti27      1.0  0.58067  0.47476  0.67734  1.0000
  Ti  Ti28      1.0  0.47034  0.44695  0.18919  1.0000
  Ti  Ti29      1.0  0.69507  0.50012  0.02194  1.0000
  Ti  Ti30      1.0  0.62747  0.59471  0.78206  1.0000
  Ti  Ti31      1.0  0.92530  0.52318  0.01529  1.0000
  Ti  Ti32      1.0  0.78872  0.43930  0.58941  1.0000
  Ti  Ti33      1.0  0.85772  0.49971  0.79756  1.0000
  Ti  Ti34      1.0  0.76158  0.02532  0.19870  1.0000
  Ti  Ti35      1.0  0.68893  0.62499  0.14123  1.0000
  Ti  Ti36      1.0  0.81782  0.58581  0.54538  1.0000
  Ti  Ti37      1.0  0.71203  0.20886  0.29696  1.0000
  Ti  Ti38      1.0  0.72743  0.32756  0.23238  1.0000
  Ti  Ti39      1.0  0.58339  0.32475  0.87702  1.0000
  Ti  Ti40      1.0  0.82988  0.30159  0.95877  1.0000
  Ti  Ti41      1.0  0.77149  0.28475  0.55996  1.0000
  Ti  Ti42      1.0  0.29877  0.80419  0.41932  1.0000
  Ti  Ti43      1.0  0.83582  0.42028  0.24360  1.0000
  Ti  Ti44      1.0  0.99517  0.56500  0.51512  1.0000
  Ti  Ti45      1.0  0.06323  0.52177  0.76368  1.0000
  Ti  Ti46      1.0  0.69022  0.90931  0.55594  1.0000
  Ti  Ti47      1.0  0.59385  0.02260  0.36288  1.0000
  Ti  Ti48      1.0  0.52187  0.18706  0.90308  1.0000
  Ti  Ti49      1.0  0.43806  0.86863  0.29154  1.0000
  Ti  Ti50      1.0  0.10988  0.89626  0.09658  1.0000
  Ti  Ti51      1.0  0.16190  0.00147  0.93450  1.0000
  Ti  Ti52      1.0  0.22556  0.01773  0.51415  1.0000
  Ti  Ti53      1.0  0.18240  0.30466  0.53578  1.0000
  Ti  Ti54      1.0  0.15016  0.24746  0.89171  1.0000
  Ti  Ti55      1.0  0.90411  0.76802  0.18211  1.0000
  Ti  Ti56      1.0  0.93230  0.05379  0.53205  1.0000
  Ti  Ti57      1.0  0.91998  0.83320  0.39007  1.0000
  Ti  Ti58      1.0  0.20415  0.77129  0.76513  1.0000
  Ti  Ti59      1.0  0.33202  0.74910  0.99006  1.0000
  Ti  Ti60      1.0  0.07230  0.75625  0.69809  1.0000
  Ti  Ti61      1.0  0.37394  0.07923  0.24306  1.0000
  Ti  Ti62      1.0  0.34651  0.20941  0.36070  1.0000
  Ti  Ti63      1.0  0.33080  0.15271  0.70106  1.0000
  Ti  Ti64      1.0  0.26358  0.50131  0.51792  1.0000
  Ti  Ti65      1.0  0.18996  0.60153  0.23156  1.0000
  Ti  Ti66      1.0  0.09298  0.64447  0.41070  1.0000
  Ti  Ti67      1.0  0.41667  0.62092  0.60720  1.0000
  Ti  Ti68      1.0  0.71809  0.69684  0.83996  1.0000
  Ti  Ti69      1.0  0.28845  0.62254  0.64475  1.0000
  Ti  Ti70      1.0  0.43917  0.83365  0.80368  1.0000
  Ti  Ti71      1.0  0.63340  0.88574  0.19493  1.0000
  Ti  Ti72      1.0  0.67421  0.84987  0.97530  1.0000
  Ti  Ti73      1.0  0.52915  0.44858  0.61160  1.0000
  Ti  Ti74      1.0  0.29323  0.34218  0.87898  1.0000
  Ti  Ti75      1.0  0.28364  0.38310  0.21126  1.0000
  Ti  Ti76      1.0  0.58540  0.63512  0.63912  1.0000
  Ti  Ti77      1.0  0.52679  0.47971  0.18844  1.0000
  Ti  Ti78      1.0  0.68634  0.51011  0.85678  1.0000
  Ti  Ti79      1.0  0.91006  0.45578  0.93013  1.0000
  Ti  Ti80      1.0  0.97832  0.53837  0.09541  1.0000
  Ti  Ti81      1.0  0.85975  0.43065  0.67436  1.0000
  Ti  Ti82      1.0  0.80665  0.97331  0.05432  1.0000
  Ti  Ti83      1.0  0.77226  0.61127  0.18571  1.0000
  Ti  Ti84      1.0  0.73038  0.61611  0.52221  1.0000
  Ti  Ti85      1.0  0.65179  0.19911  0.27299  1.0000
  Ti  Ti86      1.0  0.76805  0.24370  0.20135  1.0000
  Ti  Ti87      1.0  0.60178  0.38465  0.94029  1.0000
  Ti  Ti88      1.0  0.91213  0.24472  0.96012  1.0000
  Ti  Ti89      1.0  0.74682  0.30521  0.71284  1.0000
  Ti  Ti90      1.0  0.23738  0.81977  0.32759  1.0000
  Ti  Ti91      1.0  0.12774  0.53151  0.80590  1.0000
  Ti  Ti92      1.0  0.85024  0.36736  0.31563  1.0000
  Ti  Ti93      1.0  0.97783  0.57927  0.67772  1.0000
  Ti  Ti94      1.0  0.52844  0.11866  0.90516  1.0000
  Ti  Ti95      1.0  0.61159  0.96765  0.50397  1.0000
  Ti  Ti96      1.0  0.55410  0.07308  0.24241  1.0000
  I   I1        1.0  0.06268  0.90558  0.04333  1.0000
  I   I2        1.0  0.21353  0.89471  0.99150  1.0000
  I   I3        1.0  0.39775  0.85362  0.32143  1.0000
  I   I4        1.0  0.23643  0.27146  0.52147  1.0000
  I   I5        1.0  0.19133  0.19317  0.91133  1.0000
  I   I6        1.0  0.17243  0.12167  0.86284  1.0000
  I   I7        1.0  0.87617  0.05634  0.51779  1.0000
  I   I8        1.0  0.90266  0.99065  0.44295  1.0000
  I   I9        1.0  0.93415  0.78272  0.25672  1.0000
  I   I10       1.0  0.28053  0.74492  0.96002  1.0000
  I   I11       1.0  0.12445  0.70851  0.70834  1.0000
  I   I12       1.0  0.21027  0.73572  0.69099  1.0000
  I   I13       1.0  0.38266  0.15443  0.29699  1.0000
  I   I14       1.0  0.39033  0.12239  0.69025  1.0000
  I   I15       1.0  0.33808  0.07358  0.14867  1.0000
  I   I16       1.0  0.21169  0.54487  0.18865  1.0000
  I   I17       1.0  0.09145  0.68327  0.31294  1.0000
  I   I18       1.0  0.26346  0.49859  0.62344  1.0000
  I   I19       1.0  0.72068  0.64617  0.84338  1.0000
  I   I20       1.0  0.27629  0.67244  0.61343  1.0000
  I   I21       1.0  0.37274  0.53588  0.77107  1.0000
  I   I22       1.0  0.60054  0.92551  0.26896  1.0000
  I   I23       1.0  0.56079  0.85674  0.06162  1.0000
  I   I24       1.0  0.48585  0.77586  0.82156  1.0000
  I   I25       1.0  0.27798  0.30673  0.84134  1.0000
  I   I26       1.0  0.24866  0.40452  0.10816  1.0000
  I   I27       1.0  0.51691  0.49973  0.67624  1.0000
  I   I28       1.0  0.50980  0.44128  0.25935  1.0000
  I   I29       1.0  0.66478  0.48714  0.93389  1.0000
  I   I30       1.0  0.63177  0.57659  0.66578  1.0000
  I   I31       1.0  0.98569  0.48621  0.05062  1.0000
  I   I32       1.0  0.84225  0.44016  0.56843  1.0000
  I   I33       1.0  0.92083  0.45407  0.83060  1.0000
  I   I34       1.0  0.65042  0.67617  0.10410  1.0000
  I   I35       1.0  0.77897  0.58480  0.46691  1.0000
  I   I36       1.0  0.85025  0.92737  0.09067  1.0000
  I   I37       1.0  0.71159  0.27252  0.23732  1.0000
  I   I38       1.0  0.62380  0.37202  0.03137  1.0000
  I   I39       1.0  0.62379  0.21928  0.18326  1.0000
  I   I40       1.0  0.69027  0.32373  0.69839  1.0000
  I   I41       1.0  0.22684  0.78276  0.27421  1.0000
  I   I42       1.0  0.85819  0.24774  0.00976  1.0000
  I   I43       1.0  0.84995  0.31778  0.28989  1.0000
  I   I44       1.0  0.93854  0.58727  0.58584  1.0000
  I   I45       1.0  0.05149  0.47986  0.77345  1.0000
  I   I46       1.0  0.62391  0.95808  0.60729  1.0000
  I   I47       1.0  0.53218  0.04917  0.33690  1.0000
  I   I48       1.0  0.47142  0.13385  0.89155  1.0000
  I   I49       1.0  0.49189  0.86438  0.25971  1.0000
  I   I50       1.0  0.16618  0.89657  0.11896  1.0000
  I   I51       1.0  0.11071  0.04682  0.94675  1.0000
  I   I52       1.0  0.24707  0.06577  0.52831  1.0000
  I   I53       1.0  0.12692  0.35022  0.56232  1.0000
  I   I54       1.0  0.12943  0.26545  0.79574  1.0000
  I   I55       1.0  0.87319  0.75321  0.11817  1.0000
  I   I56       1.0  0.97917  0.06119  0.53812  1.0000
  I   I57       1.0  0.88204  0.80539  0.39884  1.0000
  I   I58       1.0  0.27358  0.81812  0.88323  1.0000
  I   I59       1.0  0.30946  0.74519  0.09224  1.0000
  I   I60       1.0  0.00326  0.81527  0.69995  1.0000
  I   I61       1.0  0.40602  0.07485  0.34277  1.0000
  I   I62       1.0  0.39425  0.21913  0.34268  1.0000
  I   I63       1.0  0.34265  0.09619  0.66831  1.0000
  I   I64       1.0  0.30746  0.56627  0.15791  1.0000
  I   I65       1.0  0.15945  0.67830  0.22545  1.0000
  I   I66       1.0  0.11077  0.59558  0.36791  1.0000
  I   I67       1.0  0.43150  0.63381  0.69655  1.0000
  I   I68       1.0  0.62909  0.79376  0.86123  1.0000
  I   I69       1.0  0.32227  0.60860  0.73102  1.0000
  I   I70       1.0  0.39991  0.89015  0.77868  1.0000
  I   I71       1.0  0.60682  0.84722  0.18378  1.0000
  I   I72       1.0  0.68796  0.89128  0.96279  1.0000
  I   I73       1.0  0.56498  0.46476  0.55541  1.0000
  I   I74       1.0  0.31290  0.37035  0.95226  1.0000
  I   I75       1.0  0.32198  0.35703  0.28187  1.0000
  I   I76       1.0  0.42517  0.46532  0.25484  1.0000
  I   I77       1.0  0.55026  0.43420  0.12574  1.0000
  I   I78       1.0  0.69283  0.54985  0.79228  1.0000
  I   I79       1.0  0.89874  0.47790  0.03549  1.0000
  I   I80       1.0  0.96464  0.59202  0.10896  1.0000
  I   I81       1.0  0.86564  0.43069  0.77569  1.0000
  I   I82       1.0  0.72699  0.05094  0.12402  1.0000
  I   I83       1.0  0.65512  0.60351  0.17498  1.0000
  I   I84       1.0  0.68968  0.64268  0.45455  1.0000
  I   I85       1.0  0.70509  0.18696  0.20283  1.0000
  I   I86       1.0  0.82392  0.22407  0.18523  1.0000
  I   I87       1.0  0.63927  0.30613  0.89809  1.0000
  I   I88       1.0  0.80217  0.35554  0.94136  1.0000
  I   I89       1.0  0.81787  0.28878  0.53241  1.0000
  I   I90       1.0  0.30501  0.85003  0.41105  1.0000
  I   I91       1.0  0.16645  0.53204  0.73497  1.0000
  I   I92       1.0  0.79141  0.40730  0.30392  1.0000
  I   I93       1.0  0.00906  0.56895  0.76943  1.0000
  I   I94       1.0  0.52709  0.09071  0.99827  1.0000
  I   I95       1.0  0.59948  0.97192  0.38644  1.0000
  I   I96       1.0  0.58734  0.08699  0.18089  1.0000
  I   I97       1.0  0.43626  0.85145  0.17748  1.0000
  I   I98       1.0  0.53632  0.84571  0.41240  1.0000
  I   I99       1.0  0.16351  0.97418  0.04323  1.0000
  I   I100      1.0  0.20958  0.98004  0.47828  1.0000
  I   I101      1.0  0.33628  0.01974  0.44162  1.0000
  I   I102      1.0  0.15397  0.40293  0.64871  1.0000
  I   I103      1.0  0.89688  0.73752  0.27018  1.0000
  I   I104      1.0  0.99662  0.76264  0.03412  1.0000
  I   I105      1.0  0.91066  0.84373  0.49243  1.0000
  I   I106      1.0  0.97713  0.90007  0.71665  1.0000
  I   I107      1.0  0.34312  0.73324  0.89080  1.0000
  I   I108      1.0  0.05176  0.72489  0.64412  1.0000
  I   I109      1.0  0.38339  0.02627  0.26521  1.0000
  I   I110      1.0  0.38866  0.15694  0.42873  1.0000
  I   I111      1.0  0.43533  0.03125  0.71805  1.0000
  I   I112      1.0  0.22517  0.55540  0.50465  1.0000
  I   I113      1.0  0.24941  0.59255  0.26225  1.0000
  I   I114      1.0  0.12404  0.74187  0.32609  1.0000
  I   I115      1.0  0.40899  0.57517  0.65936  1.0000
  I   I116      1.0  0.43950  0.62509  0.40837  1.0000
  I   I117      1.0  0.64629  0.77664  0.67279  1.0000
  I   I118      1.0  0.40337  0.81802  0.86038  1.0000
  I   I119      1.0  0.46341  0.92287  0.71014  1.0000
  I   I120      1.0  0.63525  0.79946  0.04688  1.0000
  I   I121      1.0  0.58838  0.49484  0.77086  1.0000
  I   I122      1.0  0.34957  0.29047  0.89402  1.0000
  I   I123      1.0  0.32417  0.39386  0.11489  1.0000
  I   I124      1.0  0.62889  0.64064  0.71432  1.0000
  I   I125      1.0  0.45606  0.45135  0.08879  1.0000
  I   I126      1.0  0.68320  0.54686  0.94607  1.0000
  I   I127      1.0  0.84895  0.49173  0.89789  1.0000
  I   I128      1.0  0.92336  0.54564  0.11861  1.0000
  I   I129      1.0  0.79830  0.46955  0.68932  1.0000
  I   I130      1.0  0.77482  0.57974  0.60763  1.0000
  I   I131      1.0  0.76898  0.97405  0.14235  1.0000
  I   I132      1.0  0.79947  0.63428  0.23125  1.0000
  I   I133      1.0  0.56751  0.43862  0.95831  1.0000
  I   I134      1.0  0.77300  0.18963  0.24532  1.0000
  I   I135      1.0  0.67220  0.36014  0.21807  1.0000
  I   I136      1.0  0.34284  0.76343  0.46192  1.0000
  I   I137      1.0  0.92641  0.19573  0.91340  1.0000
  I   I138      1.0  0.76203  0.33340  0.62865  1.0000
  I   I139      1.0  0.07244  0.54081  0.85729  1.0000
  I   I140      1.0  0.85796  0.35060  0.41901  1.0000
  I   I141      1.0  0.98884  0.61096  0.58364  1.0000
  I   I142      1.0  0.52740  0.15180  0.81053  1.0000
  I   I143      1.0  0.66994  0.96213  0.49452  1.0000
  I   I144      1.0  0.60913  0.01380  0.25254  1.0000
  I   I145      1.0  0.46875  0.80258  0.28999  1.0000
  I   I146      1.0  0.13577  0.89210  0.98456  1.0000
  I   I147      1.0  0.34804  0.92236  0.16493  1.0000
  I   I148      1.0  0.18042  0.05773  0.55541  1.0000
  I   I149      1.0  0.16346  0.26839  0.56035  1.0000
  I   I150      1.0  0.12436  0.20325  0.92213  1.0000
  I   I151      1.0  0.95655  0.72769  0.14993  1.0000
  I   I152      1.0  0.96472  0.00857  0.38146  1.0000
  I   I153      1.0  0.96061  0.77476  0.39900  1.0000
  I   I154      1.0  0.21821  0.80015  0.85286  1.0000
  I   I155      1.0  0.04059  0.65810  0.70942  1.0000
  I   I156      1.0  0.08957  0.77496  0.61399  1.0000
  I   I157      1.0  0.32658  0.11059  0.31446  1.0000
  I   I158      1.0  0.38417  0.03662  0.59287  1.0000
  I   I159      1.0  0.32417  0.14898  0.01688  1.0000
  I   I160      1.0  0.30727  0.43100  0.70966  1.0000
  I   I161      1.0  0.17974  0.60105  0.33152  1.0000
  I   I162      1.0  0.31910  0.37282  0.59034  1.0000
  I   I163      1.0  0.36767  0.66094  0.57062  1.0000
  I   I164      1.0  0.71014  0.70602  0.94022  1.0000
  I   I165      1.0  0.30434  0.55940  0.68720  1.0000
  I   I166      1.0  0.42341  0.81109  0.71910  1.0000
  I   I167      1.0  0.58130  0.91323  0.12065  1.0000
  I   I168      1.0  0.42981  0.79249  0.00492  1.0000
  I   I169      1.0  0.40888  0.25102  0.78534  1.0000
  I   I170      1.0  0.27802  0.33296  0.00234  1.0000
  I   I171      1.0  0.58277  0.42368  0.68968  1.0000
  I   I172      1.0  0.56956  0.69095  0.62113  1.0000
  I   I173      1.0  0.64790  0.52009  0.07624  1.0000
  I   I174      1.0  0.62458  0.55254  0.83013  1.0000
  I   I175      1.0  0.94489  0.50016  0.92107  1.0000
  I   I176      1.0  0.78283  0.41262  0.50728  1.0000
  I   I177      1.0  0.86812  0.48767  0.69038  1.0000
  I   I178      1.0  0.81779  0.99559  0.15405  1.0000
  I   I179      1.0  0.70799  0.65096  0.21300  1.0000
  I   I180      1.0  0.83372  0.61470  0.47140  1.0000
  I   I181      1.0  0.65684  0.25303  0.29128  1.0000
  I   I182      1.0  0.78025  0.26674  0.28651  1.0000
  I   I183      1.0  0.57258  0.28594  0.92809  1.0000
  I   I184      1.0  0.86412  0.27927  0.86726  1.0000
  I   I185      1.0  0.78022  0.23662  0.50581  1.0000
  I   I186      1.0  0.19350  0.83843  0.38574  1.0000
  I   I187      1.0  0.84977  0.37680  0.17521  1.0000
  I   I188      1.0  0.99717  0.51405  0.49912  1.0000
  I   I189      1.0  0.03266  0.53892  0.66057  1.0000
  I   I190      1.0  0.71090  0.85468  0.60370  1.0000
  I   I191      1.0  0.58374  0.02457  0.48121  1.0000
  I   I192      1.0  0.52912  0.22337  0.96249  1.0000
  I   I193      1.0  0.54913  0.79677  0.28797  1.0000
  I   I194      1.0  0.09773  0.95173  0.06531  1.0000
  I   I195      1.0  0.39869  0.96580  0.14627  1.0000
  I   I196      1.0  0.25823  0.08710  0.37707  1.0000
  I   I197      1.0  0.13558  0.41503  0.49265  1.0000
  I   I198      1.0  0.20656  0.15741  0.76444  1.0000
  I   I199      1.0  0.93489  0.75374  0.95602  1.0000
  I   I200      1.0  0.91164  0.07975  0.62539  1.0000
  I   I201      1.0  0.90417  0.72870  0.41030  1.0000
  I   I202      1.0  0.29829  0.75863  0.75275  1.0000
  I   I203      1.0  0.98514  0.71326  0.80502  1.0000
  I   I204      1.0  0.05378  0.86324  0.64250  1.0000
  I   I205      1.0  0.35537  0.10967  0.46880  1.0000
  I   I206      1.0  0.43986  0.07182  0.56948  1.0000
  I   I207      1.0  0.26578  0.12284  0.07631  1.0000
  I   I208      1.0  0.28571  0.50610  0.24879  1.0000
  I   I209      1.0  0.19064  0.66803  0.38459  1.0000
  I   I210      1.0  0.23727  0.43218  0.61658  1.0000
  I   I211      1.0  0.49515  0.53647  0.44956  1.0000
  I   I212      1.0  0.76859  0.69295  0.82103  1.0000
  I   I213      1.0  0.33183  0.58891  0.57207  1.0000
  I   I214      1.0  0.40220  0.92561  0.62778  1.0000
  I   I215      1.0  0.65980  0.86537  0.09587  1.0000
  I   I216      1.0  0.44979  0.73122  0.90317  1.0000
  I   I217      1.0  0.40349  0.32346  0.74091  1.0000
  I   I218      1.0  0.35570  0.32362  0.05136  1.0000
  I   I219      1.0  0.54934  0.39644  0.55807  1.0000
  I   I220      1.0  0.47960  0.39125  0.20994  1.0000
  I   I221      1.0  0.71567  0.44366  0.02998  1.0000
  I   I222      1.0  0.62536  0.62706  0.85699  1.0000
  I   I223      1.0  0.87125  0.56091  0.00034  1.0000
  I   I224      1.0  0.74741  0.43182  0.64383  1.0000
  I   I225      1.0  0.79933  0.52450  0.78633  1.0000
  I   I226      1.0  0.77753  0.06252  0.23434  1.0000
  I   I227      1.0  0.70654  0.59162  0.05564  1.0000
  I   I228      1.0  0.83418  0.60209  0.62756  1.0000
  I   I229      1.0  0.71475  0.16751  0.36022  1.0000
  I   I230      1.0  0.74850  0.36260  0.19557  1.0000
  I   I231      1.0  0.56952  0.35668  0.98021  1.0000
  I   I232      1.0  0.77950  0.29983  0.95500  1.0000
  I   I233      1.0  0.75649  0.33634  0.77397  1.0000
  I   I234      1.0  0.26353  0.77460  0.41284  1.0000
  I   I235      1.0  0.79275  0.46055  0.19414  1.0000
  I   I236      1.0  0.96421  0.59675  0.43686  1.0000
  I   I237      1.0  0.08318  0.56888  0.72757  1.0000
  I   I238      1.0  0.73388  0.89061  0.49073  1.0000
  I   I239      1.0  0.64933  0.00541  0.37182  1.0000
  I   I240      1.0  0.49381  0.23496  0.83323  1.0000
  I   I241      1.0  0.51438  0.78380  0.40900  1.0000
  I   I242      1.0  0.15089  0.95536  0.92938  1.0000
  I   I243      1.0  0.41487  0.90485  0.05186  1.0000
  I   I244      1.0  0.21897  0.04381  0.40500  1.0000
  I   I245      1.0  0.21599  0.37249  0.54469  1.0000
  I   I246      1.0  0.12208  0.19432  0.77524  1.0000
  I   I247      1.0  0.99571  0.69225  0.03784  1.0000
  I   I248      1.0  0.95540  0.00459  0.59360  1.0000
  I   I249      1.0  0.97438  0.71109  0.32241  1.0000
  I   I250      1.0  0.25742  0.72730  0.81641  1.0000
  I   I251      1.0  0.97256  0.73493  0.65436  1.0000
  I   I252      1.0  0.03608  0.87386  0.80511  1.0000
  I   I253      1.0  0.30676  0.18349  0.38398  1.0000
  I   I254      1.0  0.32699  0.20624  0.69717  1.0000
  I   I255      1.0  0.27711  0.17332  0.17551  1.0000
  I   I256      1.0  0.28268  0.53272  0.08933  1.0000
  I   I257      1.0  0.12014  0.68031  0.44167  1.0000
  I   I258      1.0  0.30315  0.51190  0.47885  1.0000
  I   I259      1.0  0.52094  0.59870  0.44665  1.0000
  I   I260      1.0  0.69614  0.75605  0.80758  1.0000
  I   I261      1.0  0.39170  0.51610  0.60814  1.0000
  I   I262      1.0  0.47193  0.85982  0.60684  1.0000
  I   I263      1.0  0.61284  0.88492  0.96525  1.0000
  I   I264      1.0  0.51291  0.74533  0.96251  1.0000
  I   I265      1.0  0.40697  0.30579  0.90387  1.0000
  I   I266      1.0  0.29774  0.33243  0.15919  1.0000
  I   I267      1.0  0.62515  0.46947  0.62487  1.0000
  I   I268      1.0  0.46405  0.49996  0.17572  1.0000
  I   I269      1.0  0.73402  0.49940  0.08820  1.0000
  I   I270      1.0  0.57063  0.62085  0.76698  1.0000
  I   I271      1.0  0.94644  0.56070  0.99417  1.0000
  I   I272      1.0  0.75332  0.49144  0.54479  1.0000
  I   I273      1.0  0.85534  0.55057  0.80269  1.0000
  I   I274      1.0  0.73265  0.01432  0.27286  1.0000
  I   I275      1.0  0.73611  0.58000  0.20010  1.0000
  I   I276      1.0  0.85776  0.53507  0.52406  1.0000
  I   I277      1.0  0.72904  0.22371  0.39098  1.0000
  I   I278      1.0  0.72086  0.34597  0.32834  1.0000
  I   I279      1.0  0.59782  0.30135  0.78890  1.0000
  I   I280      1.0  0.94611  0.26182  0.92615  1.0000
  I   I281      1.0  0.75123  0.25974  0.63766  1.0000
  I   I282      1.0  0.26199  0.82199  0.50183  1.0000
  I   I283      1.0  0.88546  0.42390  0.21845  1.0000
  I   I284      1.0  0.04859  0.54809  0.47950  1.0000
  I   I285      1.0  0.12320  0.49122  0.74225  1.0000
  I   I286      1.0  0.70949  0.92558  0.63767  1.0000
  I   I287      1.0  0.57924  0.08365  0.34696  1.0000
  I   I288      1.0  0.48143  0.19158  0.97264  1.0000
  I   I289      1.0  0.45603  0.88225  0.38673  1.0000
  I   I290      1.0  0.12632  0.84020  0.11599  1.0000
  I   I291      1.0  0.18381  0.99376  0.83927  1.0000
  I   I292      1.0  0.29040  0.98736  0.48028  1.0000
  I   I293      1.0  0.16212  0.31617  0.43760  1.0000
  I   I294      1.0  0.18478  0.27188  0.88621  1.0000
  I   I295      1.0  0.91979  0.80095  0.09535  1.0000
  I   I296      1.0  0.91632  0.09085  0.44671  1.0000
  I   I297      1.0  0.96112  0.85183  0.38921  1.0000
  I   I298      1.0  0.16216  0.77019  0.82950  1.0000
  I   I299      1.0  0.33586  0.79409  0.00641  1.0000
  I   I300      1.0  0.07986  0.79788  0.74691  1.0000
  I   I301      1.0  0.35461  0.12996  0.17315  1.0000
  I   I302      1.0  0.31963  0.25027  0.42957  1.0000
  I   I303      1.0  0.27856  0.17493  0.66413  1.0000
  I   I304      1.0  0.24013  0.47890  0.45038  1.0000
  I   I305      1.0  0.14023  0.61587  0.19886  1.0000
  I   I306      1.0  0.03766  0.66272  0.40730  1.0000
  I   I307      1.0  0.42488  0.58665  0.51884  1.0000
  I   I308      1.0  0.58577  0.76996  0.75417  1.0000
  I   I309      1.0  0.25310  0.61113  0.59018  1.0000
  I   I310      1.0  0.47621  0.85317  0.77736  1.0000
  I   I311      1.0  0.66714  0.85152  0.26024  1.0000
  I   I312      1.0  0.68478  0.83439  0.87838  1.0000
  I   I313      1.0  0.48374  0.47371  0.55132  1.0000
  I   I314      1.0  0.24585  0.39087  0.86761  1.0000
  I   I315      1.0  0.24040  0.37761  0.25762  1.0000
  I   I316      1.0  0.53637  0.63464  0.63251  1.0000
  I   I317      1.0  0.57222  0.45596  0.24532  1.0000
  I   I318      1.0  0.67815  0.48519  0.77361  1.0000
  I   I319      1.0  0.96338  0.42173  0.96759  1.0000
  I   I320      1.0  0.03405  0.51337  0.05449  1.0000
  I   I321      1.0  0.91026  0.40048  0.63542  1.0000
  I   I322      1.0  0.78724  0.95676  0.97860  1.0000
  I   I323      1.0  0.75996  0.63836  0.09210  1.0000
  I   I324      1.0  0.74023  0.65726  0.57537  1.0000
  I   I325      1.0  0.66565  0.14443  0.26906  1.0000
  I   I326      1.0  0.74694  0.29754  0.13743  1.0000
  I   I327      1.0  0.56409  0.38366  0.84808  1.0000
  I   I328      1.0  0.93713  0.21916  0.04965  1.0000
  I   I329      1.0  0.72790  0.32428  0.50183  1.0000
  I   I330      1.0  0.22422  0.87164  0.27963  1.0000
  I   I331      1.0  0.16401  0.48995  0.87477  1.0000
  I   I332      1.0  0.84632  0.42097  0.34813  1.0000
  I   I333      1.0  0.94663  0.55548  0.72347  1.0000
  I   I334      1.0  0.57052  0.13312  0.93413  1.0000
  I   I335      1.0  0.56462  0.95722  0.50678  1.0000
  I   I336      1.0  0.50273  0.12095  0.24397  1.0000
  I   I337      1.0  0.41915  0.92174  0.25583  1.0000
  I   I338      1.0  0.08968  0.91557  0.19564  1.0000
  I   I339      1.0  0.19680  0.01701  0.97495  1.0000
  I   I340      1.0  0.25492  0.99159  0.60233  1.0000
  I   I341      1.0  0.19444  0.31952  0.62790  1.0000
  I   I342      1.0  0.13344  0.26640  0.98650  1.0000
  I   I343      1.0  0.85312  0.81874  0.19627  1.0000
  I   I344      1.0  0.87904  0.06010  0.34097  1.0000
  I   I345      1.0  0.87541  0.88103  0.36302  1.0000
  I   I346      1.0  0.17446  0.81682  0.71390  1.0000
  I   I347      1.0  0.37810  0.70444  0.02516  1.0000
  I   I348      1.0  0.04212  0.73901  0.78131  1.0000
  I   I349      1.0  0.42791  0.05915  0.20904  1.0000
  I   I350      1.0  0.32903  0.23368  0.26863  1.0000
  I   I351      1.0  0.32402  0.14743  0.80492  1.0000
  I   I352      1.0  0.31435  0.44458  0.53567  1.0000
  I   I353      1.0  0.21629  0.60229  0.12948  1.0000
  I   I354      1.0  0.10285  0.63046  0.51380  1.0000
  I   I355      1.0  0.46453  0.62936  0.56571  1.0000
  I   I356      1.0  0.66611  0.70548  0.79073  1.0000
  I   I357      1.0  0.23490  0.64278  0.70875  1.0000
  I   I358      1.0  0.46449  0.83075  0.91501  1.0000
  I   I359      1.0  0.65793  0.92484  0.20141  1.0000
  I   I360      1.0  0.72000  0.81210  0.01934  1.0000
  I   I361      1.0  0.50468  0.41877  0.67394  1.0000
  I   I362      1.0  0.32560  0.35022  0.79614  1.0000
  I   I363      1.0  0.27185  0.43593  0.23518  1.0000
  I   I364      1.0  0.59978  0.62276  0.54247  1.0000
  I   I365      1.0  0.53394  0.52385  0.15022  1.0000
  I   I366      1.0  0.74068  0.47857  0.90556  1.0000
  I   I367      1.0  0.90390  0.40936  0.94712  1.0000
  I   I368      1.0  0.99786  0.51108  0.18839  1.0000
  I   I369      1.0  0.83568  0.39019  0.67301  1.0000
  I   I370      1.0  0.83139  0.99639  0.99530  1.0000
  I   I371      1.0  0.81917  0.56697  0.16069  1.0000
  I   I372      1.0  0.70445  0.58746  0.56727  1.0000
  I   I373      1.0  0.61884  0.21612  0.35099  1.0000
  I   I374      1.0  0.76998  0.21710  0.10991  1.0000
  I   I375      1.0  0.64442  0.39194  0.89140  1.0000
  I   I376      1.0  0.88014  0.29979  0.00125  1.0000
  I   I377      1.0  0.75444  0.26604  0.79234  1.0000
  I   I378      1.0  0.29756  0.78993  0.30666  1.0000
  I   I379      1.0  0.13786  0.57107  0.84906  1.0000
  I   I380      1.0  0.90676  0.34539  0.30120  1.0000
  I   I381      1.0  0.94210  0.63292  0.71104  1.0000
  I   I382      1.0  0.55678  0.06976  0.85663  1.0000
  I   I383      1.0  0.65499  0.90579  0.46956  1.0000
  I   I384      1.0  0.53787  0.04069  0.18989  1.0000
