data_image0
_chemical_formula_structural       Ti96I384
_chemical_formula_sum              "Ti96 I384"
_cell_length_a       49.209
_cell_length_b       48.8387
_cell_length_c       23.7942
_cell_angle_alpha    88.7757
_cell_angle_beta     88.7757
_cell_angle_gamma    62.1586

_space_group_name_H-M_alt    "P 1"
_space_group_IT_number       1

loop_
  _space_group_symop_operation_xyz
  'x, y, z'

loop_
  _atom_site_type_symbol
  _atom_site_label
  _atom_site_symmetry_multiplicity
  _atom_site_fract_x
  _atom_site_fract_y
  _atom_site_fract_z
  _atom_site_occupancy
  Ti  Ti1       1.0  0.41544  0.95793  0.40719  1.0000
  Ti  Ti2       1.0  0.13249  0.03928  0.04073  1.0000
  Ti  Ti3       1.0  0.32200  0.98180  0.13467  1.0000
  Ti  Ti4       1.0  0.11893  0.20335  0.43829  1.0000
  Ti  Ti5       1.0  0.10746  0.33040  0.85684  1.0000
  Ti  Ti6       1.0  0.20653  0.17864  0.03775  1.0000
  Ti  Ti7       1.0  0.96331  0.67948  0.24947  1.0000
  Ti  Ti8       1.0  0.90203  0.86776  0.65978  1.0000
  Ti  Ti9       1.0  0.85828  0.87179  0.10948  1.0000
  Ti  Ti10      1.0  0.02314  0.85259  0.16363  1.0000
  Ti  Ti11      1.0  0.12885  0.82549  0.72996  1.0000
  Ti  Ti12      1.0  0.07462  0.69693  0.67108  1.0000
  Ti  Ti13      1.0  0.41303  0.16183  0.42414  1.0000
  Ti  Ti14      1.0  0.37889  0.04708  0.75091  1.0000
  Ti  Ti15      1.0  0.39424  0.12319  0.09838  1.0000
  Ti  Ti16      1.0  0.26672  0.62437  0.83423  1.0000
  Ti  Ti17      1.0  0.21997  0.61729  0.13707  1.0000
  Ti  Ti18      1.0  0.32676  0.44714  0.77468  1.0000
  Ti  Ti19      1.0  0.38818  0.75181  0.12662  1.0000
  Ti  Ti20      1.0  0.61714  0.53938  0.64891  1.0000
  Ti  Ti21      1.0  0.35411  0.69649  0.39587  1.0000
  Ti  Ti22      1.0  0.30777  0.90089  0.73049  1.0000
  Ti  Ti23      1.0  0.51519  0.86481  0.81049  1.0000
  Ti  Ti24      1.0  0.46117  0.80819  0.55739  1.0000
  Ti  Ti25      1.0  0.54649  0.24041  0.69880  1.0000
  Ti  Ti26      1.0  0.44400  0.27871  0.96487  1.0000
  Ti  Ti27      1.0  0.54812  0.21740  0.37418  1.0000
  Ti  Ti28      1.0  0.58813  0.38942  0.36309  1.0000
  Ti  Ti29      1.0  0.69837  0.35851  0.89478  1.0000
  Ti  Ti30      1.0  0.53637  0.45423  0.02224  1.0000
  Ti  Ti31      1.0  0.74158  0.54046  0.34449  1.0000
  Ti  Ti32      1.0  0.84568  0.48938  0.78273  1.0000
  Ti  Ti33      1.0  0.75013  0.55917  0.02852  1.0000
  Ti  Ti34      1.0  0.79294  0.69946  0.97135  1.0000
  Ti  Ti35      1.0  0.58042  0.81962  0.31675  1.0000
  Ti  Ti36      1.0  0.76014  0.67227  0.59226  1.0000
  Ti  Ti37      1.0  0.77299  0.18193  0.94647  1.0000
  Ti  Ti38      1.0  0.90961  0.15816  0.14953  1.0000
  Ti  Ti39      1.0  0.80937  0.18001  0.53903  1.0000
  Ti  Ti40      1.0  0.91077  0.38699  0.13389  1.0000
  Ti  Ti41      1.0  0.93944  0.30503  0.46151  1.0000
  Ti  Ti42      1.0  0.10300  0.02988  0.45332  1.0000
  Ti  Ti43      1.0  0.04403  0.48064  0.23863  1.0000
  Ti  Ti44      1.0  0.08206  0.49352  0.55115  1.0000
  Ti  Ti45      1.0  0.10851  0.53798  0.81560  1.0000
  Ti  Ti46      1.0  0.75259  0.99654  0.42333  1.0000
  Ti  Ti47      1.0  0.69033  0.04985  0.71744  1.0000
  Ti  Ti48      1.0  0.62161  0.06876  0.02282  1.0000
  Ti  Ti49      1.0  0.33232  0.02183  0.34925  1.0000
  Ti  Ti50      1.0  0.05772  0.07877  0.96799  1.0000
  Ti  Ti51      1.0  0.20776  0.01191  0.14473  1.0000
  Ti  Ti52      1.0  0.08574  0.28092  0.32013  1.0000
  Ti  Ti53      1.0  0.09287  0.33180  0.68034  1.0000
  Ti  Ti54      1.0  0.14800  0.22867  0.88478  1.0000
  Ti  Ti55      1.0  0.91835  0.76357  0.16079  1.0000
  Ti  Ti56      1.0  0.91529  0.92073  0.60604  1.0000
  Ti  Ti57      1.0  0.84363  0.91766  0.96304  1.0000
  Ti  Ti58      1.0  0.98433  0.93896  0.18331  1.0000
  Ti  Ti59      1.0  0.12092  0.80636  0.20643  1.0000
  Ti  Ti60      1.0  0.10574  0.75543  0.69611  1.0000
  Ti  Ti61      1.0  0.36843  0.14437  0.26618  1.0000
  Ti  Ti62      1.0  0.33028  0.24186  0.44858  1.0000
  Ti  Ti63      1.0  0.32986  0.10684  0.69992  1.0000
  Ti  Ti64      1.0  0.24616  0.47781  0.64425  1.0000
  Ti  Ti65      1.0  0.26065  0.57562  0.96356  1.0000
  Ti  Ti66      1.0  0.22558  0.55944  0.26965  1.0000
  Ti  Ti67      1.0  0.32295  0.77331  0.25580  1.0000
  Ti  Ti68      1.0  0.64346  0.58268  0.71030  1.0000
  Ti  Ti69      1.0  0.31834  0.69405  0.57239  1.0000
  Ti  Ti70      1.0  0.37504  0.83920  0.65341  1.0000
  Ti  Ti71      1.0  0.55528  0.90902  0.71853  1.0000
  Ti  Ti72      1.0  0.46307  0.84074  0.91815  1.0000
  Ti  Ti73      1.0  0.55635  0.17929  0.55231  1.0000
  Ti  Ti74      1.0  0.47482  0.22799  0.79732  1.0000
  Ti  Ti75      1.0  0.42225  0.26616  0.12918  1.0000
  Ti  Ti76      1.0  0.51642  0.49845  0.86840  1.0000
  Ti  Ti77      1.0  0.56251  0.44769  0.47835  1.0000
  Ti  Ti78      1.0  0.62192  0.38750  0.91102  1.0000
  Ti  Ti79      1.0  0.78368  0.56533  0.20924  1.0000
  Ti  Ti80      1.0  0.81029  0.53117  0.46492  1.0000
  Ti  Ti81      1.0  0.81677  0.54724  0.90767  1.0000
  Ti  Ti82      1.0  0.74490  0.70843  0.82380  1.0000
  Ti  Ti83      1.0  0.62244  0.76950  0.18099  1.0000
  Ti  Ti84      1.0  0.77002  0.72440  0.45241  1.0000
  Ti  Ti85      1.0  0.68042  0.20680  0.99565  1.0000
  Ti  Ti86      1.0  0.82002  0.20622  0.09167  1.0000
  Ti  Ti87      1.0  0.74728  0.22544  0.42590  1.0000
  Ti  Ti88      1.0  0.91069  0.31697  0.14008  1.0000
  Ti  Ti89      1.0  0.97878  0.24912  0.58292  1.0000
  Ti  Ti90      1.0  0.18222  0.95148  0.40221  1.0000
  Ti  Ti91      1.0  0.13586  0.50114  0.96315  1.0000
  Ti  Ti92      1.0  0.01921  0.50155  0.39982  1.0000
  Ti  Ti93      1.0  0.03414  0.54193  0.71050  1.0000
  Ti  Ti94      1.0  0.61394  0.03062  0.16618  1.0000
  Ti  Ti95      1.0  0.71146  0.97547  0.56597  1.0000
  Ti  Ti96      1.0  0.64366  0.02302  0.84960  1.0000
  I   I1        1.0  0.07507  0.04126  0.88255  1.0000
  I   I2        1.0  0.14860  0.01112  0.15675  1.0000
  I   I3        1.0  0.27472  0.03345  0.37139  1.0000
  I   I4        1.0  0.08014  0.28737  0.66180  1.0000
  I   I5        1.0  0.14943  0.27127  0.80235  1.0000
  I   I6        1.0  0.19131  0.14586  0.11719  1.0000
  I   I7        1.0  0.88496  0.97692  0.65155  1.0000
  I   I8        1.0  0.85899  0.91780  0.71207  1.0000
  I   I9        1.0  0.91068  0.83718  0.18315  1.0000
  I   I10       1.0  0.08030  0.82025  0.10580  1.0000
  I   I11       1.0  0.16108  0.74035  0.64476  1.0000
  I   I12       1.0  0.96931  0.96902  0.27971  1.0000
  I   I13       1.0  0.35203  0.18078  0.47355  1.0000
  I   I14       1.0  0.41608  0.07282  0.71889  1.0000
  I   I15       1.0  0.36952  0.09743  0.19552  1.0000
  I   I16       1.0  0.31606  0.57485  0.93332  1.0000
  I   I17       1.0  0.26332  0.55335  0.17120  1.0000
  I   I18       1.0  0.24324  0.44156  0.56412  1.0000
  I   I19       1.0  0.66452  0.52442  0.76775  1.0000
  I   I20       1.0  0.27485  0.73893  0.64165  1.0000
  I   I21       1.0  0.33489  0.75831  0.37416  1.0000
  I   I22       1.0  0.54178  0.94930  0.63831  1.0000
  I   I23       1.0  0.50241  0.93196  0.80327  1.0000
  I   I24       1.0  0.40149  0.85601  0.54764  1.0000
  I   I25       1.0  0.52925  0.19462  0.74835  1.0000
  I   I26       1.0  0.45550  0.22377  0.03358  1.0000
  I   I27       1.0  0.60499  0.12557  0.51340  1.0000
  I   I28       1.0  0.59713  0.44855  0.38485  1.0000
  I   I29       1.0  0.66046  0.32998  0.92355  1.0000
  I   I30       1.0  0.50204  0.45075  0.92340  1.0000
  I   I31       1.0  0.75511  0.58029  0.41668  1.0000
  I   I32       1.0  0.81945  0.57171  0.80814  1.0000
  I   I33       1.0  0.76849  0.59310  0.10384  1.0000
  I   I34       1.0  0.59967  0.79230  0.08122  1.0000
  I   I35       1.0  0.73777  0.78376  0.43257  1.0000
  I   I36       1.0  0.73215  0.66980  0.77197  1.0000
  I   I37       1.0  0.79708  0.16329  0.05857  1.0000
  I   I38       1.0  0.74450  0.26903  0.35498  1.0000
  I   I39       1.0  0.67779  0.17287  0.08381  1.0000
  I   I40       1.0  0.95805  0.21253  0.62177  1.0000
  I   I41       1.0  0.19336  0.91673  0.31662  1.0000
  I   I42       1.0  0.94111  0.36658  0.03539  1.0000
  I   I43       1.0  0.00604  0.46749  0.31537  1.0000
  I   I44       1.0  0.04266  0.48716  0.63699  1.0000
  I   I45       1.0  0.08778  0.50685  0.90650  1.0000
  I   I46       1.0  0.76859  0.95123  0.50991  1.0000
  I   I47       1.0  0.69721  0.99749  0.77792  1.0000
  I   I48       1.0  0.63507  0.00603  0.05793  1.0000
  I   I49       1.0  0.38991  0.99161  0.29529  1.0000
  I   I50       1.0  0.07489  0.08570  0.07645  1.0000
  I   I51       1.0  0.25703  0.02379  0.11874  1.0000
  I   I52       1.0  0.06829  0.25907  0.40671  1.0000
  I   I53       1.0  0.06397  0.32782  0.78516  1.0000
  I   I54       1.0  0.14209  0.21148  0.99100  1.0000
  I   I55       1.0  0.91425  0.71031  0.15775  1.0000
  I   I56       1.0  0.94794  0.85004  0.57849  1.0000
  I   I57       1.0  0.90147  0.85743  0.00837  1.0000
  I   I58       1.0  0.01317  0.81177  0.12401  1.0000
  I   I59       1.0  0.15436  0.83021  0.15326  1.0000
  I   I60       1.0  0.05169  0.74617  0.74231  1.0000
  I   I61       1.0  0.37219  0.19233  0.31847  1.0000
  I   I62       1.0  0.32472  0.27504  0.36368  1.0000
  I   I63       1.0  0.33322  0.15754  0.66610  1.0000
  I   I64       1.0  0.22440  0.64252  0.76002  1.0000
  I   I65       1.0  0.20997  0.59194  0.03746  1.0000
  I   I66       1.0  0.21837  0.51066  0.26569  1.0000
  I   I67       1.0  0.32319  0.78033  0.13317  1.0000
  I   I68       1.0  0.58259  0.59310  0.72884  1.0000
  I   I69       1.0  0.29849  0.72620  0.47449  1.0000
  I   I70       1.0  0.35096  0.83717  0.76805  1.0000
  I   I71       1.0  0.57767  0.84705  0.82306  1.0000
  I   I72       1.0  0.42166  0.82212  0.89392  1.0000
  I   I73       1.0  0.51573  0.23209  0.60255  1.0000
  I   I74       1.0  0.42343  0.27002  0.85953  1.0000
  I   I75       1.0  0.38043  0.32281  0.14340  1.0000
  I   I76       1.0  0.54586  0.42090  0.29239  1.0000
  I   I77       1.0  0.57108  0.45938  0.57788  1.0000
  I   I78       1.0  0.57826  0.45444  0.93215  1.0000
  I   I79       1.0  0.80620  0.51442  0.28867  1.0000
  I   I80       1.0  0.85530  0.47641  0.46432  1.0000
  I   I81       1.0  0.81903  0.52579  0.01468  1.0000
  I   I82       1.0  0.76134  0.75280  0.80541  1.0000
  I   I83       1.0  0.55056  0.78861  0.31043  1.0000
  I   I84       1.0  0.72383  0.72672  0.53017  1.0000
  I   I85       1.0  0.71897  0.23562  0.99893  1.0000
  I   I86       1.0  0.86843  0.22290  0.07889  1.0000
  I   I87       1.0  0.79163  0.18697  0.64457  1.0000
  I   I88       1.0  0.86702  0.36494  0.07085  1.0000
  I   I89       1.0  0.90907  0.36592  0.46220  1.0000
  I   I90       1.0  0.16962  0.99593  0.49184  1.0000
  I   I91       1.0  0.17382  0.52048  0.99544  1.0000
  I   I92       1.0  0.02309  0.53876  0.48371  1.0000
  I   I93       1.0  0.03907  0.57303  0.79609  1.0000
  I   I94       1.0  0.58139  0.00271  0.17860  1.0000
  I   I95       1.0  0.67019  0.01723  0.62786  1.0000
  I   I96       1.0  0.59419  0.05677  0.92241  1.0000
  I   I97       1.0  0.31869  0.02187  0.22846  1.0000
  I   I98       1.0  0.46688  0.96205  0.38380  1.0000
  I   I99       1.0  0.16189  0.06867  0.10184  1.0000
  I   I100      1.0  0.11951  0.29519  0.24624  1.0000
  I   I101      1.0  0.08910  0.19724  0.51942  1.0000
  I   I102      1.0  0.09886  0.28849  0.92637  1.0000
  I   I103      1.0  0.86330  0.81277  0.11760  1.0000
  I   I104      1.0  0.98180  0.63903  0.16469  1.0000
  I   I105      1.0  0.84086  0.89283  0.87434  1.0000
  I   I106      1.0  0.08416  0.65372  0.74681  1.0000
  I   I107      1.0  0.06737  0.79944  0.24940  1.0000
  I   I108      1.0  0.11788  0.78775  0.80533  1.0000
  I   I109      1.0  0.42730  0.12241  0.20496  1.0000
  I   I110      1.0  0.40119  0.21361  0.47515  1.0000
  I   I111      1.0  0.40609  0.99354  0.69666  1.0000
  I   I112      1.0  0.31368  0.44450  0.65300  1.0000
  I   I113      1.0  0.22603  0.63574  0.91853  1.0000
  I   I114      1.0  0.17451  0.59419  0.20308  1.0000
  I   I115      1.0  0.32022  0.71311  0.28744  1.0000
  I   I116      1.0  0.39418  0.71046  0.04386  1.0000
  I   I117      1.0  0.60273  0.49968  0.69366  1.0000
  I   I118      1.0  0.37141  0.79120  0.63296  1.0000
  I   I119      1.0  0.30776  0.91400  0.83588  1.0000
  I   I120      1.0  0.50695  0.86041  0.92327  1.0000
  I   I121      1.0  0.57191  0.22034  0.46404  1.0000
  I   I122      1.0  0.48763  0.27938  0.75040  1.0000
  I   I123      1.0  0.38532  0.29447  0.00457  1.0000
  I   I124      1.0  0.50066  0.51059  0.99119  1.0000
  I   I125      1.0  0.63245  0.37053  0.28840  1.0000
  I   I126      1.0  0.66587  0.38721  0.99557  1.0000
  I   I127      1.0  0.76619  0.52585  0.13447  1.0000
  I   I128      1.0  0.76234  0.50572  0.43775  1.0000
  I   I129      1.0  0.81008  0.50014  0.87045  1.0000
  I   I130      1.0  0.75524  0.71161  0.66933  1.0000
  I   I131      1.0  0.79381  0.65592  0.03810  1.0000
  I   I132      1.0  0.63282  0.75824  0.30332  1.0000
  I   I133      1.0  0.85789  0.18502  0.55138  1.0000
  I   I134      1.0  0.80814  0.21797  0.98161  1.0000
  I   I135      1.0  0.91188  0.19023  0.23512  1.0000
  I   I136      1.0  0.09745  0.04715  0.55776  1.0000
  I   I137      1.0  0.94718  0.40476  0.17677  1.0000
  I   I138      1.0  0.95504  0.30795  0.35928  1.0000
  I   I139      1.0  0.09416  0.57392  0.90590  1.0000
  I   I140      1.0  0.06432  0.50158  0.33265  1.0000
  I   I141      1.0  0.06969  0.54480  0.61857  1.0000
  I   I142      1.0  0.57544  0.08621  0.09663  1.0000
  I   I143      1.0  0.69491  0.01802  0.47149  1.0000
  I   I144      1.0  0.65332  0.08047  0.80294  1.0000
  I   I145      1.0  0.36252  0.95332  0.39133  1.0000
  I   I146      1.0  0.11759  0.99253  0.01357  1.0000
  I   I147      1.0  0.30314  0.95987  0.04735  1.0000
  I   I148      1.0  0.14486  0.21682  0.33392  1.0000
  I   I149      1.0  0.11181  0.36563  0.77368  1.0000
  I   I150      1.0  0.20044  0.22658  0.94517  1.0000
  I   I151      1.0  0.89586  0.77752  0.26982  1.0000
  I   I152      1.0  0.85943  0.87446  0.58450  1.0000
  I   I153      1.0  0.84511  0.92990  0.07563  1.0000
  I   I154      1.0  0.00231  0.89816  0.08142  1.0000
  I   I155      1.0  0.19122  0.79999  0.73419  1.0000
  I   I156      1.0  0.12697  0.70210  0.74552  1.0000
  I   I157      1.0  0.40148  0.11774  0.35499  1.0000
  I   I158      1.0  0.33621  0.10878  0.81187  1.0000
  I   I159      1.0  0.36398  0.11934  0.01568  1.0000
  I   I160      1.0  0.20395  0.47589  0.70445  1.0000
  I   I161      1.0  0.27358  0.60493  0.07567  1.0000
  I   I162      1.0  0.34643  0.45785  0.87404  1.0000
  I   I163      1.0  0.39475  0.74723  0.23801  1.0000
  I   I164      1.0  0.62771  0.62642  0.77878  1.0000
  I   I165      1.0  0.37644  0.67821  0.50731  1.0000
  I   I166      1.0  0.31392  0.87823  0.62585  1.0000
  I   I167      1.0  0.52910  0.87501  0.69270  1.0000
  I   I168      1.0  0.47882  0.75354  0.60083  1.0000
  I   I169      1.0  0.58757  0.19443  0.63588  1.0000
  I   I170      1.0  0.50027  0.24399  0.91590  1.0000
  I   I171      1.0  0.55701  0.17228  0.30315  1.0000
  I   I172      1.0  0.54059  0.46960  0.77480  1.0000
  I   I173      1.0  0.73880  0.30973  0.96335  1.0000
  I   I174      1.0  0.58445  0.39153  0.01259  1.0000
  I   I175      1.0  0.72297  0.59214  0.26823  1.0000
  I   I176      1.0  0.88748  0.49251  0.71854  1.0000
  I   I177      1.0  0.75744  0.58986  0.94115  1.0000
  I   I178      1.0  0.80791  0.67159  0.86310  1.0000
  I   I179      1.0  0.61122  0.82867  0.23530  1.0000
  I   I180      1.0  0.70845  0.67129  0.58627  1.0000
  I   I181      1.0  0.74211  0.14773  0.97437  1.0000
  I   I182      1.0  0.87683  0.14506  0.06506  1.0000
  I   I183      1.0  0.74774  0.18474  0.51291  1.0000
  I   I184      1.0  0.89059  0.36371  0.22689  1.0000
  I   I185      1.0  0.99118  0.23064  0.47512  1.0000
  I   I186      1.0  0.12089  0.98419  0.36944  1.0000
  I   I187      1.0  0.02043  0.51956  0.15341  1.0000
  I   I188      1.0  0.06858  0.45467  0.48369  1.0000
  I   I189      1.0  0.10405  0.49569  0.74215  1.0000
  I   I190      1.0  0.79571  0.96361  0.35414  1.0000
  I   I191      1.0  0.73779  0.01771  0.62586  1.0000
  I   I192      1.0  0.67435  0.02832  0.94743  1.0000
  I   I193      1.0  0.43967  0.89714  0.40063  1.0000
  I   I194      1.0  0.11858  0.07616  0.94801  1.0000
  I   I195      1.0  0.36396  0.99074  0.08911  1.0000
  I   I196      1.0  0.14044  0.23415  0.49690  1.0000
  I   I197      1.0  0.07305  0.37932  0.91772  1.0000
  I   I198      1.0  0.24768  0.19139  0.07888  1.0000
  I   I199      1.0  0.92604  0.66507  0.31094  1.0000
  I   I200      1.0  0.93770  0.89215  0.70734  1.0000
  I   I201      1.0  0.81334  0.88094  0.02029  1.0000
  I   I202      1.0  0.96758  0.88967  0.20878  1.0000
  I   I203      1.0  0.12764  0.86142  0.64682  1.0000
  I   I204      1.0  0.12211  0.66451  0.60932  1.0000
  I   I205      1.0  0.45547  0.14918  0.34229  1.0000
  I   I206      1.0  0.32655  0.04831  0.72383  1.0000
  I   I207      1.0  0.41704  0.15344  0.03391  1.0000
  I   I208      1.0  0.27102  0.67651  0.84541  1.0000
  I   I209      1.0  0.17297  0.66779  0.09653  1.0000
  I   I210      1.0  0.28934  0.42904  0.80611  1.0000
  I   I211      1.0  0.44760  0.71905  0.10352  1.0000
  I   I212      1.0  0.69758  0.57575  0.68504  1.0000
  I   I213      1.0  0.34246  0.64902  0.38585  1.0000
  I   I214      1.0  0.26009  0.89087  0.74780  1.0000
  I   I215      1.0  0.51104  0.81154  0.81067  1.0000
  I   I216      1.0  0.47342  0.79663  0.44911  1.0000
  I   I217      1.0  0.55202  0.28290  0.63262  1.0000
  I   I218      1.0  0.44346  0.33013  0.93910  1.0000
  I   I219      1.0  0.48973  0.25612  0.36429  1.0000
  I   I220      1.0  0.56460  0.35097  0.38131  1.0000
  I   I221      1.0  0.73005  0.33414  0.80122  1.0000
  I   I222      1.0  0.56716  0.45923  0.10979  1.0000
  I   I223      1.0  0.73014  0.50700  0.27707  1.0000
  I   I224      1.0  0.87516  0.43024  0.80070  1.0000
  I   I225      1.0  0.74086  0.51674  0.97556  1.0000
  I   I226      1.0  0.76747  0.74994  0.02432  1.0000
  I   I227      1.0  0.59946  0.83225  0.40569  1.0000
  I   I228      1.0  0.80782  0.67012  0.51635  1.0000
  I   I229      1.0  0.76435  0.20018  0.84040  1.0000
  I   I230      1.0  0.95589  0.14878  0.08885  1.0000
  I   I231      1.0  0.81139  0.18152  0.41348  1.0000
  I   I232      1.0  0.85967  0.43896  0.14405  1.0000
  I   I233      1.0  0.92387  0.29874  0.60497  1.0000
  I   I234      1.0  0.04530  0.04972  0.44301  1.0000
  I   I235      1.0  0.09481  0.48331  0.20382  1.0000
  I   I236      1.0  0.12587  0.50216  0.49498  1.0000
  I   I237      1.0  0.13101  0.56722  0.76054  1.0000
  I   I238      1.0  0.72571  0.03295  0.33192  1.0000
  I   I239      1.0  0.67600  0.09690  0.65336  1.0000
  I   I240      1.0  0.61368  0.12389  0.99102  1.0000
  I   I241      1.0  0.41014  0.95768  0.52173  1.0000
  I   I242      1.0  0.19071  0.99891  0.02257  1.0000
  I   I243      1.0  0.34693  0.93322  0.19745  1.0000
  I   I244      1.0  0.17151  0.15051  0.46046  1.0000
  I   I245      1.0  0.15298  0.32649  0.92210  1.0000
  I   I246      1.0  0.23840  0.13021  0.97862  1.0000
  I   I247      1.0  0.01688  0.65779  0.29873  1.0000
  I   I248      1.0  0.91292  0.81722  0.70829  1.0000
  I   I249      1.0  0.82193  0.88850  0.19767  1.0000
  I   I250      1.0  0.05558  0.88404  0.19353  1.0000
  I   I251      1.0  0.12265  0.86093  0.81588  1.0000
  I   I252      1.0  0.02449  0.69943  0.61609  1.0000
  I   I253      1.0  0.45455  0.12816  0.49587  1.0000
  I   I254      1.0  0.40106  0.01676  0.85047  1.0000
  I   I255      1.0  0.44389  0.06973  0.08928  1.0000
  I   I256      1.0  0.31020  0.58946  0.77196  1.0000
  I   I257      1.0  0.22583  0.63904  0.22778  1.0000
  I   I258      1.0  0.37709  0.39440  0.77341  1.0000
  I   I259      1.0  0.38814  0.80652  0.11579  1.0000
  I   I260      1.0  0.57482  0.55614  0.57000  1.0000
  I   I261      1.0  0.40423  0.66869  0.34809  1.0000
  I   I262      1.0  0.26623  0.95861  0.70673  1.0000
  I   I263      1.0  0.45180  0.89733  0.78044  1.0000
  I   I264      1.0  0.49602  0.83080  0.58298  1.0000
  I   I265      1.0  0.57479  0.23526  0.79745  1.0000
  I   I266      1.0  0.46702  0.28753  0.06441  1.0000
  I   I267      1.0  0.58151  0.22991  0.29405  1.0000
  I   I268      1.0  0.61401  0.38146  0.46937  1.0000
  I   I269      1.0  0.73355  0.38684  0.89766  1.0000
  I   I270      1.0  0.49064  0.44790  0.07842  1.0000
  I   I271      1.0  0.68472  0.57258  0.38964  1.0000
  I   I272      1.0  0.79873  0.49555  0.72073  1.0000
  I   I273      1.0  0.69120  0.59719  0.06795  1.0000
  I   I274      1.0  0.85149  0.67540  0.99721  1.0000
  I   I275      1.0  0.53866  0.87614  0.28684  1.0000
  I   I276      1.0  0.79051  0.62096  0.64265  1.0000
  I   I277      1.0  0.82198  0.13496  0.90865  1.0000
  I   I278      1.0  0.93398  0.10583  0.19838  1.0000
  I   I279      1.0  0.83622  0.11866  0.54359  1.0000
  I   I280      1.0  0.96087  0.31796  0.16715  1.0000
  I   I281      1.0  0.89984  0.28591  0.44020  1.0000
  I   I282      1.0  0.11547  0.06884  0.40042  1.0000
  I   I283      1.0  0.05781  0.43074  0.18043  1.0000
  I   I284      1.0  0.12955  0.44019  0.58928  1.0000
  I   I285      1.0  0.16429  0.49526  0.85022  1.0000
  I   I286      1.0  0.76935  0.03642  0.46077  1.0000
  I   I287      1.0  0.73755  0.04613  0.77250  1.0000
  I   I288      1.0  0.66170  0.06288  0.10097  1.0000
  I   I289      1.0  0.37532  0.01975  0.42988  1.0000
  I   I290      1.0  0.01501  0.06674  0.99371  1.0000
  I   I291      1.0  0.24651  0.95339  0.15577  1.0000
  I   I292      1.0  0.05852  0.26626  0.24337  1.0000
  I   I293      1.0  0.05598  0.37503  0.61776  1.0000
  I   I294      1.0  0.20028  0.17973  0.84742  1.0000
  I   I295      1.0  0.96976  0.73848  0.21922  1.0000
  I   I296      1.0  0.95862  0.92679  0.55270  1.0000
  I   I297      1.0  0.78988  0.96680  0.94939  1.0000
  I   I298      1.0  0.01169  0.97097  0.14993  1.0000
  I   I299      1.0  0.16312  0.75181  0.21006  1.0000
  I   I300      1.0  0.07513  0.75191  0.61081  1.0000
  I   I301      1.0  0.30973  0.16118  0.29693  1.0000
  I   I302      1.0  0.32202  0.27517  0.53688  1.0000
  I   I303      1.0  0.27112  0.13141  0.68794  1.0000
  I   I304      1.0  0.22981  0.53229  0.60508  1.0000
  I   I305      1.0  0.28003  0.52001  0.00433  1.0000
  I   I306      1.0  0.19864  0.58459  0.36250  1.0000
  I   I307      1.0  0.32450  0.82389  0.26776  1.0000
  I   I308      1.0  0.66254  0.49236  0.60021  1.0000
  I   I309      1.0  0.29505  0.65741  0.56136  1.0000
  I   I310      1.0  0.36493  0.89716  0.70642  1.0000
  I   I311      1.0  0.57502  0.92623  0.80687  1.0000
  I   I312      1.0  0.42948  0.89040  0.97938  1.0000
  I   I313      1.0  0.53416  0.14720  0.59877  1.0000
  I   I314      1.0  0.46826  0.18704  0.85546  1.0000
  I   I315      1.0  0.46086  0.24514  0.20937  1.0000
  I   I316      1.0  0.54484  0.53267  0.86200  1.0000
  I   I317      1.0  0.52970  0.41828  0.49156  1.0000
  I   I318      1.0  0.58853  0.37459  0.83932  1.0000
  I   I319      1.0  0.78868  0.61176  0.25608  1.0000
  I   I320      1.0  0.79833  0.53052  0.57258  1.0000
  I   I321      1.0  0.83948  0.58324  0.94725  1.0000
  I   I322      1.0  0.73491  0.69654  0.92484  1.0000
  I   I323      1.0  0.68066  0.73094  0.16626  1.0000
  I   I324      1.0  0.81589  0.73456  0.44629  1.0000
  I   I325      1.0  0.63640  0.25496  0.03863  1.0000
  I   I326      1.0  0.84595  0.17488  0.19033  1.0000
  I   I327      1.0  0.68767  0.25891  0.42543  1.0000
  I   I328      1.0  0.89479  0.28644  0.20874  1.0000
  I   I329      1.0  0.99274  0.29499  0.52343  1.0000
  I   I330      1.0  0.23412  0.95312  0.40906  1.0000
  I   I331      1.0  0.17173  0.44256  0.97352  1.0000
  I   I332      1.0  0.97790  0.49516  0.46967  1.0000
  I   I333      1.0  0.00474  0.51831  0.77325  1.0000
  I   I334      1.0  0.59446  0.06890  0.25294  1.0000
  I   I335      1.0  0.73485  0.93451  0.64802  1.0000
  I   I336      1.0  0.65386  0.96816  0.87616  1.0000
  I   I337      1.0  0.32672  0.07715  0.33890  1.0000
  I   I338      1.0  0.02729  0.13041  0.91205  1.0000
  I   I339      1.0  0.20155  0.03152  0.24763  1.0000
  I   I340      1.0  0.05137  0.34180  0.32460  1.0000
  I   I341      1.0  0.14691  0.30334  0.62794  1.0000
  I   I342      1.0  0.10427  0.21420  0.85861  1.0000
  I   I343      1.0  0.94541  0.75356  0.05793  1.0000
  I   I344      1.0  0.87022  0.93679  0.52942  1.0000
  I   I345      1.0  0.88080  0.94156  0.92974  1.0000
  I   I346      1.0  0.93496  0.97411  0.13946  1.0000
  I   I347      1.0  0.13486  0.81701  0.30786  1.0000
  I   I348      1.0  0.08204  0.82004  0.67622  1.0000
  I   I349      1.0  0.35037  0.17364  0.15768  1.0000
  I   I350      1.0  0.27931  0.23950  0.45214  1.0000
  I   I351      1.0  0.35568  0.08163  0.60715  1.0000
  I   I352      1.0  0.27129  0.50086  0.73516  1.0000
  I   I353      1.0  0.25642  0.56146  0.86237  1.0000
  I   I354      1.0  0.27939  0.52804  0.33327  1.0000
  I   I355      1.0  0.26485  0.79541  0.26073  1.0000
  I   I356      1.0  0.62365  0.58791  0.59200  1.0000
  I   I357      1.0  0.35504  0.65975  0.65165  1.0000
  I   I358      1.0  0.43526  0.81678  0.68090  1.0000
  I   I359      1.0  0.61171  0.86203  0.69880  1.0000
  I   I360      1.0  0.49154  0.80481  0.99703  1.0000
  I   I361      1.0  0.52714  0.18172  0.44942  1.0000
  I   I362      1.0  0.44418  0.23169  0.71050  1.0000
  I   I363      1.0  0.38666  0.24038  0.15986  1.0000
  I   I364      1.0  0.46880  0.54092  0.82517  1.0000
  I   I365      1.0  0.51671  0.50064  0.44357  1.0000
  I   I366      1.0  0.64924  0.41111  0.84010  1.0000
  I   I367      1.0  0.83756  0.53772  0.16191  1.0000
  I   I368      1.0  0.83214  0.57258  0.46091  1.0000
  I   I369      1.0  0.88187  0.49550  0.88876  1.0000
  I   I370      1.0  0.68723  0.75231  0.81310  1.0000
  I   I371      1.0  0.60029  0.73163  0.17814  1.0000
  I   I372      1.0  0.75963  0.70488  0.35588  1.0000
  I   I373      1.0  0.66963  0.19501  0.89991  1.0000
  I   I374      1.0  0.78035  0.26150  0.12193  1.0000
  I   I375      1.0  0.76688  0.24545  0.50727  1.0000
  I   I376      1.0  0.95116  0.27524  0.06848  1.0000
  I   I377      1.0  0.01320  0.24539  0.66822  1.0000
  I   I378      1.0  0.19355  0.90594  0.47460  1.0000
  I   I379      1.0  0.10268  0.51697  0.05605  1.0000
  I   I380      1.0  0.97760  0.55597  0.35231  1.0000
  I   I381      1.0  0.98438  0.58981  0.67467  1.0000
  I   I382      1.0  0.66241  0.99167  0.21954  1.0000
  I   I383      1.0  0.68871  0.94915  0.50289  1.0000
  I   I384      1.0  0.60635  0.03667  0.76982  1.0000
