data_image0
_chemical_formula_structural       Ti96I384
_chemical_formula_sum              "Ti96 I384"
_cell_length_a       70.6325
_cell_length_b       70.3658
_cell_length_c       34.4453
_cell_angle_alpha    88.7757
_cell_angle_beta     88.7757
_cell_angle_gamma    62.1586

_space_group_name_H-M_alt    "P 1"
_space_group_IT_number       1

loop_
  _space_group_symop_operation_xyz
  'x, y, z'

loop_
  _atom_site_type_symbol
  _atom_site_label
  _atom_site_symmetry_multiplicity
  _atom_site_fract_x
  _atom_site_fract_y
  _atom_site_fract_z
  _atom_site_occupancy
  Ti  Ti1       1.0  0.09683  0.94045  0.29612  1.0000
  Ti  Ti2       1.0  0.94717  0.08230  0.10813  1.0000
  Ti  Ti3       1.0  0.38407  0.04826  0.21892  1.0000
  Ti  Ti4       1.0  0.03186  0.42503  0.64836  1.0000
  Ti  Ti5       1.0  0.42183  0.50744  0.12734  1.0000
  Ti  Ti6       1.0  0.79996  0.90398  0.13386  1.0000
  Ti  Ti7       1.0  0.74324  0.83677  0.58071  1.0000
  Ti  Ti8       1.0  0.26131  0.51975  0.49986  1.0000
  Ti  Ti9       1.0  0.41322  0.12564  0.35918  1.0000
  Ti  Ti10      1.0  0.42302  0.45497  0.83338  1.0000
  Ti  Ti11      1.0  0.14117  0.38294  0.83539  1.0000
  Ti  Ti12      1.0  0.82778  0.74754  0.86734  1.0000
  Ti  Ti13      1.0  0.77879  0.38177  0.65030  1.0000
  Ti  Ti14      1.0  0.89524  0.07368  0.81928  1.0000
  Ti  Ti15      1.0  0.58667  0.72311  0.87783  1.0000
  Ti  Ti16      1.0  0.42355  0.49799  0.85835  1.0000
  Ti  Ti17      1.0  0.28924  0.79442  0.37776  1.0000
  Ti  Ti18      1.0  0.47247  0.91618  0.58158  1.0000
  Ti  Ti19      1.0  0.43519  0.58704  0.43527  1.0000
  Ti  Ti20      1.0  0.72823  0.08933  0.73311  1.0000
  Ti  Ti21      1.0  0.22106  0.50214  0.57639  1.0000
  Ti  Ti22      1.0  0.59758  0.83022  0.35997  1.0000
  Ti  Ti23      1.0  0.24465  0.13752  0.29523  1.0000
  Ti  Ti24      1.0  0.08883  0.80503  0.11047  1.0000
  Ti  Ti25      1.0  0.38686  0.27065  0.56422  1.0000
  Ti  Ti26      1.0  0.82607  0.96824  0.94952  1.0000
  Ti  Ti27      1.0  0.76942  0.22116  0.38468  1.0000
  Ti  Ti28      1.0  0.40249  0.97050  0.95514  1.0000
  Ti  Ti29      1.0  0.11070  0.77630  0.76209  1.0000
  Ti  Ti30      1.0  0.28745  0.94266  0.65901  1.0000
  Ti  Ti31      1.0  0.91247  0.71720  0.57871  1.0000
  Ti  Ti32      1.0  0.32408  0.91720  0.10097  1.0000
  Ti  Ti33      1.0  0.24946  0.70680  0.14858  1.0000
  Ti  Ti34      1.0  0.66001  0.37114  0.71864  1.0000
  Ti  Ti35      1.0  0.00770  0.38877  0.87409  1.0000
  Ti  Ti36      1.0  0.04213  0.21061  0.89994  1.0000
  Ti  Ti37      1.0  0.24366  0.10584  0.60660  1.0000
  Ti  Ti38      1.0  0.88079  0.21045  0.12882  1.0000
  Ti  Ti39      1.0  0.84176  0.57653  0.21028  1.0000
  Ti  Ti40      1.0  0.60175  0.58008  0.33297  1.0000
  Ti  Ti41      1.0  0.58053  0.11062  0.65402  1.0000
  Ti  Ti42      1.0  0.16739  0.87788  0.85947  1.0000
  Ti  Ti43      1.0  0.05657  0.15107  0.64662  1.0000
  Ti  Ti44      1.0  0.51634  0.12607  0.66377  1.0000
  Ti  Ti45      1.0  0.18197  0.24369  0.10534  1.0000
  Ti  Ti46      1.0  0.46430  0.76264  0.26961  1.0000
  Ti  Ti47      1.0  0.64695  0.25479  0.56352  1.0000
  Ti  Ti48      1.0  0.89841  0.00639  0.19887  1.0000
  Ti  Ti49      1.0  0.11712  0.05793  0.90345  1.0000
  Ti  Ti50      1.0  0.29470  0.38830  0.69644  1.0000
  Ti  Ti51      1.0  0.97795  0.13422  0.10703  1.0000
  Ti  Ti52      1.0  0.57850  0.23561  0.10354  1.0000
  Ti  Ti53      1.0  0.40748  0.68410  0.16939  1.0000
  Ti  Ti54      1.0  0.96885  0.78968  0.65611  1.0000
  Ti  Ti55      1.0  0.71699  0.89108  0.62687  1.0000
  Ti  Ti56      1.0  0.43666  0.33292  0.35096  1.0000
  Ti  Ti57      1.0  0.43544  0.11850  0.25857  1.0000
  Ti  Ti58      1.0  0.71371  0.30267  0.52063  1.0000
  Ti  Ti59      1.0  0.75607  0.19156  0.95690  1.0000
  Ti  Ti60      1.0  0.87051  0.72447  0.84066  1.0000
  Ti  Ti61      1.0  0.62860  0.67831  0.80408  1.0000
  Ti  Ti62      1.0  0.76193  0.38488  0.75515  1.0000
  Ti  Ti63      1.0  0.65703  0.07372  0.31683  1.0000
  Ti  Ti64      1.0  0.43675  0.89630  0.58009  1.0000
  Ti  Ti65      1.0  0.87878  0.76372  0.05990  1.0000
  Ti  Ti66      1.0  0.53914  0.28395  0.84134  1.0000
  Ti  Ti67      1.0  0.76503  0.74473  0.94088  1.0000
  Ti  Ti68      1.0  0.48105  0.54617  0.39238  1.0000
  Ti  Ti69      1.0  0.83058  0.89960  0.87166  1.0000
  Ti  Ti70      1.0  0.71348  0.79324  0.97664  1.0000
  Ti  Ti71      1.0  0.21600  0.13024  0.23492  1.0000
  Ti  Ti72      1.0  0.66758  0.19899  0.60933  1.0000
  Ti  Ti73      1.0  0.70887  0.24807  0.35581  1.0000
  Ti  Ti74      1.0  0.36571  0.24206  0.62165  1.0000
  Ti  Ti75      1.0  0.51013  0.85206  0.04086  1.0000
  Ti  Ti76      1.0  0.22585  0.95557  0.74373  1.0000
  Ti  Ti77      1.0  0.46755  0.06071  0.78940  1.0000
  Ti  Ti78      1.0  0.05811  0.80258  0.75720  1.0000
  Ti  Ti79      1.0  0.61374  0.74421  0.24060  1.0000
  Ti  Ti80      1.0  0.91823  0.31434  0.50585  1.0000
  Ti  Ti81      1.0  0.39821  0.88792  0.16350  1.0000
  Ti  Ti82      1.0  0.38167  0.24233  0.09034  1.0000
  Ti  Ti83      1.0  0.95480  0.40914  0.79076  1.0000
  Ti  Ti84      1.0  0.07152  0.21797  0.98400  1.0000
  Ti  Ti85      1.0  0.26204  0.07660  0.53238  1.0000
  Ti  Ti86      1.0  0.48281  0.26462  0.82442  1.0000
  Ti  Ti87      1.0  0.16941  0.31280  0.05918  1.0000
  Ti  Ti88      1.0  0.60334  0.29490  0.08517  1.0000
  Ti  Ti89      1.0  0.54910  0.23260  0.57620  1.0000
  Ti  Ti90      1.0  0.12609  0.88820  0.91019  1.0000
  Ti  Ti91      1.0  0.28832  0.48739  0.24467  1.0000
  Ti  Ti92      1.0  0.37127  0.65222  0.99493  1.0000
  Ti  Ti93      1.0  0.01706  0.67214  0.11407  1.0000
  Ti  Ti94      1.0  0.90754  0.05546  0.28509  1.0000
  Ti  Ti95      1.0  0.51233  0.58939  0.98974  1.0000
  Ti  Ti96      1.0  0.84099  0.46209  0.93405  1.0000
  I   I1        1.0  0.66830  0.27883  0.55223  1.0000
  I   I2        1.0  0.97661  0.09974  0.13633  1.0000
  I   I3        1.0  0.14284  0.05973  0.94567  1.0000
  I   I4        1.0  0.38642  0.66503  0.14883  1.0000
  I   I5        1.0  0.76098  0.91021  0.13377  1.0000
  I   I6        1.0  0.00754  0.77591  0.63408  1.0000
  I   I7        1.0  0.17828  0.51865  0.59060  1.0000
  I   I8        1.0  0.47886  0.31250  0.34434  1.0000
  I   I9        1.0  0.40008  0.13469  0.20917  1.0000
  I   I10       1.0  0.40189  0.53751  0.83905  1.0000
  I   I11       1.0  0.14439  0.39116  0.90672  1.0000
  I   I12       1.0  0.45671  0.49555  0.08566  1.0000
  I   I13       1.0  0.75118  0.36636  0.66751  1.0000
  I   I14       1.0  0.69601  0.04983  0.32262  1.0000
  I   I15       1.0  0.56721  0.72902  0.80422  1.0000
  I   I16       1.0  0.40210  0.48520  0.91280  1.0000
  I   I17       1.0  0.56618  0.24977  0.87740  1.0000
  I   I18       1.0  0.47627  0.94655  0.61225  1.0000
  I   I19       1.0  0.74751  0.04880  0.70348  1.0000
  I   I20       1.0  0.14273  0.41818  0.80087  1.0000
  I   I21       1.0  0.26528  0.49629  0.56044  1.0000
  I   I22       1.0  0.23136  0.17382  0.32744  1.0000
  I   I23       1.0  0.26163  0.14917  0.23086  1.0000
  I   I24       1.0  0.75546  0.76170  0.02527  1.0000
  I   I25       1.0  0.34959  0.22828  0.56618  1.0000
  I   I26       1.0  0.53133  0.86679  0.08452  1.0000
  I   I27       1.0  0.73976  0.26025  0.41534  1.0000
  I   I28       1.0  0.40241  0.97908  0.88052  1.0000
  I   I29       1.0  0.08155  0.82631  0.74366  1.0000
  I   I30       1.0  0.28245  0.95204  0.58511  1.0000
  I   I31       1.0  0.95820  0.30245  0.51122  1.0000
  I   I32       1.0  0.35584  0.88175  0.14209  1.0000
  I   I33       1.0  0.62027  0.73718  0.16618  1.0000
  I   I34       1.0  0.03645  0.35005  0.85792  1.0000
  I   I35       1.0  0.09253  0.17520  0.99428  1.0000
  I   I36       1.0  0.62084  0.39308  0.69977  1.0000
  I   I37       1.0  0.24905  0.13787  0.58135  1.0000
  I   I38       1.0  0.81100  0.58063  0.16936  1.0000
  I   I39       1.0  0.28448  0.07549  0.60060  1.0000
  I   I40       1.0  0.57235  0.13821  0.59809  1.0000
  I   I41       1.0  0.10159  0.87095  0.91977  1.0000
  I   I42       1.0  0.61959  0.54337  0.36972  1.0000
  I   I43       1.0  0.68246  0.30740  0.47063  1.0000
  I   I44       1.0  0.54967  0.10470  0.60766  1.0000
  I   I45       1.0  0.14920  0.29075  0.05849  1.0000
  I   I46       1.0  0.54788  0.55371  0.98282  1.0000
  I   I47       1.0  0.66734  0.21482  0.52678  1.0000
  I   I48       1.0  0.93445  0.96942  0.18565  1.0000
  I   I49       1.0  0.10193  0.09363  0.86123  1.0000
  I   I50       1.0  0.95394  0.16476  0.15470  1.0000
  I   I51       1.0  0.01761  0.12751  0.12296  1.0000
  I   I52       1.0  0.91634  0.28678  0.55700  1.0000
  I   I53       1.0  0.38430  0.71561  0.20945  1.0000
  I   I54       1.0  0.93249  0.79760  0.62779  1.0000
  I   I55       1.0  0.73312  0.81001  0.62175  1.0000
  I   I56       1.0  0.21616  0.50798  0.65403  1.0000
  I   I57       1.0  0.45496  0.10167  0.34204  1.0000
  I   I58       1.0  0.38814  0.45210  0.83627  1.0000
  I   I59       1.0  0.74923  0.19736  0.02899  1.0000
  I   I60       1.0  0.86211  0.70342  0.91265  1.0000
  I   I61       1.0  0.77259  0.40341  0.80542  1.0000
  I   I62       1.0  0.78790  0.37071  0.57634  1.0000
  I   I63       1.0  0.62690  0.07204  0.35893  1.0000
  I   I64       1.0  0.45637  0.47176  0.80413  1.0000
  I   I65       1.0  0.84391  0.78051  0.09656  1.0000
  I   I66       1.0  0.56301  0.28530  0.77932  1.0000
  I   I67       1.0  0.40103  0.59090  0.48164  1.0000
  I   I68       1.0  0.69352  0.09010  0.75227  1.0000
  I   I69       1.0  0.83759  0.90368  0.79725  1.0000
  I   I70       1.0  0.68585  0.82212  0.92553  1.0000
  I   I71       1.0  0.18676  0.17099  0.21851  1.0000
  I   I72       1.0  0.62726  0.21752  0.59088  1.0000
  I   I73       1.0  0.71457  0.22670  0.29151  1.0000
  I   I74       1.0  0.78792  0.97252  0.97181  1.0000
  I   I75       1.0  0.84368  0.99459  0.93905  1.0000
  I   I76       1.0  0.49139  0.03311  0.73590  1.0000
  I   I77       1.0  0.47835  0.03618  0.84932  1.0000
  I   I78       1.0  0.08364  0.98264  0.33490  1.0000
  I   I79       1.0  0.21394  0.71028  0.17192  1.0000
  I   I80       1.0  0.88285  0.71140  0.54356  1.0000
  I   I81       1.0  0.36868  0.91693  0.10250  1.0000
  I   I82       1.0  0.35559  0.23593  0.15248  1.0000
  I   I83       1.0  0.95323  0.44475  0.76483  1.0000
  I   I84       1.0  0.04869  0.21950  0.82517  1.0000
  I   I85       1.0  0.24157  0.11407  0.68164  1.0000
  I   I86       1.0  0.50037  0.23758  0.88056  1.0000
  I   I87       1.0  0.82684  0.58529  0.28727  1.0000
  I   I88       1.0  0.63618  0.57923  0.29508  1.0000
  I   I89       1.0  0.59267  0.13136  0.69709  1.0000
  I   I90       1.0  0.14925  0.87657  0.97031  1.0000
  I   I91       1.0  0.27268  0.47584  0.18867  1.0000
  I   I92       1.0  0.37538  0.63522  0.06930  1.0000
  I   I93       1.0  0.49544  0.11363  0.61983  1.0000
  I   I94       1.0  0.86734  0.05761  0.24311  1.0000
  I   I95       1.0  0.50257  0.75624  0.26247  1.0000
  I   I96       1.0  0.87454  0.42327  0.92733  1.0000
  I   I97       1.0  0.39239  0.02010  0.15990  1.0000
  I   I98       1.0  0.09865  0.91706  0.36161  1.0000
  I   I99       1.0  0.90331  0.09972  0.11168  1.0000
  I   I100      1.0  0.02810  0.39119  0.67350  1.0000
  I   I101      1.0  0.57069  0.22613  0.17219  1.0000
  I   I102      1.0  0.44537  0.47959  0.18352  1.0000
  I   I103      1.0  0.75525  0.87236  0.57335  1.0000
  I   I104      1.0  0.70307  0.89974  0.70039  1.0000
  I   I105      1.0  0.38805  0.11738  0.31390  1.0000
  I   I106      1.0  0.84005  0.71442  0.80191  1.0000
  I   I107      1.0  0.43871  0.43792  0.76630  1.0000
  I   I108      1.0  0.90461  0.73048  0.86195  1.0000
  I   I109      1.0  0.55536  0.75779  0.91039  1.0000
  I   I110      1.0  0.74492  0.41919  0.69912  1.0000
  I   I111      1.0  0.64942  0.08354  0.24424  1.0000
  I   I112      1.0  0.48635  0.87805  0.61190  1.0000
  I   I113      1.0  0.87649  0.78856  0.00628  1.0000
  I   I114      1.0  0.26267  0.80671  0.32116  1.0000
  I   I115      1.0  0.71804  0.75339  0.93849  1.0000
  I   I116      1.0  0.78172  0.71947  0.87681  1.0000
  I   I117      1.0  0.46081  0.53653  0.45900  1.0000
  I   I118      1.0  0.60576  0.81604  0.43431  1.0000
  I   I119      1.0  0.72613  0.82251  0.98534  1.0000
  I   I120      1.0  0.70689  0.17260  0.59186  1.0000
  I   I121      1.0  0.79984  0.23553  0.36673  1.0000
  I   I122      1.0  0.42736  0.25471  0.53830  1.0000
  I   I123      1.0  0.50623  0.87610  0.97716  1.0000
  I   I124      1.0  0.31424  0.96141  0.67550  1.0000
  I   I125      1.0  0.43641  0.96251  0.99022  1.0000
  I   I126      1.0  0.12976  0.80158  0.78158  1.0000
  I   I127      1.0  0.26507  0.73028  0.18249  1.0000
  I   I128      1.0  0.06090  0.42642  0.60051  1.0000
  I   I129      1.0  0.30799  0.95655  0.12588  1.0000
  I   I130      1.0  0.07885  0.25492  0.95535  1.0000
  I   I131      1.0  0.34114  0.25641  0.07515  1.0000
  I   I132      1.0  0.92128  0.41477  0.82590  1.0000
  I   I133      1.0  0.85435  0.60537  0.18187  1.0000
  I   I134      1.0  0.86029  0.20121  0.07386  1.0000
  I   I135      1.0  0.54029  0.31077  0.89106  1.0000
  I   I136      1.0  0.10106  0.92718  0.93516  1.0000
  I   I137      1.0  0.63780  0.30008  0.08278  1.0000
  I   I138      1.0  0.52714  0.21982  0.61271  1.0000
  I   I139      1.0  0.32704  0.46797  0.21629  1.0000
  I   I140      1.0  0.33561  0.65833  0.97132  1.0000
  I   I141      1.0  0.02517  0.65293  0.18027  1.0000
  I   I142      1.0  0.88700  0.05920  0.34808  1.0000
  I   I143      1.0  0.42355  0.79057  0.25524  1.0000
  I   I144      1.0  0.85576  0.48072  0.98361  1.0000
  I   I145      1.0  0.13533  0.92985  0.27137  1.0000
  I   I146      1.0  0.96252  0.06059  0.04796  1.0000
  I   I147      1.0  0.34401  0.07376  0.23098  1.0000
  I   I148      1.0  0.53980  0.25693  0.07540  1.0000
  I   I149      1.0  0.39894  0.49123  0.09062  1.0000
  I   I150      1.0  0.81090  0.93443  0.15177  1.0000
  I   I151      1.0  0.68949  0.93257  0.59860  1.0000
  I   I152      1.0  0.24979  0.55960  0.52119  1.0000
  I   I153      1.0  0.45120  0.07562  0.24655  1.0000
  I   I154      1.0  0.04973  0.12185  0.67904  1.0000
  I   I155      1.0  0.16796  0.34263  0.81967  1.0000
  I   I156      1.0  0.84854  0.75981  0.80340  1.0000
  I   I157      1.0  0.61252  0.72647  0.93515  1.0000
  I   I158      1.0  0.64691  0.11042  0.34777  1.0000
  I   I159      1.0  0.65305  0.63481  0.81655  1.0000
  I   I160      1.0  0.44358  0.85507  0.57207  1.0000
  I   I161      1.0  0.26728  0.81405  0.43579  1.0000
  I   I162      1.0  0.44030  0.92713  0.53483  1.0000
  I   I163      1.0  0.41719  0.59555  0.36639  1.0000
  I   I164      1.0  0.46537  0.53039  0.34404  1.0000
  I   I165      1.0  0.21728  0.51978  0.50474  1.0000
  I   I166      1.0  0.57389  0.86912  0.34721  1.0000
  I   I167      1.0  0.20005  0.14946  0.30916  1.0000
  I   I168      1.0  0.12200  0.80972  0.10598  1.0000
  I   I169      1.0  0.34175  0.28441  0.58664  1.0000
  I   I170      1.0  0.40222  0.20851  0.60103  1.0000
  I   I171      1.0  0.67198  0.26157  0.39111  1.0000
  I   I172      1.0  0.21595  0.99171  0.76906  1.0000
  I   I173      1.0  0.01798  0.81603  0.77683  1.0000
  I   I174      1.0  0.24203  0.96737  0.66665  1.0000
  I   I175      1.0  0.92297  0.69393  0.63763  1.0000
  I   I176      1.0  0.29690  0.90183  0.12205  1.0000
  I   I177      1.0  0.58849  0.72699  0.25852  1.0000
  I   I178      1.0  0.41183  0.21920  0.14013  1.0000
  I   I179      1.0  0.95242  0.39331  0.72568  1.0000
  I   I180      1.0  0.06125  0.16744  0.90566  1.0000
  I   I181      1.0  0.25787  0.03942  0.52151  1.0000
  I   I182      1.0  0.52505  0.25812  0.79830  1.0000
  I   I183      1.0  0.19949  0.26253  0.14246  1.0000
  I   I184      1.0  0.61421  0.28272  0.01024  1.0000
  I   I185      1.0  0.58150  0.19551  0.56393  1.0000
  I   I186      1.0  0.17118  0.88756  0.78759  1.0000
  I   I187      1.0  0.36543  0.69134  0.97539  1.0000
  I   I188      1.0  0.48809  0.13806  0.72283  1.0000
  I   I189      1.0  0.20334  0.20236  0.12673  1.0000
  I   I190      1.0  0.44628  0.77210  0.34154  1.0000
  I   I191      1.0  0.25270  0.41090  0.67847  1.0000
  I   I192      1.0  0.87408  0.01988  0.13292  1.0000
  I   I193      1.0  0.07724  0.76150  0.73343  1.0000
  I   I194      1.0  0.29486  0.39416  0.76969  1.0000
  I   I195      1.0  0.40930  0.06319  0.20827  1.0000
  I   I196      1.0  0.00015  0.44774  0.59924  1.0000
  I   I197      1.0  0.74257  0.26431  0.55248  1.0000
  I   I198      1.0  0.80270  0.88728  0.20147  1.0000
  I   I199      1.0  0.74354  0.84986  0.66405  1.0000
  I   I200      1.0  0.41258  0.33401  0.29909  1.0000
  I   I201      1.0  0.42057  0.15828  0.31623  1.0000
  I   I202      1.0  0.71624  0.21091  0.92598  1.0000
  I   I203      1.0  0.85230  0.86227  0.89669  1.0000
  I   I204      1.0  0.90174  0.69598  0.79468  1.0000
  I   I205      1.0  0.80294  0.35988  0.70840  1.0000
  I   I206      1.0  0.90298  0.10638  0.83214  1.0000
  I   I207      1.0  0.60159  0.68023  0.87085  1.0000
  I   I208      1.0  0.45517  0.43947  0.88036  1.0000
  I   I209      1.0  0.31933  0.80617  0.38314  1.0000
  I   I210      1.0  0.58354  0.78553  0.22400  1.0000
  I   I211      1.0  0.73936  0.78768  0.90112  1.0000
  I   I212      1.0  0.71449  0.10756  0.66399  1.0000
  I   I213      1.0  0.78705  0.91958  0.87069  1.0000
  I   I214      1.0  0.63094  0.81997  0.31417  1.0000
  I   I215      1.0  0.23282  0.11837  0.16512  1.0000
  I   I216      1.0  0.05645  0.83787  0.08333  1.0000
  I   I217      1.0  0.37549  0.30963  0.55754  1.0000
  I   I218      1.0  0.47167  0.86743  0.06628  1.0000
  I   I219      1.0  0.77056  0.20422  0.31541  1.0000
  I   I220      1.0  0.43014  0.07192  0.76676  1.0000
  I   I221      1.0  0.13392  0.77967  0.69769  1.0000
  I   I222      1.0  0.19134  0.96220  0.70072  1.0000
  I   I223      1.0  0.94183  0.72402  0.53741  1.0000
  I   I224      1.0  0.40637  0.87458  0.23756  1.0000
  I   I225      1.0  0.27463  0.66734  0.13144  1.0000
  I   I226      1.0  0.40123  0.24212  0.02110  1.0000
  I   I227      1.0  0.01476  0.39312  0.94312  1.0000
  I   I228      1.0  0.08292  0.20652  0.89811  1.0000
  I   I229      1.0  0.22115  0.11692  0.53160  1.0000
  I   I230      1.0  0.89809  0.17934  0.17358  1.0000
  I   I231      1.0  0.86911  0.53868  0.21193  1.0000
  I   I232      1.0  0.87155  0.06343  0.86720  1.0000
  I   I233      1.0  0.55244  0.11312  0.71471  1.0000
  I   I234      1.0  0.15614  0.91427  0.89475  1.0000
  I   I235      1.0  0.07895  0.15554  0.70451  1.0000
  I   I236      1.0  0.97954  0.67382  0.10616  1.0000
  I   I237      1.0  0.28304  0.46288  0.30030  1.0000
  I   I238      1.0  0.49021  0.56902  0.97956  1.0000
  I   I239      1.0  0.84719  0.47489  0.87009  1.0000
  I   I240      1.0  0.94524  0.04690  0.30709  1.0000
  I   I241      1.0  0.13276  0.02618  0.85728  1.0000
  I   I242      1.0  0.95702  0.05144  0.16069  1.0000
  I   I243      1.0  0.39742  0.03418  0.28779  1.0000
  I   I244      1.0  0.60842  0.25311  0.11143  1.0000
  I   I245      1.0  0.43464  0.65270  0.21919  1.0000
  I   I246      1.0  0.80951  0.90169  0.06327  1.0000
  I   I247      1.0  0.78338  0.80620  0.60270  1.0000
  I   I248      1.0  0.25176  0.51834  0.42445  1.0000
  I   I249      1.0  0.42134  0.08584  0.38844  1.0000
  I   I250      1.0  0.77770  0.20283  0.91192  1.0000
  I   I251      1.0  0.10968  0.37461  0.82197  1.0000
  I   I252      1.0  0.79198  0.76123  0.82733  1.0000
  I   I253      1.0  0.77755  0.35138  0.79263  1.0000
  I   I254      1.0  0.88486  0.07309  0.74985  1.0000
  I   I255      1.0  0.61835  0.71814  0.82868  1.0000
  I   I256      1.0  0.88289  0.73456  0.01264  1.0000
  I   I257      1.0  0.29022  0.75753  0.39554  1.0000
  I   I258      1.0  0.39858  0.90448  0.59467  1.0000
  I   I259      1.0  0.76614  0.71435  0.99288  1.0000
  I   I260      1.0  0.48716  0.56795  0.33384  1.0000
  I   I261      1.0  0.30089  0.50820  0.49607  1.0000
  I   I262      1.0  0.58577  0.80230  0.33924  1.0000
  I   I263      1.0  0.28705  0.11906  0.32201  1.0000
  I   I264      1.0  0.06887  0.79657  0.16795  1.0000
  I   I265      1.0  0.37859  0.26045  0.49752  1.0000
  I   I266      1.0  0.84825  0.92087  0.90357  1.0000
  I   I267      1.0  0.70064  0.28581  0.31536  1.0000
  I   I268      1.0  0.40469  0.93142  0.95768  1.0000
  I   I269      1.0  0.08557  0.78249  0.82188  1.0000
  I   I270      1.0  0.27521  0.93360  0.73395  1.0000
  I   I271      1.0  0.88815  0.75603  0.60759  1.0000
  I   I272      1.0  0.41545  0.91170  0.17748  1.0000
  I   I273      1.0  0.24553  0.71363  0.07440  1.0000
  I   I274      1.0  0.67892  0.38546  0.67244  1.0000
  I   I275      1.0  0.97450  0.42166  0.85585  1.0000
  I   I276      1.0  0.03294  0.22349  0.97800  1.0000
  I   I277      1.0  0.38148  0.28137  0.10413  1.0000
  I   I278      1.0  0.91151  0.22144  0.12859  1.0000
  I   I279      1.0  0.15294  0.33953  0.00136  1.0000
  I   I280      1.0  0.56991  0.28644  0.05139  1.0000
  I   I281      1.0  0.60962  0.07150  0.65092  1.0000
  I   I282      1.0  0.16233  0.84057  0.86253  1.0000
  I   I283      1.0  0.09351  0.12506  0.60900  1.0000
  I   I284      1.0  0.00766  0.71327  0.12156  1.0000
  I   I285      1.0  0.15238  0.25344  0.16164  1.0000
  I   I286      1.0  0.52780  0.61430  0.95925  1.0000
  I   I287      1.0  0.61694  0.27404  0.51881  1.0000
  I   I288      1.0  0.91650  0.01566  0.25489  1.0000
  I   I289      1.0  0.08405  0.05956  0.93692  1.0000
  I   I290      1.0  0.31255  0.34396  0.69275  1.0000
  I   I291      1.0  0.94077  0.12709  0.07369  1.0000
  I   I292      1.0  0.59402  0.20022  0.06549  1.0000
  I   I293      1.0  0.41836  0.69888  0.10526  1.0000
  I   I294      1.0  0.96520  0.82548  0.68045  1.0000
  I   I295      1.0  0.74221  0.82748  0.51088  1.0000
  I   I296      1.0  0.42231  0.32130  0.41108  1.0000
  I   I297      1.0  0.40853  0.14601  0.42400  1.0000
  I   I298      1.0  0.69217  0.33408  0.57128  1.0000
  I   I299      1.0  0.39331  0.49771  0.79508  1.0000
  I   I300      1.0  0.85107  0.75861  0.90717  1.0000
  I   I301      1.0  0.59904  0.67728  0.75984  1.0000
  I   I302      1.0  0.80505  0.39788  0.64974  1.0000
  I   I303      1.0  0.57658  0.57262  0.28502  1.0000
  I   I304      1.0  0.50664  0.90278  0.53916  1.0000
  I   I305      1.0  0.44852  0.50632  0.90539  1.0000
  I   I306      1.0  0.49733  0.28949  0.86116  1.0000
  I   I307      1.0  0.52023  0.52344  0.37429  1.0000
  I   I308      1.0  0.73258  0.11328  0.78562  1.0000
  I   I309      1.0  0.22746  0.46455  0.56536  1.0000
  I   I310      1.0  0.02726  0.18820  0.62014  1.0000
  I   I311      1.0  0.19038  0.11153  0.22942  1.0000
  I   I312      1.0  0.61670  0.27695  0.62220  1.0000
  I   I313      1.0  0.73279  0.21210  0.41276  1.0000
  I   I314      1.0  0.39268  0.26479  0.64237  1.0000
  I   I315      1.0  0.53746  0.81259  0.01812  1.0000
  I   I316      1.0  0.21677  0.93862  0.80299  1.0000
  I   I317      1.0  0.37139  0.00076  0.99423  1.0000
  I   I318      1.0  0.04404  0.81415  0.68430  1.0000
  I   I319      1.0  0.64094  0.70865  0.28252  1.0000
  I   I320      1.0  0.01566  0.44946  0.70602  1.0000
  I   I321      1.0  0.32373  0.91723  0.02471  1.0000
  I   I322      1.0  0.66105  0.33499  0.70447  1.0000
  I   I323      1.0  0.97664  0.37191  0.84601  1.0000
  I   I324      1.0  0.06320  0.22673  0.05627  1.0000
  I   I325      1.0  0.22833  0.07890  0.59776  1.0000
  I   I326      1.0  0.44711  0.28612  0.85768  1.0000
  I   I327      1.0  0.21054  0.29384  0.06105  1.0000
  I   I328      1.0  0.57918  0.60190  0.39184  1.0000
  I   I329      1.0  0.56292  0.26380  0.59262  1.0000
  I   I330      1.0  0.20613  0.86644  0.87961  1.0000
  I   I331      1.0  0.20067  0.23543  0.03400  1.0000
  I   I332      1.0  0.73704  0.31963  0.49013  1.0000
  I   I333      1.0  0.50828  0.16493  0.65162  1.0000
  I   I334      1.0  0.87145  0.99638  0.23968  1.0000
  I   I335      1.0  0.46035  0.72532  0.26802  1.0000
  I   I336      1.0  0.80318  0.46394  0.93992  1.0000
  I   I337      1.0  0.08428  0.92489  0.23862  1.0000
  I   I338      1.0  0.31065  0.41209  0.65590  1.0000
  I   I339      1.0  0.98330  0.13292  0.03291  1.0000
  I   I340      1.0  0.88123  0.34610  0.51551  1.0000
  I   I341      1.0  0.40627  0.54602  0.15014  1.0000
  I   I342      1.0  0.96796  0.76041  0.71115  1.0000
  I   I343      1.0  0.69783  0.86918  0.59645  1.0000
  I   I344      1.0  0.41873  0.37392  0.36625  1.0000
  I   I345      1.0  0.45658  0.13356  0.22018  1.0000
  I   I346      1.0  0.68648  0.79028  0.02710  1.0000
  I   I347      1.0  0.76671  0.15124  0.93358  1.0000
  I   I348      1.0  0.79829  0.74977  0.94343  1.0000
  I   I349      1.0  0.65904  0.67471  0.75077  1.0000
  I   I350      1.0  0.72151  0.39798  0.79051  1.0000
  I   I351      1.0  0.93460  0.03977  0.82073  1.0000
  I   I352      1.0  0.42594  0.93293  0.62427  1.0000
  I   I353      1.0  0.92006  0.75325  0.08885  1.0000
  I   I354      1.0  0.46984  0.26309  0.75478  1.0000
  I   I355      1.0  0.41911  0.63085  0.43455  1.0000
  I   I356      1.0  0.47847  0.57714  0.44858  1.0000
  I   I357      1.0  0.83944  0.96779  0.02079  1.0000
  I   I358      1.0  0.10452  0.77236  0.06714  1.0000
  I   I359      1.0  0.24567  0.09562  0.27808  1.0000
  I   I360      1.0  0.66975  0.17861  0.67217  1.0000
  I   I361      1.0  0.79773  0.18736  0.42192  1.0000
  I   I362      1.0  0.35854  0.22852  0.68582  1.0000
  I   I363      1.0  0.80347  0.97803  0.88030  1.0000
  I   I364      1.0  0.32992  0.91203  0.66512  1.0000
  I   I365      1.0  0.45772  0.10262  0.80531  1.0000
  I   I366      1.0  0.13956  0.73987  0.79159  1.0000
  I   I367      1.0  0.65186  0.74406  0.22010  1.0000
  I   I368      1.0  0.91066  0.30063  0.44166  1.0000
  I   I369      1.0  0.42513  0.85150  0.12929  1.0000
  I   I370      1.0  0.66293  0.37641  0.79081  1.0000
  I   I371      1.0  0.03519  0.40276  0.84966  1.0000
  I   I372      1.0  0.00119  0.21934  0.89166  1.0000
  I   I373      1.0  0.27185  0.08513  0.46440  1.0000
  I   I374      1.0  0.85157  0.23448  0.17901  1.0000
  I   I375      1.0  0.16166  0.33756  0.12307  1.0000
  I   I376      1.0  0.58285  0.33334  0.10868  1.0000
  I   I377      1.0  0.53468  0.23401  0.50773  1.0000
  I   I378      1.0  0.12570  0.88863  0.82801  1.0000
  I   I379      1.0  0.26407  0.52896  0.24553  1.0000
  I   I380      1.0  0.40075  0.63020  0.94556  1.0000
  I   I381      1.0  0.04671  0.64749  0.06180  1.0000
  I   I382      1.0  0.89580  0.08756  0.24093  1.0000
  I   I383      1.0  0.50159  0.59983  0.06067  1.0000
  I   I384      1.0  0.67223  0.23502  0.63196  1.0000
