data_image0
_chemical_formula_structural       Ti96I384
_chemical_formula_sum              "Ti96 I384"
_cell_length_a       70.7148
_cell_length_b       70.4971
_cell_length_c       34.5168
_cell_angle_alpha    88.7757
_cell_angle_beta     88.7757
_cell_angle_gamma    62.1586

_space_group_name_H-M_alt    "P 1"
_space_group_IT_number       1

loop_
  _space_group_symop_operation_xyz
  'x, y, z'

loop_
  _atom_site_type_symbol
  _atom_site_label
  _atom_site_symmetry_multiplicity
  _atom_site_fract_x
  _atom_site_fract_y
  _atom_site_fract_z
  _atom_site_occupancy
  Ti  Ti1       1.0  0.12253  0.92634  0.29124  1.0000
  Ti  Ti2       1.0  0.94057  0.10028  0.02963  1.0000
  Ti  Ti3       1.0  0.36183  0.03466  0.18818  1.0000
  Ti  Ti4       1.0  0.07270  0.43849  0.67758  1.0000
  Ti  Ti5       1.0  0.43534  0.46699  0.09688  1.0000
  Ti  Ti6       1.0  0.81684  0.88073  0.17255  1.0000
  Ti  Ti7       1.0  0.70518  0.89045  0.56929  1.0000
  Ti  Ti8       1.0  0.24072  0.52256  0.50823  1.0000
  Ti  Ti9       1.0  0.42538  0.13897  0.29897  1.0000
  Ti  Ti10      1.0  0.43338  0.45945  0.88140  1.0000
  Ti  Ti11      1.0  0.11974  0.42834  0.81959  1.0000
  Ti  Ti12      1.0  0.84105  0.74261  0.78693  1.0000
  Ti  Ti13      1.0  0.76939  0.42029  0.70095  1.0000
  Ti  Ti14      1.0  0.92737  0.04553  0.86418  1.0000
  Ti  Ti15      1.0  0.58298  0.70185  0.84727  1.0000
  Ti  Ti16      1.0  0.46444  0.48758  0.81063  1.0000
  Ti  Ti17      1.0  0.27466  0.75518  0.43281  1.0000
  Ti  Ti18      1.0  0.46117  0.93656  0.58259  1.0000
  Ti  Ti19      1.0  0.41558  0.59299  0.42000  1.0000
  Ti  Ti20      1.0  0.78209  0.04937  0.72421  1.0000
  Ti  Ti21      1.0  0.21714  0.48579  0.56826  1.0000
  Ti  Ti22      1.0  0.61672  0.80047  0.36634  1.0000
  Ti  Ti23      1.0  0.24724  0.10841  0.30737  1.0000
  Ti  Ti24      1.0  0.06778  0.80903  0.18170  1.0000
  Ti  Ti25      1.0  0.39142  0.28360  0.52848  1.0000
  Ti  Ti26      1.0  0.80163  0.96015  0.89901  1.0000
  Ti  Ti27      1.0  0.75621  0.23215  0.38850  1.0000
  Ti  Ti28      1.0  0.38526  0.97855  0.99590  1.0000
  Ti  Ti29      1.0  0.11024  0.78696  0.75276  1.0000
  Ti  Ti30      1.0  0.27834  0.96746  0.66087  1.0000
  Ti  Ti31      1.0  0.88144  0.76112  0.57444  1.0000
  Ti  Ti32      1.0  0.34171  0.92128  0.13028  1.0000
  Ti  Ti33      1.0  0.24849  0.68592  0.10058  1.0000
  Ti  Ti34      1.0  0.66089  0.38543  0.68763  1.0000
  Ti  Ti35      1.0  0.03036  0.36354  0.87791  1.0000
  Ti  Ti36      1.0  0.02590  0.21055  0.89665  1.0000
  Ti  Ti37      1.0  0.25180  0.07887  0.62589  1.0000
  Ti  Ti38      1.0  0.89036  0.19814  0.17694  1.0000
  Ti  Ti39      1.0  0.80498  0.58190  0.21412  1.0000
  Ti  Ti40      1.0  0.55957  0.58182  0.40339  1.0000
  Ti  Ti41      1.0  0.58640  0.07828  0.65902  1.0000
  Ti  Ti42      1.0  0.14487  0.84240  0.91564  1.0000
  Ti  Ti43      1.0  0.06057  0.11894  0.70966  1.0000
  Ti  Ti44      1.0  0.54097  0.12275  0.66862  1.0000
  Ti  Ti45      1.0  0.14305  0.27283  0.07255  1.0000
  Ti  Ti46      1.0  0.42795  0.79610  0.32822  1.0000
  Ti  Ti47      1.0  0.66129  0.23365  0.57954  1.0000
  Ti  Ti48      1.0  0.89123  0.01223  0.23031  1.0000
  Ti  Ti49      1.0  0.12928  0.05364  0.95051  1.0000
  Ti  Ti50      1.0  0.32002  0.40441  0.75920  1.0000
  Ti  Ti51      1.0  0.00175  0.07749  0.07946  1.0000
  Ti  Ti52      1.0  0.57253  0.27535  0.11397  1.0000
  Ti  Ti53      1.0  0.40885  0.67765  0.20010  1.0000
  Ti  Ti54      1.0  0.97801  0.79458  0.73375  1.0000
  Ti  Ti55      1.0  0.69321  0.91388  0.65863  1.0000
  Ti  Ti56      1.0  0.39454  0.36287  0.30260  1.0000
  Ti  Ti57      1.0  0.45907  0.11678  0.19911  1.0000
  Ti  Ti58      1.0  0.69926  0.31948  0.53158  1.0000
  Ti  Ti59      1.0  0.77437  0.17598  0.95649  1.0000
  Ti  Ti60      1.0  0.89893  0.71750  0.74080  1.0000
  Ti  Ti61      1.0  0.64179  0.65525  0.77266  1.0000
  Ti  Ti62      1.0  0.75428  0.39652  0.76199  1.0000
  Ti  Ti63      1.0  0.62845  0.06594  0.26931  1.0000
  Ti  Ti64      1.0  0.43907  0.91118  0.57836  1.0000
  Ti  Ti65      1.0  0.90890  0.73611  0.02810  1.0000
  Ti  Ti66      1.0  0.55712  0.28852  0.85825  1.0000
  Ti  Ti67      1.0  0.77118  0.73387  0.96024  1.0000
  Ti  Ti68      1.0  0.48499  0.53555  0.38750  1.0000
  Ti  Ti69      1.0  0.80977  0.92007  0.85155  1.0000
  Ti  Ti70      1.0  0.72216  0.79617  0.94464  1.0000
  Ti  Ti71      1.0  0.20353  0.11637  0.20866  1.0000
  Ti  Ti72      1.0  0.70702  0.18944  0.63852  1.0000
  Ti  Ti73      1.0  0.71972  0.24279  0.30849  1.0000
  Ti  Ti74      1.0  0.37479  0.26789  0.58811  1.0000
  Ti  Ti75      1.0  0.51214  0.89046  0.08053  1.0000
  Ti  Ti76      1.0  0.23640  0.97293  0.71561  1.0000
  Ti  Ti77      1.0  0.43412  0.10523  0.76441  1.0000
  Ti  Ti78      1.0  0.06501  0.79340  0.78664  1.0000
  Ti  Ti79      1.0  0.63418  0.72622  0.17626  1.0000
  Ti  Ti80      1.0  0.91986  0.29024  0.47800  1.0000
  Ti  Ti81      1.0  0.39480  0.88841  0.14648  1.0000
  Ti  Ti82      1.0  0.36394  0.25364  0.10525  1.0000
  Ti  Ti83      1.0  0.98043  0.39510  0.84304  1.0000
  Ti  Ti84      1.0  0.05442  0.24167  0.94552  1.0000
  Ti  Ti85      1.0  0.25610  0.05469  0.55158  1.0000
  Ti  Ti86      1.0  0.50987  0.27260  0.85397  1.0000
  Ti  Ti87      1.0  0.17041  0.30727  0.07354  1.0000
  Ti  Ti88      1.0  0.59622  0.29803  0.17669  1.0000
  Ti  Ti89      1.0  0.53899  0.25000  0.49940  1.0000
  Ti  Ti90      1.0  0.10950  0.89812  0.94283  1.0000
  Ti  Ti91      1.0  0.31164  0.47201  0.26549  1.0000
  Ti  Ti92      1.0  0.35370  0.67458  0.94589  1.0000
  Ti  Ti93      1.0  0.00295  0.65887  0.10603  1.0000
  Ti  Ti94      1.0  0.90508  0.05306  0.26842  1.0000
  Ti  Ti95      1.0  0.48565  0.61714  0.02599  1.0000
  Ti  Ti96      1.0  0.89477  0.40429  0.96189  1.0000
  I   I1        1.0  0.65552  0.27156  0.55538  1.0000
  I   I2        1.0  0.96360  0.09284  0.11775  1.0000
  I   I3        1.0  0.14302  0.07649  0.98320  1.0000
  I   I4        1.0  0.39948  0.64598  0.20669  1.0000
  I   I5        1.0  0.78822  0.86998  0.16087  1.0000
  I   I6        1.0  0.01450  0.78146  0.69849  1.0000
  I   I7        1.0  0.19787  0.51810  0.61276  1.0000
  I   I8        1.0  0.43077  0.33392  0.31353  1.0000
  I   I9        1.0  0.42340  0.13872  0.15520  1.0000
  I   I10       1.0  0.48690  0.50167  0.85329  1.0000
  I   I11       1.0  0.15663  0.39658  0.82181  1.0000
  I   I12       1.0  0.43787  0.49308  0.04773  1.0000
  I   I13       1.0  0.74530  0.39453  0.68009  1.0000
  I   I14       1.0  0.65847  0.05685  0.31697  1.0000
  I   I15       1.0  0.56288  0.71659  0.78172  1.0000
  I   I16       1.0  0.47717  0.45310  0.87323  1.0000
  I   I17       1.0  0.59428  0.26434  0.88291  1.0000
  I   I18       1.0  0.45993  0.96516  0.63222  1.0000
  I   I19       1.0  0.81956  0.02478  0.69020  1.0000
  I   I20       1.0  0.12129  0.46469  0.81541  1.0000
  I   I21       1.0  0.25391  0.49761  0.57446  1.0000
  I   I22       1.0  0.24208  0.14178  0.34642  1.0000
  I   I23       1.0  0.28521  0.09603  0.27438  1.0000
  I   I24       1.0  0.80898  0.72050  0.97850  1.0000
  I   I25       1.0  0.34795  0.25960  0.55462  1.0000
  I   I26       1.0  0.48734  0.91038  0.13934  1.0000
  I   I27       1.0  0.75354  0.26898  0.40445  1.0000
  I   I28       1.0  0.39775  0.98849  0.92944  1.0000
  I   I29       1.0  0.07445  0.82724  0.76575  1.0000
  I   I30       1.0  0.29553  0.97126  0.59626  1.0000
  I   I31       1.0  0.95784  0.27890  0.44557  1.0000
  I   I32       1.0  0.36212  0.90749  0.20973  1.0000
  I   I33       1.0  0.64323  0.68980  0.21510  1.0000
  I   I34       1.0  0.02694  0.32861  0.88662  1.0000
  I   I35       1.0  0.03785  0.21475  0.97891  1.0000
  I   I36       1.0  0.63089  0.37848  0.65945  1.0000
  I   I37       1.0  0.23415  0.12000  0.60835  1.0000
  I   I38       1.0  0.77376  0.61161  0.18175  1.0000
  I   I39       1.0  0.28074  0.07547  0.54718  1.0000
  I   I40       1.0  0.59459  0.10175  0.60323  1.0000
  I   I41       1.0  0.09615  0.87540  0.98699  1.0000
  I   I42       1.0  0.54759  0.55514  0.37776  1.0000
  I   I43       1.0  0.69369  0.29092  0.48562  1.0000
  I   I44       1.0  0.53805  0.11440  0.59903  1.0000
  I   I45       1.0  0.13031  0.31375  0.04385  1.0000
  I   I46       1.0  0.48812  0.58370  0.06452  1.0000
  I   I47       1.0  0.70825  0.20465  0.57077  1.0000
  I   I48       1.0  0.91060  0.99020  0.16591  1.0000
  I   I49       1.0  0.12696  0.06249  0.88120  1.0000
  I   I50       1.0  0.03305  0.09164  0.06508  1.0000
  I   I51       1.0  0.01877  0.04921  0.13329  1.0000
  I   I52       1.0  0.91910  0.26468  0.53107  1.0000
  I   I53       1.0  0.39498  0.70366  0.25366  1.0000
  I   I54       1.0  0.96427  0.77245  0.69459  1.0000
  I   I55       1.0  0.71878  0.86695  0.64341  1.0000
  I   I56       1.0  0.24638  0.45347  0.60252  1.0000
  I   I57       1.0  0.47461  0.10826  0.27258  1.0000
  I   I58       1.0  0.43242  0.47301  0.95183  1.0000
  I   I59       1.0  0.79900  0.17148  0.00984  1.0000
  I   I60       1.0  0.87908  0.69615  0.78002  1.0000
  I   I61       1.0  0.77054  0.40738  0.82297  1.0000
  I   I62       1.0  0.76271  0.44799  0.63686  1.0000
  I   I63       1.0  0.60815  0.04418  0.28184  1.0000
  I   I64       1.0  0.44953  0.51750  0.75262  1.0000
  I   I65       1.0  0.88214  0.77687  0.05662  1.0000
  I   I66       1.0  0.56214  0.29126  0.77960  1.0000
  I   I67       1.0  0.40462  0.57054  0.46032  1.0000
  I   I68       1.0  0.77322  0.01686  0.73528  1.0000
  I   I69       1.0  0.83551  0.90817  0.79382  1.0000
  I   I70       1.0  0.69953  0.78252  0.90486  1.0000
  I   I71       1.0  0.19410  0.15615  0.17475  1.0000
  I   I72       1.0  0.67200  0.18807  0.60341  1.0000
  I   I73       1.0  0.70863  0.22082  0.26226  1.0000
  I   I74       1.0  0.78174  0.93954  0.93088  1.0000
  I   I75       1.0  0.79996  0.96436  0.82224  1.0000
  I   I76       1.0  0.42752  0.12253  0.69567  1.0000
  I   I77       1.0  0.46391  0.06393  0.76321  1.0000
  I   I78       1.0  0.08140  0.95653  0.30067  1.0000
  I   I79       1.0  0.28041  0.65843  0.14067  1.0000
  I   I80       1.0  0.85369  0.80001  0.55254  1.0000
  I   I81       1.0  0.38296  0.93022  0.11663  1.0000
  I   I82       1.0  0.33691  0.28385  0.15362  1.0000
  I   I83       1.0  0.95967  0.41709  0.91493  1.0000
  I   I84       1.0  0.01094  0.21840  0.82248  1.0000
  I   I85       1.0  0.26059  0.07675  0.70019  1.0000
  I   I86       1.0  0.54868  0.25733  0.81921  1.0000
  I   I87       1.0  0.79038  0.57441  0.28340  1.0000
  I   I88       1.0  0.56923  0.59059  0.33398  1.0000
  I   I89       1.0  0.62549  0.05441  0.68921  1.0000
  I   I90       1.0  0.11200  0.91754  0.01263  1.0000
  I   I91       1.0  0.28864  0.47171  0.20900  1.0000
  I   I92       1.0  0.32638  0.69633  0.00689  1.0000
  I   I93       1.0  0.52920  0.16473  0.63653  1.0000
  I   I94       1.0  0.87529  0.03752  0.29773  1.0000
  I   I95       1.0  0.42428  0.83622  0.32783  1.0000
  I   I96       1.0  0.89589  0.43214  0.01323  1.0000
  I   I97       1.0  0.34324  0.01190  0.17115  1.0000
  I   I98       1.0  0.12366  0.88960  0.32642  1.0000
  I   I99       1.0  0.90859  0.10448  0.06987  1.0000
  I   I100      1.0  0.08686  0.43483  0.60534  1.0000
  I   I101      1.0  0.56629  0.28450  0.19428  1.0000
  I   I102      1.0  0.47345  0.43337  0.10034  1.0000
  I   I103      1.0  0.72323  0.90964  0.52737  1.0000
  I   I104      1.0  0.68831  0.90440  0.72821  1.0000
  I   I105      1.0  0.38340  0.14860  0.26937  1.0000
  I   I106      1.0  0.80986  0.73146  0.77030  1.0000
  I   I107      1.0  0.39400  0.46173  0.90541  1.0000
  I   I108      1.0  0.92156  0.74074  0.72826  1.0000
  I   I109      1.0  0.56448  0.68958  0.90591  1.0000
  I   I110      1.0  0.72446  0.44112  0.73887  1.0000
  I   I111      1.0  0.63177  0.05208  0.19533  1.0000
  I   I112      1.0  0.48489  0.89527  0.58912  1.0000
  I   I113      1.0  0.90726  0.75247  0.95913  1.0000
  I   I114      1.0  0.30978  0.74549  0.39329  1.0000
  I   I115      1.0  0.73320  0.75598  0.99046  1.0000
  I   I116      1.0  0.76017  0.73974  0.87919  1.0000
  I   I117      1.0  0.43959  0.54942  0.39012  1.0000
  I   I118      1.0  0.61139  0.77996  0.42275  1.0000
  I   I119      1.0  0.71418  0.83275  0.90849  1.0000
  I   I120      1.0  0.74931  0.17728  0.63895  1.0000
  I   I121      1.0  0.78824  0.19759  0.41816  1.0000
  I   I122      1.0  0.41204  0.24761  0.48953  1.0000
  I   I123      1.0  0.50297  0.92138  0.03652  1.0000
  I   I124      1.0  0.30717  0.97115  0.70304  1.0000
  I   I125      1.0  0.41053  0.94108  0.01667  1.0000
  I   I126      1.0  0.13086  0.80085  0.80294  1.0000
  I   I127      1.0  0.25593  0.71805  0.10128  1.0000
  I   I128      1.0  0.07630  0.47539  0.68535  1.0000
  I   I129      1.0  0.31404  0.91122  0.15792  1.0000
  I   I130      1.0  0.09252  0.20961  0.97273  1.0000
  I   I131      1.0  0.36481  0.28766  0.06771  1.0000
  I   I132      1.0  0.95488  0.37558  0.86668  1.0000
  I   I133      1.0  0.83016  0.60053  0.23877  1.0000
  I   I134      1.0  0.87117  0.22251  0.23608  1.0000
  I   I135      1.0  0.54704  0.32551  0.89899  1.0000
  I   I136      1.0  0.07836  0.93696  0.92120  1.0000
  I   I137      1.0  0.62426  0.30902  0.12817  1.0000
  I   I138      1.0  0.49959  0.26801  0.53643  1.0000
  I   I139      1.0  0.34758  0.44075  0.29877  1.0000
  I   I140      1.0  0.33726  0.68288  0.87779  1.0000
  I   I141      1.0  0.99978  0.62267  0.10920  1.0000
  I   I142      1.0  0.88132  0.08879  0.30799  1.0000
  I   I143      1.0  0.39195  0.80800  0.35882  1.0000
  I   I144      1.0  0.85423  0.41063  0.96335  1.0000
  I   I145      1.0  0.14251  0.94940  0.29034  1.0000
  I   I146      1.0  0.91822  0.12339  0.96739  1.0000
  I   I147      1.0  0.33411  0.07244  0.17736  1.0000
  I   I148      1.0  0.54260  0.29401  0.06063  1.0000
  I   I149      1.0  0.40387  0.45786  0.08549  1.0000
  I   I150      1.0  0.80522  0.90835  0.22962  1.0000
  I   I151      1.0  0.66851  0.96043  0.67537  1.0000
  I   I152      1.0  0.20638  0.55394  0.53825  1.0000
  I   I153      1.0  0.44396  0.08974  0.19097  1.0000
  I   I154      1.0  0.04290  0.10413  0.66084  1.0000
  I   I155      1.0  0.11071  0.41234  0.75661  1.0000
  I   I156      1.0  0.86125  0.73540  0.70309  1.0000
  I   I157      1.0  0.57949  0.73952  0.85752  1.0000
  I   I158      1.0  0.59925  0.10756  0.27738  1.0000
  I   I159      1.0  0.68017  0.63454  0.79194  1.0000
  I   I160      1.0  0.44211  0.87531  0.61150  1.0000
  I   I161      1.0  0.23272  0.77097  0.41946  1.0000
  I   I162      1.0  0.43705  0.93429  0.50560  1.0000
  I   I163      1.0  0.38479  0.60624  0.36403  1.0000
  I   I164      1.0  0.51198  0.49628  0.36433  1.0000
  I   I165      1.0  0.21794  0.50032  0.49662  1.0000
  I   I166      1.0  0.60620  0.83751  0.39562  1.0000
  I   I167      1.0  0.20415  0.13317  0.28565  1.0000
  I   I168      1.0  0.09903  0.78164  0.14489  1.0000
  I   I169      1.0  0.35482  0.31515  0.57224  1.0000
  I   I170      1.0  0.39779  0.22560  0.58434  1.0000
  I   I171      1.0  0.69012  0.27371  0.34303  1.0000
  I   I172      1.0  0.22126  0.00646  0.76485  1.0000
  I   I173      1.0  0.06241  0.75956  0.78608  1.0000
  I   I174      1.0  0.24331  0.00630  0.66076  1.0000
  I   I175      1.0  0.87252  0.73882  0.52890  1.0000
  I   I176      1.0  0.33481  0.92349  0.05824  1.0000
  I   I177      1.0  0.60751  0.73344  0.11683  1.0000
  I   I178      1.0  0.35770  0.21820  0.09502  1.0000
  I   I179      1.0  0.95390  0.40676  0.79221  1.0000
  I   I180      1.0  0.05931  0.17794  0.86895  1.0000
  I   I181      1.0  0.26312  0.01617  0.52843  1.0000
  I   I182      1.0  0.50956  0.31246  0.83996  1.0000
  I   I183      1.0  0.17361  0.23383  0.10130  1.0000
  I   I184      1.0  0.60039  0.27116  0.05752  1.0000
  I   I185      1.0  0.56999  0.21871  0.53659  1.0000
  I   I186      1.0  0.16925  0.82464  0.85334  1.0000
  I   I187      1.0  0.38099  0.69000  0.93566  1.0000
  I   I188      1.0  0.49805  0.14423  0.68303  1.0000
  I   I189      1.0  0.12197  0.26228  0.02666  1.0000
  I   I190      1.0  0.45689  0.77326  0.38056  1.0000
  I   I191      1.0  0.31917  0.37803  0.70784  1.0000
  I   I192      1.0  0.85809  0.03194  0.18184  1.0000
  I   I193      1.0  0.06797  0.79584  0.70616  1.0000
  I   I194      1.0  0.28864  0.41443  0.80574  1.0000
  I   I195      1.0  0.38595  0.03943  0.13320  1.0000
  I   I196      1.0  0.03168  0.45797  0.66859  1.0000
  I   I197      1.0  0.72869  0.30610  0.59016  1.0000
  I   I198      1.0  0.84660  0.85414  0.21350  1.0000
  I   I199      1.0  0.73260  0.90413  0.66701  1.0000
  I   I200      1.0  0.38732  0.38705  0.24049  1.0000
  I   I201      1.0  0.43704  0.15700  0.24139  1.0000
  I   I202      1.0  0.74043  0.17474  0.98748  1.0000
  I   I203      1.0  0.79336  0.89422  0.86268  1.0000
  I   I204      1.0  0.91805  0.68687  0.69728  1.0000
  I   I205      1.0  0.79503  0.38156  0.70507  1.0000
  I   I206      1.0  0.96001  0.04543  0.88825  1.0000
  I   I207      1.0  0.61369  0.65833  0.84594  1.0000
  I   I208      1.0  0.44789  0.42493  0.84151  1.0000
  I   I209      1.0  0.27809  0.76710  0.50422  1.0000
  I   I210      1.0  0.65226  0.73115  0.10764  1.0000
  I   I211      1.0  0.76568  0.77794  0.95375  1.0000
  I   I212      1.0  0.77028  0.08455  0.67669  1.0000
  I   I213      1.0  0.77000  0.94138  0.81123  1.0000
  I   I214      1.0  0.65480  0.78256  0.34304  1.0000
  I   I215      1.0  0.21415  0.08882  0.15452  1.0000
  I   I216      1.0  0.04370  0.84076  0.13524  1.0000
  I   I217      1.0  0.40501  0.31080  0.51806  1.0000
  I   I218      1.0  0.49279  0.86990  0.05134  1.0000
  I   I219      1.0  0.76458  0.22850  0.30988  1.0000
  I   I220      1.0  0.40549  0.09442  0.78657  1.0000
  I   I221      1.0  0.12906  0.79294  0.69473  1.0000
  I   I222      1.0  0.20852  0.96312  0.67405  1.0000
  I   I223      1.0  0.92195  0.74763  0.56210  1.0000
  I   I224      1.0  0.40029  0.85235  0.17753  1.0000
  I   I225      1.0  0.26771  0.66239  0.03956  1.0000
  I   I226      1.0  0.38327  0.23355  0.03361  1.0000
  I   I227      1.0  0.03603  0.36320  0.95025  1.0000
  I   I228      1.0  0.06526  0.22810  0.86750  1.0000
  I   I229      1.0  0.22034  0.07048  0.60586  1.0000
  I   I230      1.0  0.90415  0.16020  0.20124  1.0000
  I   I231      1.0  0.81223  0.54330  0.19832  1.0000
  I   I232      1.0  0.89146  0.05984  0.90298  1.0000
  I   I233      1.0  0.55532  0.08974  0.72156  1.0000
  I   I234      1.0  0.15227  0.88002  0.92557  1.0000
  I   I235      1.0  0.05426  0.12415  0.78053  1.0000
  I   I236      1.0  0.97513  0.68175  0.16201  1.0000
  I   I237      1.0  0.27937  0.48420  0.31096  1.0000
  I   I238      1.0  0.45557  0.64264  0.07406  1.0000
  I   I239      1.0  0.89167  0.42158  0.89341  1.0000
  I   I240      1.0  0.94254  0.06187  0.26794  1.0000
  I   I241      1.0  0.15368  0.01063  0.95121  1.0000
  I   I242      1.0  0.95499  0.06066  0.02047  1.0000
  I   I243      1.0  0.36337  0.03269  0.26278  1.0000
  I   I244      1.0  0.63391  0.26467  0.17924  1.0000
  I   I245      1.0  0.45072  0.66921  0.19932  1.0000
  I   I246      1.0  0.82616  0.88860  0.10456  1.0000
  I   I247      1.0  0.74328  0.86007  0.54757  1.0000
  I   I248      1.0  0.24662  0.52554  0.42707  1.0000
  I   I249      1.0  0.42988  0.09914  0.31094  1.0000
  I   I250      1.0  0.75956  0.21079  0.90779  1.0000
  I   I251      1.0  0.08272  0.43453  0.85270  1.0000
  I   I252      1.0  0.80875  0.78322  0.77233  1.0000
  I   I253      1.0  0.78196  0.35818  0.80669  1.0000
  I   I254      1.0  0.91928  0.06509  0.79632  1.0000
  I   I255      1.0  0.62167  0.69666  0.79854  1.0000
  I   I256      1.0  0.90955  0.70464  0.06794  1.0000
  I   I257      1.0  0.27469  0.71739  0.44639  1.0000
  I   I258      1.0  0.40100  0.92907  0.54586  1.0000
  I   I259      1.0  0.77849  0.69177  0.97206  1.0000
  I   I260      1.0  0.49454  0.55431  0.33187  1.0000
  I   I261      1.0  0.25957  0.54863  0.52089  1.0000
  I   I262      1.0  0.59623  0.79978  0.30860  1.0000
  I   I263      1.0  0.26026  0.07574  0.35907  1.0000
  I   I264      1.0  0.08846  0.81977  0.23001  1.0000
  I   I265      1.0  0.36884  0.29653  0.46630  1.0000
  I   I266      1.0  0.84094  0.92166  0.88856  1.0000
  I   I267      1.0  0.71822  0.26030  0.24223  1.0000
  I   I268      1.0  0.34797  0.98631  0.98639  1.0000
  I   I269      1.0  0.09204  0.77914  0.84801  1.0000
  I   I270      1.0  0.27437  0.93993  0.71637  1.0000
  I   I271      1.0  0.88731  0.77028  0.64295  1.0000
  I   I272      1.0  0.43146  0.88311  0.15719  1.0000
  I   I273      1.0  0.20794  0.70437  0.09148  1.0000
  I   I274      1.0  0.67462  0.40274  0.63206  1.0000
  I   I275      1.0  0.00544  0.41465  0.84362  1.0000
  I   I276      1.0  0.00715  0.25173  0.91870  1.0000
  I   I277      1.0  0.39866  0.22601  0.13545  1.0000
  I   I278      1.0  0.86721  0.19739  0.11685  1.0000
  I   I279      1.0  0.17724  0.33138  0.02746  1.0000
  I   I280      1.0  0.57016  0.31768  0.11210  1.0000
  I   I281      1.0  0.58380  0.05427  0.60729  1.0000
  I   I282      1.0  0.13555  0.80933  0.92240  1.0000
  I   I283      1.0  0.09859  0.08167  0.70549  1.0000
  I   I284      1.0  0.04118  0.65145  0.13042  1.0000
  I   I285      1.0  0.12196  0.28120  0.14383  1.0000
  I   I286      1.0  0.47307  0.61522  0.95473  1.0000
  I   I287      1.0  0.64095  0.23001  0.52083  1.0000
  I   I288      1.0  0.92690  0.01017  0.27519  1.0000
  I   I289      1.0  0.08824  0.05855  0.96081  1.0000
  I   I290      1.0  0.35518  0.38147  0.80419  1.0000
  I   I291      1.0  0.97119  0.11736  0.04378  1.0000
  I   I292      1.0  0.58053  0.23563  0.09402  1.0000
  I   I293      1.0  0.40108  0.69813  0.13216  1.0000
  I   I294      1.0  0.95190  0.83746  0.71702  1.0000
  I   I295      1.0  0.67697  0.87804  0.54858  1.0000
  I   I296      1.0  0.37123  0.34497  0.32318  1.0000
  I   I297      1.0  0.40558  0.16227  0.35862  1.0000
  I   I298      1.0  0.66208  0.34473  0.56913  1.0000
  I   I299      1.0  0.42284  0.49877  0.81931  1.0000
  I   I300      1.0  0.87300  0.75526  0.79857  1.0000
  I   I301      1.0  0.61864  0.64418  0.72682  1.0000
  I   I302      1.0  0.78045  0.44342  0.73859  1.0000
  I   I303      1.0  0.52336  0.61328  0.41493  1.0000
  I   I304      1.0  0.49152  0.93625  0.53660  1.0000
  I   I305      1.0  0.49299  0.45380  0.77239  1.0000
  I   I306      1.0  0.52286  0.27820  0.92370  1.0000
  I   I307      1.0  0.50447  0.52321  0.45344  1.0000
  I   I308      1.0  0.79601  0.05638  0.78657  1.0000
  I   I309      1.0  0.17840  0.48854  0.56570  1.0000
  I   I310      1.0  0.06091  0.15138  0.67729  1.0000
  I   I311      1.0  0.16798  0.12067  0.23753  1.0000
  I   I312      1.0  0.62600  0.24934  0.61452  1.0000
  I   I313      1.0  0.72983  0.21088  0.36479  1.0000
  I   I314      1.0  0.41248  0.27299  0.60041  1.0000
  I   I315      1.0  0.55421  0.87518  0.08281  1.0000
  I   I316      1.0  0.22807  0.95398  0.77639  1.0000
  I   I317      1.0  0.37960  0.00229  0.05466  1.0000
  I   I318      1.0  0.02983  0.81676  0.82805  1.0000
  I   I319      1.0  0.59874  0.75545  0.21321  1.0000
  I   I320      1.0  0.06540  0.40426  0.68936  1.0000
  I   I321      1.0  0.32380  0.95991  0.14492  1.0000
  I   I322      1.0  0.69584  0.35097  0.70363  1.0000
  I   I323      1.0  0.01431  0.36438  0.80511  1.0000
  I   I324      1.0  0.04421  0.28105  0.97134  1.0000
  I   I325      1.0  0.28762  0.04073  0.61319  1.0000
  I   I326      1.0  0.51144  0.23953  0.89038  1.0000
  I   I327      1.0  0.20917  0.29375  0.11011  1.0000
  I   I328      1.0  0.58577  0.58713  0.45192  1.0000
  I   I329      1.0  0.54186  0.28155  0.47304  1.0000
  I   I330      1.0  0.17555  0.82495  0.96820  1.0000
  I   I331      1.0  0.18141  0.27080  0.02002  1.0000
  I   I332      1.0  0.70641  0.34165  0.47649  1.0000
  I   I333      1.0  0.58017  0.11485  0.71629  1.0000
  I   I334      1.0  0.89108  0.98014  0.26294  1.0000
  I   I335      1.0  0.41825  0.78446  0.26207  1.0000
  I   I336      1.0  0.92735  0.36569  0.97299  1.0000
  I   I337      1.0  0.12324  0.91787  0.22167  1.0000
  I   I338      1.0  0.32326  0.43719  0.72923  1.0000
  I   I339      1.0  0.00196  0.06826  0.00760  1.0000
  I   I340      1.0  0.91072  0.32659  0.50926  1.0000
  I   I341      1.0  0.42711  0.48768  0.15870  1.0000
  I   I342      1.0  0.97885  0.79430  0.80737  1.0000
  I   I343      1.0  0.66573  0.92939  0.59456  1.0000
  I   I344      1.0  0.37896  0.39174  0.35637  1.0000
  I   I345      1.0  0.48683  0.11692  0.15317  1.0000
  I   I346      1.0  0.71051  0.81654  0.01492  1.0000
  I   I347      1.0  0.78694  0.14104  0.91715  1.0000
  I   I348      1.0  0.83932  0.74171  0.86712  1.0000
  I   I349      1.0  0.65261  0.66481  0.70020  1.0000
  I   I350      1.0  0.72604  0.39089  0.79608  1.0000
  I   I351      1.0  0.93770  0.00733  0.84323  1.0000
  I   I352      1.0  0.42403  0.93817  0.63945  1.0000
  I   I353      1.0  0.93636  0.74803  0.06087  1.0000
  I   I354      1.0  0.46529  0.29738  0.86014  1.0000
  I   I355      1.0  0.40338  0.63438  0.43742  1.0000
  I   I356      1.0  0.46456  0.58173  0.41602  1.0000
  I   I357      1.0  0.81482  0.97671  0.96032  1.0000
  I   I358      1.0  0.04874  0.79394  0.22683  1.0000
  I   I359      1.0  0.24407  0.08370  0.24426  1.0000
  I   I360      1.0  0.72257  0.14853  0.65261  1.0000
  I   I361      1.0  0.73441  0.23490  0.44732  1.0000
  I   I362      1.0  0.36220  0.26376  0.66025  1.0000
  I   I363      1.0  0.76487  0.00011  0.90223  1.0000
  I   I364      1.0  0.25654  0.95035  0.61808  1.0000
  I   I365      1.0  0.45522  0.11574  0.81138  1.0000
  I   I366      1.0  0.13593  0.74950  0.76471  1.0000
  I   I367      1.0  0.65948  0.73837  0.21539  1.0000
  I   I368      1.0  0.88765  0.31137  0.42516  1.0000
  I   I369      1.0  0.39203  0.88369  0.07043  1.0000
  I   I370      1.0  0.64223  0.40829  0.75117  1.0000
  I   I371      1.0  0.06856  0.34234  0.84671  1.0000
  I   I372      1.0  0.99989  0.19541  0.90880  1.0000
  I   I373      1.0  0.23041  0.08639  0.50297  1.0000
  I   I374      1.0  0.92229  0.20239  0.14475  1.0000
  I   I375      1.0  0.15255  0.33908  0.12273  1.0000
  I   I376      1.0  0.58629  0.33512  0.19520  1.0000
  I   I377      1.0  0.53135  0.23995  0.43123  1.0000
  I   I378      1.0  0.10671  0.87247  0.87645  1.0000
  I   I379      1.0  0.32628  0.49816  0.24880  1.0000
  I   I380      1.0  0.38152  0.63366  0.95754  1.0000
  I   I381      1.0  0.98334  0.68921  0.05255  1.0000
  I   I382      1.0  0.88559  0.07246  0.20029  1.0000
  I   I383      1.0  0.51361  0.63207  0.03340  1.0000
  I   I384      1.0  0.69152  0.22340  0.68074  1.0000
