data_image0
_chemical_formula_structural       Ti96I384
_chemical_formula_sum              "Ti96 I384"
_cell_length_a       72.0775
_cell_length_b       72.0124
_cell_length_c       35.2326
_cell_angle_alpha    88.7757
_cell_angle_beta     88.7757
_cell_angle_gamma    62.1586

_space_group_name_H-M_alt    "P 1"
_space_group_IT_number       1

loop_
  _space_group_symop_operation_xyz
  'x, y, z'

loop_
  _atom_site_type_symbol
  _atom_site_label
  _atom_site_symmetry_multiplicity
  _atom_site_fract_x
  _atom_site_fract_y
  _atom_site_fract_z
  _atom_site_occupancy
  Ti  Ti1       1.0  0.45069  0.61468  0.36063  1.0000
  Ti  Ti2       1.0  0.12267  0.95809  0.08547  1.0000
  Ti  Ti3       1.0  0.29769  0.11663  0.59953  1.0000
  Ti  Ti4       1.0  0.96407  0.60053  0.00416  1.0000
  Ti  Ti5       1.0  0.50517  0.49481  0.24922  1.0000
  Ti  Ti6       1.0  0.67270  0.98302  0.37881  1.0000
  Ti  Ti7       1.0  0.56740  0.92136  0.37848  1.0000
  Ti  Ti8       1.0  0.13607  0.55599  0.15417  1.0000
  Ti  Ti9       1.0  0.43075  0.30554  0.48584  1.0000
  Ti  Ti10      1.0  0.48266  0.57141  0.75549  1.0000
  Ti  Ti11      1.0  0.26388  0.24222  0.54184  1.0000
  Ti  Ti12      1.0  0.93212  0.39019  0.98877  1.0000
  Ti  Ti13      1.0  0.75508  0.61829  0.18085  1.0000
  Ti  Ti14      1.0  0.96054  0.58426  0.89050  1.0000
  Ti  Ti15      1.0  0.66861  0.63420  0.58348  1.0000
  Ti  Ti16      1.0  0.44115  0.53963  0.72646  1.0000
  Ti  Ti17      1.0  0.23549  0.22411  0.89454  1.0000
  Ti  Ti18      1.0  0.29061  0.15582  0.22338  1.0000
  Ti  Ti19      1.0  0.16285  0.72274  0.44476  1.0000
  Ti  Ti20      1.0  0.24707  0.81783  0.43766  1.0000
  Ti  Ti21      1.0  0.17050  0.58827  0.22237  1.0000
  Ti  Ti22      1.0  0.93970  0.46557  0.33407  1.0000
  Ti  Ti23      1.0  0.16966  0.08583  0.41122  1.0000
  Ti  Ti24      1.0  0.86084  0.93578  0.54091  1.0000
  Ti  Ti25      1.0  0.45481  0.42960  0.32389  1.0000
  Ti  Ti26      1.0  0.65887  0.91053  0.67968  1.0000
  Ti  Ti27      1.0  0.77990  0.31220  0.19080  1.0000
  Ti  Ti28      1.0  0.31535  0.04490  0.02131  1.0000
  Ti  Ti29      1.0  0.20764  0.82253  0.97524  1.0000
  Ti  Ti30      1.0  0.28664  0.87958  0.84617  1.0000
  Ti  Ti31      1.0  0.42872  0.07495  0.35446  1.0000
  Ti  Ti32      1.0  0.34500  0.87448  0.08444  1.0000
  Ti  Ti33      1.0  0.32483  0.60034  0.59868  1.0000
  Ti  Ti34      1.0  0.70990  0.50871  0.99663  1.0000
  Ti  Ti35      1.0  0.08669  0.46593  0.33910  1.0000
  Ti  Ti36      1.0  0.86646  0.22848  0.82323  1.0000
  Ti  Ti37      1.0  0.18128  0.12167  0.72443  1.0000
  Ti  Ti38      1.0  0.74527  0.99210  0.73764  1.0000
  Ti  Ti39      1.0  0.48492  0.80741  0.07157  1.0000
  Ti  Ti40      1.0  0.43955  0.71654  0.81162  1.0000
  Ti  Ti41      1.0  0.51928  0.41370  0.71898  1.0000
  Ti  Ti42      1.0  0.97978  0.74182  0.62727  1.0000
  Ti  Ti43      1.0  0.04660  0.00960  0.41750  1.0000
  Ti  Ti44      1.0  0.56921  0.38726  0.79615  1.0000
  Ti  Ti45      1.0  0.13212  0.21517  0.41964  1.0000
  Ti  Ti46      1.0  0.38068  0.02806  0.61189  1.0000
  Ti  Ti47      1.0  0.89763  0.05337  0.84446  1.0000
  Ti  Ti48      1.0  0.06282  0.88421  0.30366  1.0000
  Ti  Ti49      1.0  0.96701  0.84974  0.90517  1.0000
  Ti  Ti50      1.0  0.80030  0.48887  0.21471  1.0000
  Ti  Ti51      1.0  0.16833  0.92145  0.07932  1.0000
  Ti  Ti52      1.0  0.71016  0.38033  0.57844  1.0000
  Ti  Ti53      1.0  0.64513  0.67993  0.93434  1.0000
  Ti  Ti54      1.0  0.68880  0.00940  0.05715  1.0000
  Ti  Ti55      1.0  0.60402  0.85713  0.39339  1.0000
  Ti  Ti56      1.0  0.25757  0.61887  0.88050  1.0000
  Ti  Ti57      1.0  0.39094  0.28891  0.47276  1.0000
  Ti  Ti58      1.0  0.38345  0.53856  0.45929  1.0000
  Ti  Ti59      1.0  0.85154  0.91328  0.19262  1.0000
  Ti  Ti60      1.0  0.95333  0.41971  0.06075  1.0000
  Ti  Ti61      1.0  0.63462  0.62695  0.51343  1.0000
  Ti  Ti62      1.0  0.72476  0.64164  0.29170  1.0000
  Ti  Ti63      1.0  0.99098  0.78556  0.20645  1.0000
  Ti  Ti64      1.0  0.27735  0.18945  0.28811  1.0000
  Ti  Ti65      1.0  0.06424  0.70133  0.34128  1.0000
  Ti  Ti66      1.0  0.79099  0.20275  0.57184  1.0000
  Ti  Ti67      1.0  0.85987  0.61850  0.20069  1.0000
  Ti  Ti68      1.0  0.15445  0.70287  0.32965  1.0000
  Ti  Ti69      1.0  0.69822  0.85169  0.68270  1.0000
  Ti  Ti70      1.0  0.84500  0.67010  0.11360  1.0000
  Ti  Ti71      1.0  0.21330  0.07104  0.35290  1.0000
  Ti  Ti72      1.0  0.96072  0.04665  0.78633  1.0000
  Ti  Ti73      1.0  0.81679  0.28484  0.15489  1.0000
  Ti  Ti74      1.0  0.46823  0.39113  0.43645  1.0000
  Ti  Ti75      1.0  0.43894  0.05145  0.04832  1.0000
  Ti  Ti76      1.0  0.23754  0.03831  0.09172  1.0000
  Ti  Ti77      1.0  0.14144  0.58641  0.44625  1.0000
  Ti  Ti78      1.0  0.25470  0.77899  0.00798  1.0000
  Ti  Ti79      1.0  0.79630  0.72309  0.40491  1.0000
  Ti  Ti80      1.0  0.96820  0.39596  0.81399  1.0000
  Ti  Ti81      1.0  0.35912  0.91553  0.00824  1.0000
  Ti  Ti82      1.0  0.97245  0.17855  0.63929  1.0000
  Ti  Ti83      1.0  0.06647  0.43961  0.44574  1.0000
  Ti  Ti84      1.0  0.88882  0.16983  0.80877  1.0000
  Ti  Ti85      1.0  0.16481  0.14515  0.64585  1.0000
  Ti  Ti86      1.0  0.76099  0.25147  0.64652  1.0000
  Ti  Ti87      1.0  0.08892  0.25489  0.50434  1.0000
  Ti  Ti88      1.0  0.69437  0.43015  0.50161  1.0000
  Ti  Ti89      1.0  0.44395  0.34833  0.77182  1.0000
  Ti  Ti90      1.0  0.97245  0.76807  0.50970  1.0000
  Ti  Ti91      1.0  0.29041  0.50365  0.39088  1.0000
  Ti  Ti92      1.0  0.50484  0.68564  0.50181  1.0000
  Ti  Ti93      1.0  0.07000  0.22367  0.88951  1.0000
  Ti  Ti94      1.0  0.00744  0.90010  0.32961  1.0000
  Ti  Ti95      1.0  0.36046  0.52462  0.10491  1.0000
  Ti  Ti96      1.0  0.87535  0.36523  0.24538  1.0000
  I   I1        1.0  0.89182  0.07575  0.90269  1.0000
  I   I2        1.0  0.15610  0.96572  0.07602  1.0000
  I   I3        1.0  0.99677  0.81384  0.89599  1.0000
  I   I4        1.0  0.63450  0.65433  0.90568  1.0000
  I   I5        1.0  0.63607  0.00339  0.35396  1.0000
  I   I6        1.0  0.72841  0.99194  0.03554  1.0000
  I   I7        1.0  0.15125  0.60506  0.28740  1.0000
  I   I8        1.0  0.26871  0.64429  0.91257  1.0000
  I   I9        1.0  0.36060  0.29233  0.52216  1.0000
  I   I10       1.0  0.47945  0.53696  0.77266  1.0000
  I   I11       1.0  0.23706  0.28272  0.53544  1.0000
  I   I12       1.0  0.46419  0.51885  0.24226  1.0000
  I   I13       1.0  0.76245  0.65070  0.18585  1.0000
  I   I14       1.0  0.98100  0.80176  0.13795  1.0000
  I   I15       1.0  0.63766  0.64311  0.63654  1.0000
  I   I16       1.0  0.48177  0.59632  0.70151  1.0000
  I   I17       1.0  0.78089  0.18861  0.51172  1.0000
  I   I18       1.0  0.33002  0.12136  0.20905  1.0000
  I   I19       1.0  0.24028  0.85211  0.47150  1.0000
  I   I20       1.0  0.27368  0.23917  0.61463  1.0000
  I   I21       1.0  0.14817  0.59081  0.14000  1.0000
  I   I22       1.0  0.18630  0.04396  0.37538  1.0000
  I   I23       1.0  0.18061  0.11575  0.39246  1.0000
  I   I24       1.0  0.82308  0.63420  0.22668  1.0000
  I   I25       1.0  0.43960  0.42600  0.26140  1.0000
  I   I26       1.0  0.43704  0.01626  0.06244  1.0000
  I   I27       1.0  0.75067  0.34379  0.14454  1.0000
  I   I28       1.0  0.35271  0.04334  0.01790  1.0000
  I   I29       1.0  0.19703  0.85246  0.91582  1.0000
  I   I30       1.0  0.27097  0.90198  0.90399  1.0000
  I   I31       1.0  0.99508  0.36859  0.76281  1.0000
  I   I32       1.0  0.35916  0.83799  0.05891  1.0000
  I   I33       1.0  0.77410  0.72142  0.34430  1.0000
  I   I34       1.0  0.09752  0.40558  0.43306  1.0000
  I   I35       1.0  0.88022  0.25607  0.85282  1.0000
  I   I36       1.0  0.68770  0.54432  0.95359  1.0000
  I   I37       1.0  0.15637  0.15794  0.75628  1.0000
  I   I38       1.0  0.44248  0.82568  0.07381  1.0000
  I   I39       1.0  0.19827  0.08250  0.69147  1.0000
  I   I40       1.0  0.54334  0.39984  0.85677  1.0000
  I   I41       1.0  0.97334  0.73297  0.48941  1.0000
  I   I42       1.0  0.46210  0.67859  0.81989  1.0000
  I   I43       1.0  0.34444  0.56072  0.47595  1.0000
  I   I44       1.0  0.59168  0.34661  0.78626  1.0000
  I   I45       1.0  0.13520  0.23692  0.50003  1.0000
  I   I46       1.0  0.32611  0.51570  0.11595  1.0000
  I   I47       1.0  0.86527  0.06587  0.80479  1.0000
  I   I48       1.0  0.00875  0.92786  0.27935  1.0000
  I   I49       1.0  0.93689  0.84693  0.95115  1.0000
  I   I50       1.0  0.17960  0.93127  0.14327  1.0000
  I   I51       1.0  0.12630  0.93241  0.14679  1.0000
  I   I52       1.0  0.94155  0.43460  0.79538  1.0000
  I   I53       1.0  0.64208  0.71221  0.89572  1.0000
  I   I54       1.0  0.65478  0.02555  0.01636  1.0000
  I   I55       1.0  0.60531  0.89339  0.35694  1.0000
  I   I56       1.0  0.20413  0.59340  0.24749  1.0000
  I   I57       1.0  0.36820  0.30657  0.41148  1.0000
  I   I58       1.0  0.46913  0.59545  0.80927  1.0000
  I   I59       1.0  0.84931  0.90019  0.12519  1.0000
  I   I60       1.0  0.93518  0.38245  0.92122  1.0000
  I   I61       1.0  0.75044  0.65075  0.33104  1.0000
  I   I62       1.0  0.68434  0.67584  0.30888  1.0000
  I   I63       1.0  0.97375  0.80473  0.26912  1.0000
  I   I64       1.0  0.45496  0.50445  0.69410  1.0000
  I   I65       1.0  0.08409  0.72207  0.30671  1.0000
  I   I66       1.0  0.80139  0.16514  0.59911  1.0000
  I   I67       1.0  0.19745  0.69048  0.48011  1.0000
  I   I68       1.0  0.27782  0.81245  0.38653  1.0000
  I   I69       1.0  0.65609  0.87855  0.70828  1.0000
  I   I70       1.0  0.81189  0.70428  0.13461  1.0000
  I   I71       1.0  0.15402  0.09794  0.34231  1.0000
  I   I72       1.0  0.94546  0.02481  0.83580  1.0000
  I   I73       1.0  0.79754  0.28518  0.09435  1.0000
  I   I74       1.0  0.66400  0.93404  0.62623  1.0000
  I   I75       1.0  0.70334  0.88725  0.67418  1.0000
  I   I76       1.0  0.15056  0.56060  0.50226  1.0000
  I   I77       1.0  0.10029  0.60884  0.45121  1.0000
  I   I78       1.0  0.44933  0.65014  0.35681  1.0000
  I   I79       1.0  0.28306  0.61246  0.61333  1.0000
  I   I80       1.0  0.45916  0.04639  0.39508  1.0000
  I   I81       1.0  0.32516  0.94634  0.98332  1.0000
  I   I82       1.0  0.93834  0.20418  0.59455  1.0000
  I   I83       1.0  0.11295  0.44869  0.27768  1.0000
  I   I84       1.0  0.86937  0.25325  0.76918  1.0000
  I   I85       1.0  0.14051  0.13361  0.69704  1.0000
  I   I86       1.0  0.82875  0.19567  0.58393  1.0000
  I   I87       1.0  0.49040  0.79378  0.14138  1.0000
  I   I88       1.0  0.44433  0.73585  0.75211  1.0000
  I   I89       1.0  0.48398  0.42314  0.74568  1.0000
  I   I90       1.0  0.00088  0.76970  0.45941  1.0000
  I   I91       1.0  0.27476  0.54518  0.36909  1.0000
  I   I92       1.0  0.53973  0.67761  0.52815  1.0000
  I   I93       1.0  0.58522  0.40976  0.81749  1.0000
  I   I94       1.0  0.07422  0.85697  0.23657  1.0000
  I   I95       1.0  0.39800  0.02257  0.54573  1.0000
  I   I96       1.0  0.86724  0.39205  0.29814  1.0000
  I   I97       1.0  0.28784  0.12027  0.67334  1.0000
  I   I98       1.0  0.41279  0.62950  0.38073  1.0000
  I   I99       1.0  0.20296  0.90593  0.04390  1.0000
  I   I100      1.0  0.93651  0.62559  0.94247  1.0000
  I   I101      1.0  0.69367  0.35461  0.59510  1.0000
  I   I102      1.0  0.50643  0.45976  0.22627  1.0000
  I   I103      1.0  0.56096  0.94072  0.31037  1.0000
  I   I104      1.0  0.60072  0.82304  0.39343  1.0000
  I   I105      1.0  0.44004  0.31994  0.42892  1.0000
  I   I106      1.0  0.88974  0.41837  0.96318  1.0000
  I   I107      1.0  0.52412  0.56920  0.76779  1.0000
  I   I108      1.0  0.95648  0.40651  0.97839  1.0000
  I   I109      1.0  0.71010  0.61880  0.58762  1.0000
  I   I110      1.0  0.71189  0.61601  0.32229  1.0000
  I   I111      1.0  0.02848  0.75891  0.22088  1.0000
  I   I112      1.0  0.25668  0.15965  0.26104  1.0000
  I   I113      1.0  0.07090  0.70269  0.41054  1.0000
  I   I114      1.0  0.26045  0.23708  0.91700  1.0000
  I   I115      1.0  0.87727  0.61455  0.26405  1.0000
  I   I116      1.0  0.82964  0.66272  0.04637  1.0000
  I   I117      1.0  0.17565  0.68665  0.39894  1.0000
  I   I118      1.0  0.94507  0.45053  0.40571  1.0000
  I   I119      1.0  0.86332  0.68868  0.07509  1.0000
  I   I120      1.0  0.91512  0.07449  0.78839  1.0000
  I   I121      1.0  0.80998  0.28316  0.23512  1.0000
  I   I122      1.0  0.49488  0.41539  0.30504  1.0000
  I   I123      1.0  0.43215  0.06731  0.98170  1.0000
  I   I124      1.0  0.29422  0.90987  0.81448  1.0000
  I   I125      1.0  0.30166  0.03729  0.08849  1.0000
  I   I126      1.0  0.21568  0.81145  0.05740  1.0000
  I   I127      1.0  0.31925  0.61876  0.53289  1.0000
  I   I128      1.0  0.94723  0.58783  0.06188  1.0000
  I   I129      1.0  0.37623  0.93561  0.04040  1.0000
  I   I130      1.0  0.85772  0.20708  0.75753  1.0000
  I   I131      1.0  0.98383  0.15478  0.57600  1.0000
  I   I132      1.0  0.11783  0.46314  0.37247  1.0000
  I   I133      1.0  0.47845  0.84532  0.08020  1.0000
  I   I134      1.0  0.74653  0.02643  0.72636  1.0000
  I   I135      1.0  0.77365  0.24728  0.57016  1.0000
  I   I136      1.0  0.00061  0.75864  0.56844  1.0000
  I   I137      1.0  0.66078  0.46924  0.50146  1.0000
  I   I138      1.0  0.42166  0.36741  0.83398  1.0000
  I   I139      1.0  0.31291  0.49750  0.45374  1.0000
  I   I140      1.0  0.50810  0.68363  0.42837  1.0000
  I   I141      1.0  0.04393  0.20782  0.89090  1.0000
  I   I142      1.0  0.04579  0.85627  0.34149  1.0000
  I   I143      1.0  0.36964  0.00006  0.60638  1.0000
  I   I144      1.0  0.90497  0.33340  0.28251  1.0000
  I   I145      1.0  0.46780  0.58183  0.40302  1.0000
  I   I146      1.0  0.09008  0.95290  0.05848  1.0000
  I   I147      1.0  0.31923  0.07824  0.59405  1.0000
  I   I148      1.0  0.71248  0.44994  0.44629  1.0000
  I   I149      1.0  0.51260  0.48787  0.32387  1.0000
  I   I150      1.0  0.68607  0.00570  0.41352  1.0000
  I   I151      1.0  0.59048  0.86540  0.46308  1.0000
  I   I152      1.0  0.11516  0.57306  0.09157  1.0000
  I   I153      1.0  0.42980  0.27729  0.43900  1.0000
  I   I154      1.0  0.01658  0.00517  0.45558  1.0000
  I   I155      1.0  0.28919  0.23493  0.47422  1.0000
  I   I156      1.0  0.98056  0.43485  0.02779  1.0000
  I   I157      1.0  0.66516  0.67260  0.58478  1.0000
  I   I158      1.0  0.98686  0.75135  0.19811  1.0000
  I   I159      1.0  0.61519  0.65648  0.47038  1.0000
  I   I160      1.0  0.28404  0.20006  0.35025  1.0000
  I   I161      1.0  0.23082  0.22364  0.81902  1.0000
  I   I162      1.0  0.27676  0.16817  0.15535  1.0000
  I   I163      1.0  0.14316  0.74459  0.49977  1.0000
  I   I164      1.0  0.14145  0.74001  0.28647  1.0000
  I   I165      1.0  0.14483  0.56904  0.22783  1.0000
  I   I166      1.0  0.91104  0.50740  0.32414  1.0000
  I   I167      1.0  0.13717  0.10588  0.45556  1.0000
  I   I168      1.0  0.85318  0.91402  0.59297  1.0000
  I   I169      1.0  0.48190  0.35151  0.44045  1.0000
  I   I170      1.0  0.46174  0.43108  0.40383  1.0000
  I   I171      1.0  0.84363  0.29479  0.11854  1.0000
  I   I172      1.0  0.25468  0.03864  0.03011  1.0000
  I   I173      1.0  0.22921  0.78275  0.94460  1.0000
  I   I174      1.0  0.32431  0.84961  0.85956  1.0000
  I   I175      1.0  0.41308  0.07269  0.28569  1.0000
  I   I176      1.0  0.30658  0.89084  0.07782  1.0000
  I   I177      1.0  0.78842  0.74128  0.47583  1.0000
  I   I178      1.0  0.95140  0.17090  0.68993  1.0000
  I   I179      1.0  0.06064  0.44804  0.34507  1.0000
  I   I180      1.0  0.92221  0.13498  0.81253  1.0000
  I   I181      1.0  0.16203  0.12742  0.58013  1.0000
  I   I182      1.0  0.73504  0.29301  0.62313  1.0000
  I   I183      1.0  0.13737  0.19884  0.35512  1.0000
  I   I184      1.0  0.67237  0.41821  0.53494  1.0000
  I   I185      1.0  0.43545  0.31708  0.77454  1.0000
  I   I186      1.0  0.95793  0.72567  0.65835  1.0000
  I   I187      1.0  0.48676  0.66862  0.54630  1.0000
  I   I188      1.0  0.57002  0.39738  0.71992  1.0000
  I   I189      1.0  0.15671  0.23229  0.39493  1.0000
  I   I190      1.0  0.37798  0.06790  0.61421  1.0000
  I   I191      1.0  0.83877  0.47699  0.18964  1.0000
  I   I192      1.0  0.97747  0.90482  0.37159  1.0000
  I   I193      1.0  0.16952  0.83336  0.98834  1.0000
  I   I194      1.0  0.79138  0.45940  0.24572  1.0000
  I   I195      1.0  0.32214  0.13414  0.59463  1.0000
  I   I196      1.0  0.95818  0.63708  0.04173  1.0000
  I   I197      1.0  0.39444  0.51223  0.40601  1.0000
  I   I198      1.0  0.69328  0.94624  0.40866  1.0000
  I   I199      1.0  0.55977  0.88768  0.38730  1.0000
  I   I200      1.0  0.27252  0.58808  0.93388  1.0000
  I   I201      1.0  0.44151  0.31944  0.54866  1.0000
  I   I202      1.0  0.81479  0.94287  0.20855  1.0000
  I   I203      1.0  0.68130  0.83524  0.63782  1.0000
  I   I204      1.0  0.93164  0.44892  0.11399  1.0000
  I   I205      1.0  0.78635  0.59126  0.14891  1.0000
  I   I206      1.0  0.93908  0.60537  0.82978  1.0000
  I   I207      1.0  0.66469  0.59645  0.57133  1.0000
  I   I208      1.0  0.44215  0.57483  0.70693  1.0000
  I   I209      1.0  0.19088  0.24078  0.91288  1.0000
  I   I210      1.0  0.79761  0.69105  0.45049  1.0000
  I   I211      1.0  0.86816  0.57759  0.19253  1.0000
  I   I212      1.0  0.20969  0.82301  0.41263  1.0000
  I   I213      1.0  0.70826  0.84102  0.75544  1.0000
  I   I214      1.0  0.97589  0.46019  0.31085  1.0000
  I   I215      1.0  0.24885  0.03370  0.35249  1.0000
  I   I216      1.0  0.87021  0.96196  0.57257  1.0000
  I   I217      1.0  0.45089  0.39439  0.36302  1.0000
  I   I218      1.0  0.47902  0.03618  0.07057  1.0000
  I   I219      1.0  0.80162  0.33530  0.17042  1.0000
  I   I220      1.0  0.15111  0.55655  0.39563  1.0000
  I   I221      1.0  0.25198  0.81835  0.97650  1.0000
  I   I222      1.0  0.20054  0.06056  0.06194  1.0000
  I   I223      1.0  0.39628  0.08131  0.39348  1.0000
  I   I224      1.0  0.37782  0.88679  0.07423  1.0000
  I   I225      1.0  0.34460  0.60992  0.64354  1.0000
  I   I226      1.0  0.96030  0.22259  0.66361  1.0000
  I   I227      1.0  0.06641  0.50642  0.31664  1.0000
  I   I228      1.0  0.86347  0.15185  0.81519  1.0000
  I   I229      1.0  0.20147  0.14210  0.65463  1.0000
  I   I230      1.0  0.77320  0.97854  0.78807  1.0000
  I   I231      1.0  0.52168  0.78860  0.03091  1.0000
  I   I232      1.0  0.95722  0.56590  0.96222  1.0000
  I   I233      1.0  0.53381  0.37766  0.76133  1.0000
  I   I234      1.0  0.94545  0.77151  0.56636  1.0000
  I   I235      1.0  0.07507  0.97228  0.40982  1.0000
  I   I236      1.0  0.08964  0.21053  0.95157  1.0000
  I   I237      1.0  0.31250  0.47050  0.35124  1.0000
  I   I238      1.0  0.36649  0.55392  0.07619  1.0000
  I   I239      1.0  0.84637  0.35593  0.26342  1.0000
  I   I240      1.0  0.04102  0.90625  0.37056  1.0000
  I   I241      1.0  0.46277  0.58893  0.29523  1.0000
  I   I242      1.0  0.10313  0.98839  0.13204  1.0000
  I   I243      1.0  0.26748  0.14205  0.55595  1.0000
  I   I244      1.0  0.72953  0.40643  0.53779  1.0000
  I   I245      1.0  0.63050  0.70244  0.00004  1.0000
  I   I246      1.0  0.69323  0.97877  0.31553  1.0000
  I   I247      1.0  0.57965  0.94517  0.43040  1.0000
  I   I248      1.0  0.16804  0.52858  0.11787  1.0000
  I   I249      1.0  0.39104  0.33007  0.48466  1.0000
  I   I250      1.0  0.85708  0.88290  0.24377  1.0000
  I   I251      1.0  0.25463  0.21273  0.51230  1.0000
  I   I252      1.0  0.95016  0.35037  0.00684  1.0000
  I   I253      1.0  0.72952  0.62698  0.12423  1.0000
  I   I254      1.0  0.97733  0.54628  0.85303  1.0000
  I   I255      1.0  0.66415  0.64639  0.51055  1.0000
  I   I256      1.0  0.05701  0.67873  0.29217  1.0000
  I   I257      1.0  0.23362  0.19553  0.93780  1.0000
  I   I258      1.0  0.24096  0.21457  0.26085  1.0000
  I   I259      1.0  0.87547  0.64593  0.17568  1.0000
  I   I260      1.0  0.17729  0.74567  0.41269  1.0000
  I   I261      1.0  0.10537  0.54624  0.17618  1.0000
  I   I262      1.0  0.92913  0.44023  0.29190  1.0000
  I   I263      1.0  0.21988  0.06959  0.27922  1.0000
  I   I264      1.0  0.83176  0.94401  0.49328  1.0000
  I   I265      1.0  0.43434  0.47152  0.32660  1.0000
  I   I266      1.0  0.62042  0.92655  0.65280  1.0000
  I   I267      1.0  0.85141  0.24722  0.16540  1.0000
  I   I268      1.0  0.32061  0.01353  0.98488  1.0000
  I   I269      1.0  0.28351  0.74889  0.96134  1.0000
  I   I270      1.0  0.24018  0.00177  0.11259  1.0000
  I   I271      1.0  0.41837  0.11139  0.38127  1.0000
  I   I272      1.0  0.35172  0.88079  0.99837  1.0000
  I   I273      1.0  0.33626  0.55757  0.60052  1.0000
  I   I274      1.0  0.72281  0.47478  0.95998  1.0000
  I   I275      1.0  0.07123  0.47170  0.42447  1.0000
  I   I276      1.0  0.87757  0.19072  0.87410  1.0000
  I   I277      1.0  0.00769  0.16805  0.68594  1.0000
  I   I278      1.0  0.71504  0.98658  0.77646  1.0000
  I   I279      1.0  0.09044  0.23086  0.43554  1.0000
  I   I280      1.0  0.71429  0.39866  0.63890  1.0000
  I   I281      1.0  0.51514  0.43114  0.65410  1.0000
  I   I282      1.0  0.01697  0.70853  0.63149  1.0000
  I   I283      1.0  0.05026  0.02829  0.35292  1.0000
  I   I284      1.0  0.09791  0.19470  0.84544  1.0000
  I   I285      1.0  0.08812  0.25280  0.57950  1.0000
  I   I286      1.0  0.37592  0.49583  0.05532  1.0000
  I   I287      1.0  0.96114  0.03136  0.71999  1.0000
  I   I288      1.0  0.09718  0.85822  0.33506  1.0000
  I   I289      1.0  0.93982  0.87053  0.84722  1.0000
  I   I290      1.0  0.80030  0.52279  0.25517  1.0000
  I   I291      1.0  0.14233  0.92401  0.01453  1.0000
  I   I292      1.0  0.75019  0.35208  0.56765  1.0000
  I   I293      1.0  0.68584  0.66498  0.94403  1.0000
  I   I294      1.0  0.67222  0.05162  0.07383  1.0000
  I   I295      1.0  0.63422  0.83412  0.34204  1.0000
  I   I296      1.0  0.21662  0.63667  0.88079  1.0000
  I   I297      1.0  0.42690  0.27547  0.53775  1.0000
  I   I298      1.0  0.40069  0.52993  0.52428  1.0000
  I   I299      1.0  0.41315  0.55804  0.67340  1.0000
  I   I300      1.0  0.98495  0.39163  0.10142  1.0000
  I   I301      1.0  0.63402  0.59755  0.47276  1.0000
  I   I302      1.0  0.71137  0.64454  0.22358  1.0000
  I   I303      1.0  0.40035  0.72561  0.81717  1.0000
  I   I304      1.0  0.30973  0.14551  0.29748  1.0000
  I   I305      1.0  0.42081  0.54069  0.78971  1.0000
  I   I306      1.0  0.73071  0.26178  0.69582  1.0000
  I   I307      1.0  0.18484  0.71158  0.31844  1.0000
  I   I308      1.0  0.25818  0.79057  0.48868  1.0000
  I   I309      1.0  0.20136  0.54597  0.23419  1.0000
  I   I310      1.0  0.05856  0.02481  0.47590  1.0000
  I   I311      1.0  0.24104  0.08429  0.35592  1.0000
  I   I312      1.0  0.89397  0.02119  0.86855  1.0000
  I   I313      1.0  0.77600  0.27754  0.17405  1.0000
  I   I314      1.0  0.43690  0.41028  0.48395  1.0000
  I   I315      1.0  0.41520  0.08223  0.09374  1.0000
  I   I316      1.0  0.22945  0.06262  0.14987  1.0000
  I   I317      1.0  0.28965  0.07972  0.97301  1.0000
  I   I318      1.0  0.25657  0.74449  0.04238  1.0000
  I   I319      1.0  0.83536  0.69414  0.37891  1.0000
  I   I320      1.0  0.00308  0.57720  0.02026  1.0000
  I   I321      1.0  0.34498  0.88303  0.15901  1.0000
  I   I322      1.0  0.68231  0.50522  0.03650  1.0000
  I   I323      1.0  0.07797  0.44290  0.51394  1.0000
  I   I324      1.0  0.91195  0.18937  0.79207  1.0000
  I   I325      1.0  0.15261  0.17859  0.60559  1.0000
  I   I326      1.0  0.75442  0.21780  0.62087  1.0000
  I   I327      1.0  0.05121  0.25626  0.51603  1.0000
  I   I328      1.0  0.44947  0.73370  0.86374  1.0000
  I   I329      1.0  0.48148  0.33861  0.77522  1.0000
  I   I330      1.0  0.94306  0.80258  0.47371  1.0000
  I   I331      1.0  0.08184  0.29040  0.47964  1.0000
  I   I332      1.0  0.39797  0.56153  0.42778  1.0000
  I   I333      1.0  0.52543  0.43541  0.77755  1.0000
  I   I334      1.0  0.07914  0.90129  0.25785  1.0000
  I   I335      1.0  0.40906  0.00991  0.65873  1.0000
  I   I336      1.0  0.87383  0.35450  0.16931  1.0000
  I   I337      1.0  0.97633  0.88030  0.91849  1.0000
  I   I338      1.0  0.78238  0.49755  0.14819  1.0000
  I   I339      1.0  0.17234  0.88279  0.10670  1.0000
  I   I340      1.0  0.94276  0.37861  0.81831  1.0000
  I   I341      1.0  0.52391  0.50746  0.19883  1.0000
  I   I342      1.0  0.69365  0.99158  0.12758  1.0000
  I   I343      1.0  0.52502  0.94972  0.38506  1.0000
  I   I344      1.0  0.25762  0.62826  0.80259  1.0000
  I   I345      1.0  0.38648  0.25377  0.46266  1.0000
  I   I346      1.0  0.85300  0.62533  0.12289  1.0000
  I   I347      1.0  0.87871  0.92609  0.19131  1.0000
  I   I348      1.0  0.92119  0.40746  0.07086  1.0000
  I   I349      1.0  0.60644  0.63057  0.56467  1.0000
  I   I350      1.0  0.75799  0.60151  0.26450  1.0000
  I   I351      1.0  0.99177  0.59434  0.90670  1.0000
  I   I352      1.0  0.30303  0.18632  0.23689  1.0000
  I   I353      1.0  0.02687  0.73275  0.34544  1.0000
  I   I354      1.0  0.79101  0.24534  0.69020  1.0000
  I   I355      1.0  0.13498  0.72944  0.39024  1.0000
  I   I356      1.0  0.15405  0.67724  0.27878  1.0000
  I   I357      1.0  0.65366  0.93899  0.73545  1.0000
  I   I358      1.0  0.89868  0.91358  0.51128  1.0000
  I   I359      1.0  0.21205  0.06445  0.44150  1.0000
  I   I360      1.0  0.97015  0.07757  0.77958  1.0000
  I   I361      1.0  0.75451  0.32639  0.25189  1.0000
  I   I362      1.0  0.50951  0.37731  0.41262  1.0000
  I   I363      1.0  0.73293  0.83377  0.65413  1.0000
  I   I364      1.0  0.26718  0.85716  0.83727  1.0000
  I   I365      1.0  0.17609  0.58957  0.45642  1.0000
  I   I366      1.0  0.28771  0.77059  0.05267  1.0000
  I   I367      1.0  0.79488  0.75040  0.34684  1.0000
  I   I368      1.0  0.97889  0.39990  0.88233  1.0000
  I   I369      1.0  0.37755  0.91320  0.94567  1.0000
  I   I370      1.0  0.73919  0.50156  0.04266  1.0000
  I   I371      1.0  0.03173  0.43939  0.46063  1.0000
  I   I372      1.0  0.82908  0.24854  0.84460  1.0000
  I   I373      1.0  0.21375  0.10752  0.76759  1.0000
  I   I374      1.0  0.75551  0.96591  0.68497  1.0000
  I   I375      1.0  0.16334  0.18031  0.44343  1.0000
  I   I376      1.0  0.69760  0.41128  0.43555  1.0000
  I   I377      1.0  0.42536  0.38107  0.72561  1.0000
  I   I378      1.0  0.97949  0.76243  0.68096  1.0000
  I   I379      1.0  0.25334  0.50516  0.40258  1.0000
  I   I380      1.0  0.47927  0.72436  0.52397  1.0000
  I   I381      1.0  0.06230  0.26469  0.88499  1.0000
  I   I382      1.0  0.99956  0.88167  0.27574  1.0000
  I   I383      1.0  0.38848  0.51197  0.15729  1.0000
  I   I384      1.0  0.99884  0.01966  0.81416  1.0000
