data_image0
_chemical_formula_structural       Ti96I384
_chemical_formula_sum              "Ti96 I384"
_cell_length_a       70.9144
_cell_length_b       70.7874
_cell_length_c       34.632
_cell_angle_alpha    88.7757
_cell_angle_beta     88.7757
_cell_angle_gamma    62.1586

_space_group_name_H-M_alt    "P 1"
_space_group_IT_number       1

loop_
  _space_group_symop_operation_xyz
  'x, y, z'

loop_
  _atom_site_type_symbol
  _atom_site_label
  _atom_site_symmetry_multiplicity
  _atom_site_fract_x
  _atom_site_fract_y
  _atom_site_fract_z
  _atom_site_occupancy
  Ti  Ti1       1.0  0.15265  0.91244  0.24851  1.0000
  Ti  Ti2       1.0  0.02353  0.06746  0.96161  1.0000
  Ti  Ti3       1.0  0.31738  0.07800  0.24369  1.0000
  Ti  Ti4       1.0  0.08001  0.51680  0.68235  1.0000
  Ti  Ti5       1.0  0.46469  0.41932  0.16131  1.0000
  Ti  Ti6       1.0  0.85952  0.82250  0.25173  1.0000
  Ti  Ti7       1.0  0.62617  0.96638  0.57317  1.0000
  Ti  Ti8       1.0  0.19848  0.53265  0.51762  1.0000
  Ti  Ti9       1.0  0.44102  0.15355  0.15771  1.0000
  Ti  Ti10      1.0  0.49460  0.46110  0.86068  1.0000
  Ti  Ti11      1.0  0.14957  0.47834  0.78543  1.0000
  Ti  Ti12      1.0  0.88844  0.72107  0.65251  1.0000
  Ti  Ti13      1.0  0.74372  0.48530  0.82601  1.0000
  Ti  Ti14      1.0  0.98593  0.95639  0.87754  1.0000
  Ti  Ti15      1.0  0.59909  0.64199  0.76681  1.0000
  Ti  Ti16      1.0  0.48925  0.46366  0.74668  1.0000
  Ti  Ti17      1.0  0.24528  0.64773  0.56777  1.0000
  Ti  Ti18      1.0  0.44569  0.97695  0.57985  1.0000
  Ti  Ti19      1.0  0.38912  0.57015  0.40652  1.0000
  Ti  Ti20      1.0  0.93165  0.95454  0.66344  1.0000
  Ti  Ti21      1.0  0.17452  0.49341  0.54363  1.0000
  Ti  Ti22      1.0  0.65301  0.74272  0.38827  1.0000
  Ti  Ti23      1.0  0.18754  0.07508  0.29972  1.0000
  Ti  Ti24      1.0  0.03151  0.82072  0.35604  1.0000
  Ti  Ti25      1.0  0.38006  0.31869  0.46560  1.0000
  Ti  Ti26      1.0  0.75760  0.96285  0.86978  1.0000
  Ti  Ti27      1.0  0.77532  0.17581  0.31270  1.0000
  Ti  Ti28      1.0  0.36401  0.96702  0.84589  1.0000
  Ti  Ti29      1.0  0.10384  0.81320  0.77473  1.0000
  Ti  Ti30      1.0  0.29488  0.92489  0.70440  1.0000
  Ti  Ti31      1.0  0.83162  0.92054  0.41652  1.0000
  Ti  Ti32      1.0  0.35688  0.90867  0.22250  1.0000
  Ti  Ti33      1.0  0.25800  0.64385  0.98987  1.0000
  Ti  Ti34      1.0  0.62044  0.46851  0.73991  1.0000
  Ti  Ti35      1.0  0.06957  0.33528  0.80791  1.0000
  Ti  Ti36      1.0  0.98506  0.22455  0.87209  1.0000
  Ti  Ti37      1.0  0.25558  0.07749  0.60676  1.0000
  Ti  Ti38      1.0  0.89287  0.19534  0.29530  1.0000
  Ti  Ti39      1.0  0.72101  0.59340  0.24438  1.0000
  Ti  Ti40      1.0  0.50322  0.62278  0.55620  1.0000
  Ti  Ti41      1.0  0.54795  0.10148  0.64481  1.0000
  Ti  Ti42      1.0  0.09880  0.83119  0.10991  1.0000
  Ti  Ti43      1.0  0.06440  0.04766  0.81099  1.0000
  Ti  Ti44      1.0  0.61572  0.08288  0.67310  1.0000
  Ti  Ti45      1.0  0.10460  0.31617  0.06167  1.0000
  Ti  Ti46      1.0  0.37348  0.85933  0.49692  1.0000
  Ti  Ti47      1.0  0.72880  0.15625  0.63242  1.0000
  Ti  Ti48      1.0  0.88737  0.01746  0.25757  1.0000
  Ti  Ti49      1.0  0.15498  0.03372  0.04027  1.0000
  Ti  Ti50      1.0  0.41207  0.41280  0.91464  1.0000
  Ti  Ti51      1.0  0.00537  0.02257  0.97024  1.0000
  Ti  Ti52      1.0  0.56343  0.34222  0.19165  1.0000
  Ti  Ti53      1.0  0.41058  0.68889  0.30254  1.0000
  Ti  Ti54      1.0  0.93580  0.80504  0.82294  1.0000
  Ti  Ti55      1.0  0.66271  0.96768  0.66115  1.0000
  Ti  Ti56      1.0  0.35114  0.36743  0.19510  1.0000
  Ti  Ti57      1.0  0.47797  0.14134  0.08365  1.0000
  Ti  Ti58      1.0  0.62908  0.39540  0.48194  1.0000
  Ti  Ti59      1.0  0.81177  0.14151  0.96790  1.0000
  Ti  Ti60      1.0  0.91590  0.67845  0.57864  1.0000
  Ti  Ti61      1.0  0.63993  0.63631  0.70331  1.0000
  Ti  Ti62      1.0  0.75987  0.43655  0.80962  1.0000
  Ti  Ti63      1.0  0.58060  0.02657  0.15786  1.0000
  Ti  Ti64      1.0  0.42949  0.94943  0.57251  1.0000
  Ti  Ti65      1.0  0.92030  0.76525  0.03278  1.0000
  Ti  Ti66      1.0  0.57445  0.31453  0.87420  1.0000
  Ti  Ti67      1.0  0.79070  0.73352  0.97743  1.0000
  Ti  Ti68      1.0  0.43932  0.52832  0.34190  1.0000
  Ti  Ti69      1.0  0.76293  0.92404  0.76624  1.0000
  Ti  Ti70      1.0  0.74233  0.77976  0.94005  1.0000
  Ti  Ti71      1.0  0.19658  0.08894  0.17379  1.0000
  Ti  Ti72      1.0  0.73240  0.19340  0.68271  1.0000
  Ti  Ti73      1.0  0.75420  0.21600  0.20324  1.0000
  Ti  Ti74      1.0  0.40425  0.30542  0.53692  1.0000
  Ti  Ti75      1.0  0.52346  0.95772  0.12575  1.0000
  Ti  Ti76      1.0  0.24481  0.98811  0.74293  1.0000
  Ti  Ti77      1.0  0.37608  0.18623  0.71528  1.0000
  Ti  Ti78      1.0  0.11942  0.74898  0.83257  1.0000
  Ti  Ti79      1.0  0.66518  0.70165  0.04795  1.0000
  Ti  Ti80      1.0  0.92214  0.26768  0.42199  1.0000
  Ti  Ti81      1.0  0.36044  0.90805  0.12182  1.0000
  Ti  Ti82      1.0  0.32734  0.27438  0.09089  1.0000
  Ti  Ti83      1.0  0.03375  0.36795  0.87051  1.0000
  Ti  Ti84      1.0  0.02789  0.22133  0.90356  1.0000
  Ti  Ti85      1.0  0.22358  0.07113  0.55415  1.0000
  Ti  Ti86      1.0  0.58733  0.27187  0.92787  1.0000
  Ti  Ti87      1.0  0.14905  0.29395  0.09396  1.0000
  Ti  Ti88      1.0  0.60488  0.33894  0.25884  1.0000
  Ti  Ti89      1.0  0.50071  0.30444  0.33942  1.0000
  Ti  Ti90      1.0  0.09941  0.85797  0.02577  1.0000
  Ti  Ti91      1.0  0.31138  0.52370  0.33825  1.0000
  Ti  Ti92      1.0  0.32824  0.72557  0.83280  1.0000
  Ti  Ti93      1.0  0.00994  0.57763  0.08987  1.0000
  Ti  Ti94      1.0  0.89312  0.06931  0.23603  1.0000
  Ti  Ti95      1.0  0.42178  0.67009  0.06583  1.0000
  Ti  Ti96      1.0  0.93217  0.31037  0.08916  1.0000
  I   I1        1.0  0.69212  0.19476  0.67813  1.0000
  I   I2        1.0  0.99012  0.08578  0.01265  1.0000
  I   I3        1.0  0.15419  0.06782  0.00312  1.0000
  I   I4        1.0  0.44870  0.66659  0.27778  1.0000
  I   I5        1.0  0.88135  0.79038  0.21338  1.0000
  I   I6        1.0  0.97686  0.78937  0.80548  1.0000
  I   I7        1.0  0.19573  0.49143  0.60717  1.0000
  I   I8        1.0  0.36117  0.33261  0.15887  1.0000
  I   I9        1.0  0.50934  0.14026  0.04089  1.0000
  I   I10       1.0  0.46370  0.46174  0.69518  1.0000
  I   I11       1.0  0.17994  0.46906  0.73710  1.0000
  I   I12       1.0  0.46740  0.38185  0.18138  1.0000
  I   I13       1.0  0.73879  0.46351  0.75841  1.0000
  I   I14       1.0  0.55620  0.06653  0.18305  1.0000
  I   I15       1.0  0.61589  0.60683  0.72444  1.0000
  I   I16       1.0  0.46303  0.45814  0.81518  1.0000
  I   I17       1.0  0.60300  0.32521  0.83872  1.0000
  I   I18       1.0  0.42572  0.02023  0.55265  1.0000
  I   I19       1.0  0.96166  0.96560  0.67101  1.0000
  I   I20       1.0  0.16302  0.49815  0.83987  1.0000
  I   I21       1.0  0.20858  0.49178  0.50585  1.0000
  I   I22       1.0  0.21887  0.03804  0.31594  1.0000
  I   I23       1.0  0.16369  0.05861  0.33815  1.0000
  I   I24       1.0  0.80462  0.74617  0.03397  1.0000
  I   I25       1.0  0.36490  0.34434  0.52679  1.0000
  I   I26       1.0  0.55652  0.92866  0.09199  1.0000
  I   I27       1.0  0.80081  0.18498  0.35619  1.0000
  I   I28       1.0  0.38338  0.98887  0.82844  1.0000
  I   I29       1.0  0.12859  0.82587  0.80833  1.0000
  I   I30       1.0  0.33515  0.88995  0.70887  1.0000
  I   I31       1.0  0.91421  0.26079  0.35269  1.0000
  I   I32       1.0  0.35655  0.87895  0.17098  1.0000
  I   I33       1.0  0.69189  0.67201  0.99372  1.0000
  I   I34       1.0  0.07591  0.30083  0.77103  1.0000
  I   I35       1.0  0.99585  0.22193  0.94993  1.0000
  I   I36       1.0  0.61113  0.43829  0.73651  1.0000
  I   I37       1.0  0.25860  0.06266  0.67909  1.0000
  I   I38       1.0  0.72810  0.61894  0.29494  1.0000
  I   I39       1.0  0.20464  0.10276  0.59777  1.0000
  I   I40       1.0  0.59050  0.06637  0.63380  1.0000
  I   I41       1.0  0.06976  0.89008  0.07776  1.0000
  I   I42       1.0  0.51574  0.58374  0.54519  1.0000
  I   I43       1.0  0.65761  0.36523  0.44118  1.0000
  I   I44       1.0  0.63474  0.10803  0.69293  1.0000
  I   I45       1.0  0.13764  0.32128  0.02569  1.0000
  I   I46       1.0  0.46278  0.65189  0.07765  1.0000
  I   I47       1.0  0.72940  0.19615  0.60520  1.0000
  I   I48       1.0  0.89295  0.98525  0.21469  1.0000
  I   I49       1.0  0.19229  0.00243  0.01962  1.0000
  I   I50       1.0  0.00246  0.01468  0.04076  1.0000
  I   I51       1.0  0.96293  0.03913  0.96344  1.0000
  I   I52       1.0  0.91759  0.23525  0.45216  1.0000
  I   I53       1.0  0.41320  0.69986  0.37169  1.0000
  I   I54       1.0  0.93443  0.77426  0.86223  1.0000
  I   I55       1.0  0.67029  0.94468  0.59906  1.0000
  I   I56       1.0  0.18568  0.45450  0.52312  1.0000
  I   I57       1.0  0.50306  0.10150  0.10606  1.0000
  I   I58       1.0  0.47622  0.45663  0.92266  1.0000
  I   I59       1.0  0.81494  0.17251  0.93624  1.0000
  I   I60       1.0  0.89166  0.67848  0.63613  1.0000
  I   I61       1.0  0.77495  0.44345  0.87718  1.0000
  I   I62       1.0  0.71798  0.52487  0.83365  1.0000
  I   I63       1.0  0.56941  0.00478  0.20708  1.0000
  I   I64       1.0  0.52641  0.43147  0.73556  1.0000
  I   I65       1.0  0.93776  0.72769  0.00612  1.0000
  I   I66       1.0  0.55783  0.36113  0.87462  1.0000
  I   I67       1.0  0.35402  0.60138  0.38379  1.0000
  I   I68       1.0  0.93019  0.94882  0.58698  1.0000
  I   I69       1.0  0.79954  0.91345  0.73700  1.0000
  I   I70       1.0  0.70497  0.78386  0.91516  1.0000
  I   I71       1.0  0.23009  0.09605  0.15100  1.0000
  I   I72       1.0  0.76999  0.12447  0.63047  1.0000
  I   I73       1.0  0.72184  0.22188  0.15547  1.0000
  I   I74       1.0  0.76019  0.94297  0.93561  1.0000
  I   I75       1.0  0.74610  0.97407  0.79683  1.0000
  I   I76       1.0  0.36822  0.18645  0.78781  1.0000
  I   I77       1.0  0.34779  0.21315  0.67297  1.0000
  I   I78       1.0  0.13913  0.89266  0.20171  1.0000
  I   I79       1.0  0.22423  0.67012  0.95785  1.0000
  I   I80       1.0  0.84069  0.92767  0.34914  1.0000
  I   I81       1.0  0.37888  0.88690  0.28250  1.0000
  I   I82       1.0  0.33909  0.23072  0.07916  1.0000
  I   I83       1.0  0.06504  0.32216  0.88308  1.0000
  I   I84       1.0  0.97666  0.22399  0.79353  1.0000
  I   I85       1.0  0.27744  0.09845  0.61911  1.0000
  I   I86       1.0  0.59210  0.27805  0.83688  1.0000
  I   I87       1.0  0.68604  0.59373  0.26870  1.0000
  I   I88       1.0  0.47418  0.64900  0.60530  1.0000
  I   I89       1.0  0.52399  0.08390  0.66166  1.0000
  I   I90       1.0  0.11842  0.87172  0.97912  1.0000
  I   I91       1.0  0.29516  0.49826  0.35128  1.0000
  I   I92       1.0  0.34389  0.74847  0.80230  1.0000
  I   I93       1.0  0.65269  0.06006  0.62801  1.0000
  I   I94       1.0  0.87814  0.05360  0.29814  1.0000
  I   I95       1.0  0.39604  0.83003  0.54198  1.0000
  I   I96       1.0  0.97642  0.28827  0.07937  1.0000
  I   I97       1.0  0.29028  0.07017  0.20703  1.0000
  I   I98       1.0  0.18567  0.87658  0.27462  1.0000
  I   I99       1.0  0.04617  0.02090  0.97984  1.0000
  I   I100      1.0  0.08209  0.51914  0.76215  1.0000
  I   I101      1.0  0.60737  0.33088  0.17526  1.0000
  I   I102      1.0  0.49647  0.42113  0.19082  1.0000
  I   I103      1.0  0.63004  0.99841  0.60496  1.0000
  I   I104      1.0  0.67567  0.93829  0.71439  1.0000
  I   I105      1.0  0.42957  0.17734  0.08179  1.0000
  I   I106      1.0  0.85523  0.73389  0.70388  1.0000
  I   I107      1.0  0.51398  0.41994  0.83782  1.0000
  I   I108      1.0  0.95422  0.65718  0.55051  1.0000
  I   I109      1.0  0.58255  0.64442  0.83809  1.0000
  I   I110      1.0  0.71716  0.47372  0.87296  1.0000
  I   I111      1.0  0.61705  0.02267  0.17939  1.0000
  I   I112      1.0  0.47478  0.93268  0.56150  1.0000
  I   I113      1.0  0.94381  0.75073  0.09147  1.0000
  I   I114      1.0  0.22335  0.68445  0.61003  1.0000
  I   I115      1.0  0.74274  0.76443  0.01444  1.0000
  I   I116      1.0  0.82785  0.70696  0.94369  1.0000
  I   I117      1.0  0.38572  0.57917  0.48145  1.0000
  I   I118      1.0  0.61038  0.76619  0.37320  1.0000
  I   I119      1.0  0.72322  0.82014  0.95794  1.0000
  I   I120      1.0  0.70910  0.22810  0.72435  1.0000
  I   I121      1.0  0.78453  0.13495  0.30449  1.0000
  I   I122      1.0  0.34695  0.31264  0.45028  1.0000
  I   I123      1.0  0.49582  0.98695  0.08451  1.0000
  I   I124      1.0  0.29349  0.88989  0.74023  1.0000
  I   I125      1.0  0.32044  0.99326  0.84024  1.0000
  I   I126      1.0  0.09878  0.82201  0.69771  1.0000
  I   I127      1.0  0.25441  0.66071  0.05437  1.0000
  I   I128      1.0  0.03932  0.53007  0.66742  1.0000
  I   I129      1.0  0.32549  0.93504  0.14563  1.0000
  I   I130      1.0  0.06041  0.18907  0.93745  1.0000
  I   I131      1.0  0.35836  0.25985  0.14352  1.0000
  I   I132      1.0  0.99369  0.39258  0.87705  1.0000
  I   I133      1.0  0.75257  0.55119  0.26367  1.0000
  I   I134      1.0  0.85470  0.20292  0.29728  1.0000
  I   I135      1.0  0.61024  0.29315  0.92498  1.0000
  I   I136      1.0  0.07101  0.86283  0.97240  1.0000
  I   I137      1.0  0.64107  0.30119  0.26066  1.0000
  I   I138      1.0  0.48061  0.33015  0.27502  1.0000
  I   I139      1.0  0.28374  0.56513  0.34903  1.0000
  I   I140      1.0  0.35884  0.68817  0.81052  1.0000
  I   I141      1.0  0.98763  0.61604  0.11317  1.0000
  I   I142      1.0  0.89444  0.10011  0.26692  1.0000
  I   I143      1.0  0.35790  0.84656  0.44223  1.0000
  I   I144      1.0  0.93037  0.34189  0.12456  1.0000
  I   I145      1.0  0.12775  0.91775  0.31076  1.0000
  I   I146      1.0  0.00673  0.10617  0.93063  1.0000
  I   I147      1.0  0.29851  0.11730  0.27574  1.0000
  I   I148      1.0  0.56208  0.32814  0.12086  1.0000
  I   I149      1.0  0.42589  0.44898  0.15372  1.0000
  I   I150      1.0  0.84781  0.81514  0.32174  1.0000
  I   I151      1.0  0.63441  0.99785  0.70740  1.0000
  I   I152      1.0  0.15799  0.53632  0.51190  1.0000
  I   I153      1.0  0.45383  0.11064  0.16167  1.0000
  I   I154      1.0  0.10214  0.04170  0.79860  1.0000
  I   I155      1.0  0.12499  0.47353  0.72728  1.0000
  I   I156      1.0  0.91243  0.68872  0.49356  1.0000
  I   I157      1.0  0.56519  0.65477  0.72007  1.0000
  I   I158      1.0  0.57657  0.02633  0.07951  1.0000
  I   I159      1.0  0.66956  0.64502  0.73100  1.0000
  I   I160      1.0  0.43804  0.90981  0.54671  1.0000
  I   I161      1.0  0.27735  0.65414  0.56626  1.0000
  I   I162      1.0  0.42605  0.97459  0.51182  1.0000
  I   I163      1.0  0.36786  0.54741  0.39531  1.0000
  I   I164      1.0  0.46604  0.51722  0.28277  1.0000
  I   I165      1.0  0.18763  0.54344  0.43533  1.0000
  I   I166      1.0  0.65575  0.74140  0.46313  1.0000
  I   I167      1.0  0.16005  0.09828  0.23556  1.0000
  I   I168      1.0  0.03118  0.83601  0.42391  1.0000
  I   I169      1.0  0.41894  0.32651  0.49240  1.0000
  I   I170      1.0  0.37482  0.28865  0.52886  1.0000
  I   I171      1.0  0.73330  0.24823  0.24921  1.0000
  I   I172      1.0  0.23157  0.97283  0.80039  1.0000
  I   I173      1.0  0.08209  0.74948  0.84349  1.0000
  I   I174      1.0  0.28560  0.95064  0.76826  1.0000
  I   I175      1.0  0.80091  0.95792  0.41958  1.0000
  I   I176      1.0  0.35645  0.94370  0.23528  1.0000
  I   I177      1.0  0.64696  0.67641  0.04094  1.0000
  I   I178      1.0  0.31365  0.31645  0.09648  1.0000
  I   I179      1.0  0.03227  0.36537  0.94709  1.0000
  I   I180      1.0  0.02103  0.18961  0.84271  1.0000
  I   I181      1.0  0.22176  0.04878  0.49270  1.0000
  I   I182      1.0  0.54192  0.31538  0.90880  1.0000
  I   I183      1.0  0.10269  0.29424  0.00230  1.0000
  I   I184      1.0  0.56573  0.29981  0.19881  1.0000
  I   I185      1.0  0.49989  0.31468  0.40895  1.0000
  I   I186      1.0  0.12664  0.79288  0.13218  1.0000
  I   I187      1.0  0.32947  0.72309  0.90697  1.0000
  I   I188      1.0  0.63306  0.05329  0.72636  1.0000
  I   I189      1.0  0.07958  0.35822  0.04038  1.0000
  I   I190      1.0  0.36004  0.90037  0.46206  1.0000
  I   I191      1.0  0.43074  0.40916  0.97790  1.0000
  I   I192      1.0  0.85977  0.01640  0.30679  1.0000
  I   I193      1.0  0.10572  0.79207  0.85966  1.0000
  I   I194      1.0  0.43864  0.38720  0.86357  1.0000
  I   I195      1.0  0.35168  0.07278  0.20248  1.0000
  I   I196      1.0  0.10075  0.49246  0.62620  1.0000
  I   I197      1.0  0.62568  0.40484  0.55932  1.0000
  I   I198      1.0  0.89066  0.82898  0.27763  1.0000
  I   I199      1.0  0.68731  0.98772  0.64432  1.0000
  I   I200      1.0  0.37798  0.35622  0.25189  1.0000
  I   I201      1.0  0.47313  0.17179  0.13205  1.0000
  I   I202      1.0  0.84738  0.11197  0.98067  1.0000
  I   I203      1.0  0.75781  0.88994  0.77040  1.0000
  I   I204      1.0  0.89988  0.65414  0.55205  1.0000
  I   I205      1.0  0.77106  0.48776  0.77730  1.0000
  I   I206      1.0  0.01206  0.92143  0.90833  1.0000
  I   I207      1.0  0.64185  0.62397  0.78769  1.0000
  I   I208      1.0  0.51509  0.47570  0.90514  1.0000
  I   I209      1.0  0.22655  0.67273  0.51057  1.0000
  I   I210      1.0  0.63092  0.73427  0.08093  1.0000
  I   I211      1.0  0.77047  0.72737  0.90497  1.0000
  I   I212      1.0  0.90020  0.98370  0.69781  1.0000
  I   I213      1.0  0.74224  0.93317  0.69818  1.0000
  I   I214      1.0  0.69044  0.70868  0.36311  1.0000
  I   I215      1.0  0.20547  0.05652  0.12848  1.0000
  I   I216      1.0  0.99778  0.84504  0.31485  1.0000
  I   I217      1.0  0.41895  0.27866  0.45891  1.0000
  I   I218      1.0  0.53122  0.98429  0.16400  1.0000
  I   I219      1.0  0.79084  0.19670  0.25134  1.0000
  I   I220      1.0  0.37226  0.15302  0.68938  1.0000
  I   I221      1.0  0.06771  0.85106  0.79599  1.0000
  I   I222      1.0  0.25606  0.01443  0.77529  1.0000
  I   I223      1.0  0.81289  0.89764  0.41489  1.0000
  I   I224      1.0  0.35513  0.89722  0.05205  1.0000
  I   I225      1.0  0.24556  0.61596  0.01492  1.0000
  I   I226      1.0  0.37032  0.26218  0.06616  1.0000
  I   I227      1.0  0.11155  0.31930  0.79157  1.0000
  I   I228      1.0  0.05401  0.22111  0.85208  1.0000
  I   I229      1.0  0.27393  0.04314  0.56163  1.0000
  I   I230      1.0  0.90735  0.15448  0.29612  1.0000
  I   I231      1.0  0.71164  0.60840  0.17706  1.0000
  I   I232      1.0  0.95162  0.99131  0.90974  1.0000
  I   I233      1.0  0.51936  0.13769  0.67302  1.0000
  I   I234      1.0  0.12485  0.85057  0.09399  1.0000
  I   I235      1.0  0.03459  0.08161  0.76996  1.0000
  I   I236      1.0  0.03393  0.55086  0.14226  1.0000
  I   I237      1.0  0.31556  0.51716  0.26374  1.0000
  I   I238      1.0  0.41306  0.67125  0.99307  1.0000
  I   I239      1.0  0.92889  0.32551  0.01682  1.0000
  I   I240      1.0  0.89665  0.08223  0.16543  1.0000
  I   I241      1.0  0.15451  0.03772  0.11664  1.0000
  I   I242      1.0  0.05719  0.06773  0.98342  1.0000
  I   I243      1.0  0.33201  0.05229  0.29821  1.0000
  I   I244      1.0  0.57881  0.32676  0.27748  1.0000
  I   I245      1.0  0.39464  0.72683  0.27649  1.0000
  I   I246      1.0  0.81886  0.85077  0.23623  1.0000
  I   I247      1.0  0.65125  0.96214  0.50359  1.0000
  I   I248      1.0  0.23517  0.53253  0.52033  1.0000
  I   I249      1.0  0.45198  0.14283  0.22856  1.0000
  I   I250      1.0  0.78753  0.15106  0.03456  1.0000
  I   I251      1.0  0.13071  0.47010  0.84567  1.0000
  I   I252      1.0  0.87647  0.73570  0.57772  1.0000
  I   I253      1.0  0.79165  0.41453  0.75335  1.0000
  I   I254      1.0  0.00808  0.97230  0.84595  1.0000
  I   I255      1.0  0.60997  0.67237  0.74196  1.0000
  I   I256      1.0  0.88098  0.79678  0.04936  1.0000
  I   I257      1.0  0.27306  0.60735  0.55548  1.0000
  I   I258      1.0  0.38936  0.96234  0.57882  1.0000
  I   I259      1.0  0.78799  0.69977  0.99949  1.0000
  I   I260      1.0  0.46849  0.54291  0.36289  1.0000
  I   I261      1.0  0.18279  0.55918  0.57889  1.0000
  I   I262      1.0  0.66493  0.77281  0.37376  1.0000
  I   I263      1.0  0.18451  0.09214  0.36940  1.0000
  I   I264      1.0  0.03049  0.78338  0.34638  1.0000
  I   I265      1.0  0.38263  0.34166  0.41008  1.0000
  I   I266      1.0  0.76477  0.91826  0.84756  1.0000
  I   I267      1.0  0.78339  0.20137  0.14009  1.0000
  I   I268      1.0  0.36504  0.96511  0.92087  1.0000
  I   I269      1.0  0.13176  0.71655  0.78595  1.0000
  I   I270      1.0  0.24913  0.95370  0.69237  1.0000
  I   I271      1.0  0.86064  0.89858  0.46669  1.0000
  I   I272      1.0  0.40151  0.87202  0.11651  1.0000
  I   I273      1.0  0.29902  0.62281  0.97820  1.0000
  I   I274      1.0  0.58454  0.50408  0.72910  1.0000
  I   I275      1.0  0.06434  0.38360  0.87774  1.0000
  I   I276      1.0  0.97655  0.26799  0.88045  1.0000
  I   I277      1.0  0.29441  0.28757  0.04227  1.0000
  I   I278      1.0  0.89137  0.20725  0.22415  1.0000
  I   I279      1.0  0.17229  0.31266  0.11520  1.0000
  I   I280      1.0  0.56403  0.38278  0.22713  1.0000
  I   I281      1.0  0.53843  0.10527  0.57377  1.0000
  I   I282      1.0  0.06803  0.82510  0.07637  1.0000
  I   I283      1.0  0.07176  0.00934  0.82666  1.0000
  I   I284      1.0  0.98491  0.56080  0.05825  1.0000
  I   I285      1.0  0.09140  0.29921  0.11652  1.0000
  I   I286      1.0  0.41678  0.70715  0.08590  1.0000
  I   I287      1.0  0.72612  0.14594  0.56422  1.0000
  I   I288      1.0  0.92416  0.02387  0.23056  1.0000
  I   I289      1.0  0.11416  0.04110  0.02426  1.0000
  I   I290      1.0  0.38102  0.40574  0.93368  1.0000
  I   I291      1.0  0.00858  0.05147  0.90949  1.0000
  I   I292      1.0  0.52497  0.36393  0.20869  1.0000
  I   I293      1.0  0.39096  0.66487  0.29368  1.0000
  I   I294      1.0  0.91327  0.81512  0.75960  1.0000
  I   I295      1.0  0.59377  0.99207  0.53522  1.0000
  I   I296      1.0  0.34841  0.39005  0.13793  1.0000
  I   I297      1.0  0.40085  0.17179  0.17104  1.0000
  I   I298      1.0  0.59007  0.40268  0.47239  1.0000
  I   I299      1.0  0.50270  0.48673  0.80219  1.0000
  I   I300      1.0  0.92977  0.70069  0.61983  1.0000
  I   I301      1.0  0.65958  0.60406  0.65337  1.0000
  I   I302      1.0  0.77240  0.49308  0.86918  1.0000
  I   I303      1.0  0.53348  0.62448  0.59667  1.0000
  I   I304      1.0  0.47832  0.97647  0.60379  1.0000
  I   I305      1.0  0.48942  0.49757  0.69775  1.0000
  I   I306      1.0  0.62134  0.23662  0.90855  1.0000
  I   I307      1.0  0.43220  0.49285  0.34299  1.0000
  I   I308      1.0  0.93952  0.91554  0.68266  1.0000
  I   I309      1.0  0.13349  0.51296  0.56385  1.0000
  I   I310      1.0  0.06429  0.05309  0.88998  1.0000
  I   I311      1.0  0.15978  0.11924  0.14937  1.0000
  I   I312      1.0  0.70948  0.13430  0.65439  1.0000
  I   I313      1.0  0.76412  0.17627  0.22488  1.0000
  I   I314      1.0  0.44324  0.28473  0.56319  1.0000
  I   I315      1.0  0.49532  0.95190  0.17421  1.0000
  I   I316      1.0  0.20534  0.01284  0.71780  1.0000
  I   I317      1.0  0.38758  0.92429  0.83038  1.0000
  I   I318      1.0  0.15904  0.72828  0.86696  1.0000
  I   I319      1.0  0.69218  0.69108  0.10194  1.0000
  I   I320      1.0  0.07840  0.54977  0.65221  1.0000
  I   I321      1.0  0.31623  0.91850  0.24233  1.0000
  I   I322      1.0  0.64714  0.45934  0.68309  1.0000
  I   I323      1.0  0.02756  0.35438  0.80238  1.0000
  I   I324      1.0  0.02462  0.25066  0.94901  1.0000
  I   I325      1.0  0.24182  0.09600  0.52503  1.0000
  I   I326      1.0  0.56227  0.25348  0.91248  1.0000
  I   I327      1.0  0.14442  0.28048  0.16877  1.0000
  I   I328      1.0  0.51099  0.64056  0.49585  1.0000
  I   I329      1.0  0.53465  0.28060  0.30117  1.0000
  I   I330      1.0  0.08495  0.84942  0.17552  1.0000
  I   I331      1.0  0.16453  0.26027  0.03652  1.0000
  I   I332      1.0  0.63088  0.42973  0.45653  1.0000
  I   I333      1.0  0.57953  0.11705  0.65894  1.0000
  I   I334      1.0  0.91753  0.99230  0.30603  1.0000
  I   I335      1.0  0.34064  0.88145  0.53947  1.0000
  I   I336      1.0  0.91224  0.28860  0.12430  1.0000
  I   I337      1.0  0.17463  0.93282  0.22049  1.0000
  I   I338      1.0  0.40326  0.44976  0.88403  1.0000
  I   I339      1.0  0.02517  0.98656  0.94585  1.0000
  I   I340      1.0  0.96602  0.24904  0.41533  1.0000
  I   I341      1.0  0.47602  0.41717  0.08600  1.0000
  I   I342      1.0  0.93413  0.84192  0.84125  1.0000
  I   I343      1.0  0.61875  0.95530  0.64058  1.0000
  I   I344      1.0  0.31658  0.38233  0.23172  1.0000
  I   I345      1.0  0.45966  0.12361  0.04314  1.0000
  I   I346      1.0  0.78140  0.77447  0.93590  1.0000
  I   I347      1.0  0.79897  0.12593  0.91262  1.0000
  I   I348      1.0  0.90706  0.72718  0.71639  1.0000
  I   I349      1.0  0.60987  0.65799  0.64751  1.0000
  I   I350      1.0  0.74086  0.41382  0.81567  1.0000
  I   I351      1.0  0.97173  0.94575  0.81522  1.0000
  I   I352      1.0  0.43121  0.96584  0.64630  1.0000
  I   I353      1.0  0.94225  0.77759  0.98329  1.0000
  I   I354      1.0  0.58042  0.27572  0.00179  1.0000
  I   I355      1.0  0.41162  0.57020  0.32550  1.0000
  I   I356      1.0  0.43095  0.53329  0.42954  1.0000
  I   I357      1.0  0.79118  0.96940  0.87161  1.0000
  I   I358      1.0  0.06378  0.81228  0.30981  1.0000
  I   I359      1.0  0.21745  0.07524  0.24174  1.0000
  I   I360      1.0  0.76662  0.20156  0.67584  1.0000
  I   I361      1.0  0.74539  0.18191  0.36113  1.0000
  I   I362      1.0  0.38376  0.31679  0.60789  1.0000
  I   I363      1.0  0.72345  0.99694  0.89819  1.0000
  I   I364      1.0  0.30936  0.94192  0.65449  1.0000
  I   I365      1.0  0.41926  0.16897  0.71726  1.0000
  I   I366      1.0  0.12903  0.76766  0.76990  1.0000
  I   I367      1.0  0.66944  0.73276  0.01212  1.0000
  I   I368      1.0  0.89688  0.30954  0.44583  1.0000
  I   I369      1.0  0.37458  0.93409  0.08552  1.0000
  I   I370      1.0  0.64290  0.46718  0.79882  1.0000
  I   I371      1.0  0.06270  0.37056  0.75874  1.0000
  I   I372      1.0  0.93938  0.23947  0.87902  1.0000
  I   I373      1.0  0.21228  0.05091  0.60927  1.0000
  I   I374      1.0  0.88354  0.22559  0.34993  1.0000
  I   I375      1.0  0.11729  0.33383  0.13293  1.0000
  I   I376      1.0  0.61347  0.35581  0.31910  1.0000
  I   I377      1.0  0.48564  0.27703  0.34167  1.0000
  I   I378      1.0  0.12260  0.81314  0.03014  1.0000
  I   I379      1.0  0.34927  0.49259  0.35301  1.0000
  I   I380      1.0  0.29023  0.72937  0.82383  1.0000
  I   I381      1.0  0.03765  0.58362  0.04733  1.0000
  I   I382      1.0  0.86152  0.05526  0.21256  1.0000
  I   I383      1.0  0.39674  0.65864  0.10561  1.0000
  I   I384      1.0  0.74846  0.15441  0.72261  1.0000
