data_image0
_chemical_formula_structural       Ti96I384
_chemical_formula_sum              "Ti96 I384"
_cell_length_a       54.6804
_cell_length_b       54.9269
_cell_length_c       26.4957
_cell_angle_alpha    88.7757
_cell_angle_beta     88.7757
_cell_angle_gamma    62.1586

_space_group_name_H-M_alt    "P 1"
_space_group_IT_number       1

loop_
  _space_group_symop_operation_xyz
  'x, y, z'

loop_
  _atom_site_type_symbol
  _atom_site_label
  _atom_site_symmetry_multiplicity
  _atom_site_fract_x
  _atom_site_fract_y
  _atom_site_fract_z
  _atom_site_occupancy
  Ti  Ti1       1.0  0.66221  0.68186  0.23075  1.0000
  Ti  Ti2       1.0  0.85614  0.13674  0.27185  1.0000
  Ti  Ti3       1.0  0.55589  0.80628  0.22172  1.0000
  Ti  Ti4       1.0  0.26975  0.09359  0.62160  1.0000
  Ti  Ti5       1.0  0.99685  0.25484  0.35207  1.0000
  Ti  Ti6       1.0  0.17423  0.19622  0.85868  1.0000
  Ti  Ti7       1.0  0.97007  0.90381  0.36778  1.0000
  Ti  Ti8       1.0  0.04941  0.09274  0.64909  1.0000
  Ti  Ti9       1.0  0.90672  0.86487  0.77619  1.0000
  Ti  Ti10      1.0  0.45121  0.82518  0.08112  1.0000
  Ti  Ti11      1.0  0.03440  0.60048  0.05758  1.0000
  Ti  Ti12      1.0  0.92765  0.67567  0.27627  1.0000
  Ti  Ti13      1.0  0.38409  0.23320  0.48937  1.0000
  Ti  Ti14      1.0  0.28077  0.15992  0.34661  1.0000
  Ti  Ti15      1.0  0.27237  0.09540  0.04014  1.0000
  Ti  Ti16      1.0  0.16105  0.73526  0.85838  1.0000
  Ti  Ti17      1.0  0.23109  0.71614  0.11718  1.0000
  Ti  Ti18      1.0  0.15775  0.48780  0.05352  1.0000
  Ti  Ti19      1.0  0.64953  0.67414  0.57673  1.0000
  Ti  Ti20      1.0  0.79963  0.80913  0.85327  1.0000
  Ti  Ti21      1.0  0.25579  0.52224  0.47469  1.0000
  Ti  Ti22      1.0  0.52005  0.89937  0.52214  1.0000
  Ti  Ti23      1.0  0.76688  0.87110  0.43880  1.0000
  Ti  Ti24      1.0  0.42894  0.97757  0.64556  1.0000
  Ti  Ti25      1.0  0.33031  0.20913  0.91294  1.0000
  Ti  Ti26      1.0  0.24829  0.36596  0.84000  1.0000
  Ti  Ti27      1.0  0.40387  0.53936  0.80833  1.0000
  Ti  Ti28      1.0  0.50202  0.62335  0.87395  1.0000
  Ti  Ti29      1.0  0.65892  0.45059  0.77059  1.0000
  Ti  Ti30      1.0  0.78352  0.44727  0.63656  1.0000
  Ti  Ti31      1.0  0.77259  0.40593  0.15810  1.0000
  Ti  Ti32      1.0  0.79462  0.30333  0.57443  1.0000
  Ti  Ti33      1.0  0.96802  0.41699  0.97006  1.0000
  Ti  Ti34      1.0  0.01680  0.76742  0.01625  1.0000
  Ti  Ti35      1.0  0.70477  0.72633  0.98218  1.0000
  Ti  Ti36      1.0  0.91765  0.58735  0.76074  1.0000
  Ti  Ti37      1.0  0.60508  0.23770  0.24948  1.0000
  Ti  Ti38      1.0  0.46748  0.33150  0.35512  1.0000
  Ti  Ti39      1.0  0.54301  0.41402  0.03502  1.0000
  Ti  Ti40      1.0  0.13926  0.01431  0.24813  1.0000
  Ti  Ti41      1.0  0.68912  0.22658  0.55440  1.0000
  Ti  Ti42      1.0  0.34146  0.78397  0.62841  1.0000
  Ti  Ti43      1.0  0.82979  0.22137  0.96064  1.0000
  Ti  Ti44      1.0  0.95075  0.44984  0.48325  1.0000
  Ti  Ti45      1.0  0.02725  0.51327  0.46964  1.0000
  Ti  Ti46      1.0  0.66603  0.05929  0.38840  1.0000
  Ti  Ti47      1.0  0.61550  0.99657  0.12923  1.0000
  Ti  Ti48      1.0  0.42439  0.26734  0.80024  1.0000
  Ti  Ti49      1.0  0.62296  0.74620  0.30515  1.0000
  Ti  Ti50      1.0  0.83107  0.07553  0.20320  1.0000
  Ti  Ti51      1.0  0.95181  0.09142  0.25779  1.0000
  Ti  Ti52      1.0  0.24710  0.06828  0.49751  1.0000
  Ti  Ti53      1.0  0.01362  0.21573  0.24049  1.0000
  Ti  Ti54      1.0  0.08696  0.22794  0.85661  1.0000
  Ti  Ti55      1.0  0.00469  0.84771  0.33061  1.0000
  Ti  Ti56      1.0  0.00165  0.04969  0.61700  1.0000
  Ti  Ti57      1.0  0.90821  0.92147  0.68757  1.0000
  Ti  Ti58      1.0  0.40873  0.78463  0.14028  1.0000
  Ti  Ti59      1.0  0.46059  0.84724  0.92207  1.0000
  Ti  Ti60      1.0  0.94719  0.63072  0.12304  1.0000
  Ti  Ti61      1.0  0.25955  0.05964  0.15798  1.0000
  Ti  Ti62      1.0  0.39437  0.19161  0.39330  1.0000
  Ti  Ti63      1.0  0.36023  0.10522  0.30137  1.0000
  Ti  Ti64      1.0  0.18341  0.41205  0.12890  1.0000
  Ti  Ti65      1.0  0.20081  0.70865  0.99045  1.0000
  Ti  Ti66      1.0  0.13233  0.76066  0.61020  1.0000
  Ti  Ti67      1.0  0.60041  0.70669  0.66987  1.0000
  Ti  Ti68      1.0  0.75423  0.86578  0.98477  1.0000
  Ti  Ti69      1.0  0.22827  0.57614  0.54174  1.0000
  Ti  Ti70      1.0  0.49049  0.98184  0.56721  1.0000
  Ti  Ti71      1.0  0.84345  0.84210  0.36199  1.0000
  Ti  Ti72      1.0  0.74300  0.91765  0.60630  1.0000
  Ti  Ti73      1.0  0.34855  0.57266  0.87034  1.0000
  Ti  Ti74      1.0  0.27656  0.26886  0.83869  1.0000
  Ti  Ti75      1.0  0.20122  0.44073  0.76769  1.0000
  Ti  Ti76      1.0  0.77939  0.51476  0.70882  1.0000
  Ti  Ti77      1.0  0.49409  0.68744  0.81144  1.0000
  Ti  Ti78      1.0  0.71105  0.48084  0.75070  1.0000
  Ti  Ti79      1.0  0.90709  0.42933  0.03437  1.0000
  Ti  Ti80      1.0  0.82769  0.34835  0.12527  1.0000
  Ti  Ti81      1.0  0.78191  0.31058  0.68351  1.0000
  Ti  Ti82      1.0  0.92579  0.82753  0.04650  1.0000
  Ti  Ti83      1.0  0.66833  0.70201  0.92075  1.0000
  Ti  Ti84      1.0  0.86865  0.61798  0.68932  1.0000
  Ti  Ti85      1.0  0.64326  0.17066  0.15769  1.0000
  Ti  Ti86      1.0  0.53059  0.26630  0.34505  1.0000
  Ti  Ti87      1.0  0.49367  0.45465  0.09090  1.0000
  Ti  Ti88      1.0  0.15843  0.99001  0.39609  1.0000
  Ti  Ti89      1.0  0.68347  0.22871  0.72033  1.0000
  Ti  Ti90      1.0  0.28337  0.85364  0.67230  1.0000
  Ti  Ti91      1.0  0.07630  0.49468  0.57643  1.0000
  Ti  Ti92      1.0  0.75152  0.27144  0.92112  1.0000
  Ti  Ti93      1.0  0.98518  0.48030  0.37217  1.0000
  Ti  Ti94      1.0  0.49319  0.23832  0.76180  1.0000
  Ti  Ti95      1.0  0.71316  0.07714  0.43520  1.0000
  Ti  Ti96      1.0  0.57294  0.96277  0.06931  1.0000
  I   I1        1.0  0.79752  0.08655  0.12680  1.0000
  I   I2        1.0  0.85448  0.18438  0.25522  1.0000
  I   I3        1.0  0.63864  0.69433  0.33562  1.0000
  I   I4        1.0  0.03117  0.16564  0.24811  1.0000
  I   I5        1.0  0.06814  0.19998  0.90844  1.0000
  I   I6        1.0  0.12944  0.21116  0.92237  1.0000
  I   I7        1.0  0.95721  0.09550  0.62826  1.0000
  I   I8        1.0  0.10572  0.06739  0.63129  1.0000
  I   I9        1.0  0.89622  0.82837  0.73161  1.0000
  I   I10       1.0  0.49457  0.83762  0.06860  1.0000
  I   I11       1.0  0.99334  0.58529  0.08443  1.0000
  I   I12       1.0  0.38954  0.75628  0.08808  1.0000
  I   I13       1.0  0.37049  0.17407  0.45881  1.0000
  I   I14       1.0  0.37085  0.13696  0.23676  1.0000
  I   I15       1.0  0.29015  0.08708  0.15906  1.0000
  I   I16       1.0  0.15751  0.75967  0.95296  1.0000
  I   I17       1.0  0.18285  0.75116  0.61253  1.0000
  I   I18       1.0  0.23217  0.37184  0.11944  1.0000
  I   I19       1.0  0.70385  0.89762  0.01204  1.0000
  I   I20       1.0  0.24552  0.56231  0.40798  1.0000
  I   I21       1.0  0.20013  0.58103  0.62499  1.0000
  I   I22       1.0  0.86803  0.87231  0.33799  1.0000
  I   I23       1.0  0.82341  0.85891  0.45705  1.0000
  I   I24       1.0  0.48568  0.98488  0.67345  1.0000
  I   I25       1.0  0.26429  0.23122  0.89120  1.0000
  I   I26       1.0  0.23028  0.37294  0.74274  1.0000
  I   I27       1.0  0.40304  0.54826  0.90109  1.0000
  I   I28       1.0  0.52525  0.71116  0.79761  1.0000
  I   I29       1.0  0.70682  0.44389  0.82010  1.0000
  I   I30       1.0  0.82084  0.45355  0.70941  1.0000
  I   I31       1.0  0.71821  0.42049  0.14122  1.0000
  I   I32       1.0  0.82006  0.32258  0.65512  1.0000
  I   I33       1.0  0.95080  0.44282  0.07599  1.0000
  I   I34       1.0  0.72033  0.75925  0.92897  1.0000
  I   I35       1.0  0.92315  0.60177  0.66028  1.0000
  I   I36       1.0  0.88815  0.86899  0.99426  1.0000
  I   I37       1.0  0.59024  0.25342  0.34240  1.0000
  I   I38       1.0  0.43966  0.48221  0.08168  1.0000
  I   I39       1.0  0.69624  0.13079  0.17592  1.0000
  I   I40       1.0  0.72935  0.20670  0.77458  1.0000
  I   I41       1.0  0.26807  0.87066  0.76288  1.0000
  I   I42       1.0  0.12176  0.99915  0.46635  1.0000
  I   I43       1.0  0.75939  0.22193  0.95579  1.0000
  I   I44       1.0  0.93808  0.48525  0.39614  1.0000
  I   I45       1.0  0.01452  0.55319  0.39635  1.0000
  I   I46       1.0  0.62453  0.08941  0.32895  1.0000
  I   I47       1.0  0.66245  0.95300  0.10586  1.0000
  I   I48       1.0  0.44327  0.27406  0.70460  1.0000
  I   I49       1.0  0.64597  0.65617  0.15966  1.0000
  I   I50       1.0  0.82499  0.12848  0.19446  1.0000
  I   I51       1.0  0.98108  0.09629  0.33703  1.0000
  I   I52       1.0  0.19772  0.08818  0.46247  1.0000
  I   I53       1.0  0.05014  0.22413  0.29938  1.0000
  I   I54       1.0  0.06511  0.27729  0.90986  1.0000
  I   I55       1.0  0.97388  0.85286  0.42110  1.0000
  I   I56       1.0  0.99517  0.03739  0.52823  1.0000
  I   I57       1.0  0.90498  0.91718  0.80016  1.0000
  I   I58       1.0  0.43001  0.87298  0.02214  1.0000
  I   I59       1.0  0.45166  0.88709  0.86499  1.0000
  I   I60       1.0  0.90488  0.68584  0.17049  1.0000
  I   I61       1.0  0.43827  0.19047  0.48299  1.0000
  I   I62       1.0  0.43981  0.15224  0.35672  1.0000
  I   I63       1.0  0.24278  0.14721  0.36010  1.0000
  I   I64       1.0  0.17600  0.69365  0.79543  1.0000
  I   I65       1.0  0.24772  0.66024  0.99286  1.0000
  I   I66       1.0  0.10752  0.76963  0.52212  1.0000
  I   I67       1.0  0.56206  0.69301  0.64277  1.0000
  I   I68       1.0  0.79286  0.82936  0.76280  1.0000
  I   I69       1.0  0.23045  0.49442  0.44502  1.0000
  I   I70       1.0  0.49228  0.95430  0.46571  1.0000
  I   I71       1.0  0.76617  0.82366  0.41245  1.0000
  I   I72       1.0  0.73004  0.91237  0.70113  1.0000
  I   I73       1.0  0.45228  0.49692  0.80962  1.0000
  I   I74       1.0  0.29223  0.31151  0.81025  1.0000
  I   I75       1.0  0.22540  0.44845  0.69331  1.0000
  I   I76       1.0  0.52789  0.58466  0.94142  1.0000
  I   I77       1.0  0.53698  0.63776  0.79542  1.0000
  I   I78       1.0  0.73648  0.49363  0.67759  1.0000
  I   I79       1.0  0.87865  0.43845  0.11782  1.0000
  I   I80       1.0  0.84229  0.29611  0.11866  1.0000
  I   I81       1.0  0.83196  0.25594  0.61245  1.0000
  I   I82       1.0  0.05627  0.76742  0.95443  1.0000
  I   I83       1.0  0.74026  0.67495  0.95429  1.0000
  I   I84       1.0  0.87819  0.64442  0.76975  1.0000
  I   I85       1.0  0.63535  0.17335  0.25918  1.0000
  I   I86       1.0  0.48740  0.27800  0.28397  1.0000
  I   I87       1.0  0.50073  0.47230  0.17629  1.0000
  I   I88       1.0  0.08887  0.04866  0.20415  1.0000
  I   I89       1.0  0.64208  0.26995  0.53487  1.0000
  I   I90       1.0  0.33952  0.81546  0.70633  1.0000
  I   I91       1.0  0.04769  0.48704  0.64905  1.0000
  I   I92       1.0  0.82880  0.20929  0.86045  1.0000
  I   I93       1.0  0.03558  0.47674  0.38801  1.0000
  I   I94       1.0  0.53098  0.21032  0.82558  1.0000
  I   I95       1.0  0.72659  0.09251  0.51944  1.0000
  I   I96       1.0  0.51826  0.98809  0.05576  1.0000
  I   I97       1.0  0.51659  0.84306  0.27433  1.0000
  I   I98       1.0  0.70806  0.67345  0.17315  1.0000
  I   I99       1.0  0.90848  0.10706  0.20034  1.0000
  I   I100      1.0  0.27917  0.03215  0.42353  1.0000
  I   I101      1.0  0.22467  0.11026  0.67722  1.0000
  I   I102      1.0  0.95652  0.24273  0.35619  1.0000
  I   I103      1.0  0.98936  0.82171  0.26583  1.0000
  I   I104      1.0  0.02770  0.87747  0.38774  1.0000
  I   I105      1.0  0.93108  0.91469  0.59249  1.0000
  I   I106      1.0  0.95296  0.70563  0.25330  1.0000
  I   I107      1.0  0.47348  0.79748  0.98092  1.0000
  I   I108      1.0  0.91803  0.63645  0.04286  1.0000
  I   I109      1.0  0.29557  0.01799  0.21315  1.0000
  I   I110      1.0  0.39004  0.27336  0.52909  1.0000
  I   I111      1.0  0.27716  0.18541  0.43443  1.0000
  I   I112      1.0  0.20739  0.46231  0.03248  1.0000
  I   I113      1.0  0.17271  0.68249  0.96665  1.0000
  I   I114      1.0  0.28168  0.71733  0.13420  1.0000
  I   I115      1.0  0.61052  0.73272  0.57481  1.0000
  I   I116      1.0  0.60517  0.67794  0.75484  1.0000
  I   I117      1.0  0.74097  0.84808  0.89064  1.0000
  I   I118      1.0  0.47530  0.93392  0.59326  1.0000
  I   I119      1.0  0.50613  0.86906  0.47007  1.0000
  I   I120      1.0  0.76352  0.86745  0.56197  1.0000
  I   I121      1.0  0.41279  0.52858  0.69651  1.0000
  I   I122      1.0  0.31402  0.26363  0.91516  1.0000
  I   I123      1.0  0.27790  0.39084  0.79963  1.0000
  I   I124      1.0  0.79316  0.49058  0.60008  1.0000
  I   I125      1.0  0.51106  0.66507  0.92030  1.0000
  I   I126      1.0  0.68445  0.45467  0.68418  1.0000
  I   I127      1.0  0.89002  0.47815  0.98882  1.0000
  I   I128      1.0  0.83413  0.38138  0.19696  1.0000
  I   I129      1.0  0.75455  0.35898  0.59321  1.0000
  I   I130      1.0  0.90680  0.57879  0.85833  1.0000
  I   I131      1.0  0.97978  0.82649  0.00831  1.0000
  I   I132      1.0  0.66016  0.71634  0.82436  1.0000
  I   I133      1.0  0.51723  0.48353  0.04625  1.0000
  I   I134      1.0  0.55140  0.23156  0.26183  1.0000
  I   I135      1.0  0.44875  0.36250  0.27514  1.0000
  I   I136      1.0  0.39555  0.76722  0.61253  1.0000
  I   I137      1.0  0.19730  0.93763  0.41228  1.0000
  I   I138      1.0  0.67831  0.19122  0.51200  1.0000
  I   I139      1.0  0.08767  0.49999  0.45648  1.0000
  I   I140      1.0  0.72997  0.27284  0.83345  1.0000
  I   I141      1.0  0.00043  0.42909  0.42234  1.0000
  I   I142      1.0  0.41045  0.31634  0.83498  1.0000
  I   I143      1.0  0.70701  0.06621  0.32831  1.0000
  I   I144      1.0  0.60632  0.98155  0.01800  1.0000
  I   I145      1.0  0.56727  0.76835  0.31515  1.0000
  I   I146      1.0  0.81635  0.15233  0.33742  1.0000
  I   I147      1.0  0.55919  0.82044  0.12211  1.0000
  I   I148      1.0  0.25151  0.03450  0.56993  1.0000
  I   I149      1.0  0.97537  0.21470  0.18629  1.0000
  I   I150      1.0  0.15848  0.24697  0.83139  1.0000
  I   I151      1.0  0.94181  0.91145  0.29325  1.0000
  I   I152      1.0  0.05832  0.10634  0.73756  1.0000
  I   I153      1.0  0.93620  0.86747  0.69339  1.0000
  I   I154      1.0  0.42848  0.84967  0.16815  1.0000
  I   I155      1.0  0.07549  0.55362  0.07043  1.0000
  I   I156      1.0  0.98297  0.65725  0.10251  1.0000
  I   I157      1.0  0.26357  0.03319  0.07426  1.0000
  I   I158      1.0  0.30223  0.13704  0.25476  1.0000
  I   I159      1.0  0.26408  0.09237  0.94165  1.0000
  I   I160      1.0  0.12897  0.50250  0.97414  1.0000
  I   I161      1.0  0.18317  0.70993  0.08437  1.0000
  I   I162      1.0  0.12772  0.47128  0.13248  1.0000
  I   I163      1.0  0.63104  0.66112  0.49566  1.0000
  I   I164      1.0  0.80477  0.84996  0.91870  1.0000
  I   I165      1.0  0.30497  0.48596  0.42996  1.0000
  I   I166      1.0  0.54120  0.93710  0.57675  1.0000
  I   I167      1.0  0.77994  0.89073  0.35550  1.0000
  I   I168      1.0  0.38465  0.97448  0.62675  1.0000
  I   I169      1.0  0.33971  0.19847  0.00564  1.0000
  I   I170      1.0  0.23338  0.32535  0.88393  1.0000
  I   I171      1.0  0.41895  0.57814  0.78675  1.0000
  I   I172      1.0  0.81760  0.52975  0.68183  1.0000
  I   I173      1.0  0.66299  0.40344  0.73880  1.0000
  I   I174      1.0  0.76782  0.43038  0.73228  1.0000
  I   I175      1.0  0.78847  0.34970  0.19810  1.0000
  I   I176      1.0  0.75038  0.34436  0.75085  1.0000
  I   I177      1.0  0.97750  0.45271  0.92031  1.0000
  I   I178      1.0  0.97680  0.77202  0.08669  1.0000
  I   I179      1.0  0.67620  0.69753  0.02980  1.0000
  I   I180      1.0  0.92434  0.54088  0.72159  1.0000
  I   I181      1.0  0.65624  0.22569  0.27158  1.0000
  I   I182      1.0  0.51845  0.32508  0.33247  1.0000
  I   I183      1.0  0.56615  0.43036  0.96829  1.0000
  I   I184      1.0  0.16189  0.04616  0.22411  1.0000
  I   I185      1.0  0.72106  0.23620  0.49172  1.0000
  I   I186      1.0  0.22925  0.88480  0.62941  1.0000
  I   I187      1.0  0.78938  0.25434  0.02147  1.0000
  I   I188      1.0  0.97330  0.43817  0.56923  1.0000
  I   I189      1.0  0.97806  0.50306  0.47685  1.0000
  I   I190      1.0  0.64089  0.05489  0.46681  1.0000
  I   I191      1.0  0.62695  0.99207  0.22825  1.0000
  I   I192      1.0  0.43058  0.24010  0.88696  1.0000
  I   I193      1.0  0.67558  0.63594  0.28280  1.0000
  I   I194      1.0  0.85556  0.07940  0.29240  1.0000
  I   I195      1.0  0.59463  0.81417  0.27005  1.0000
  I   I196      1.0  0.27794  0.13821  0.62344  1.0000
  I   I197      1.0  0.01812  0.22572  0.43490  1.0000
  I   I198      1.0  0.21383  0.19112  0.91590  1.0000
  I   I199      1.0  0.93067  0.92676  0.44091  1.0000
  I   I200      1.0  0.01604  0.00123  0.65459  1.0000
  I   I201      1.0  0.87134  0.87006  0.84905  1.0000
  I   I202      1.0  0.40409  0.81801  0.05649  1.0000
  I   I203      1.0  0.01831  0.60522  0.96413  1.0000
  I   I204      1.0  0.95833  0.64572  0.35385  1.0000
  I   I205      1.0  0.36702  0.23074  0.57928  1.0000
  I   I206      1.0  0.25998  0.20743  0.30061  1.0000
  I   I207      1.0  0.26724  0.14639  0.02716  1.0000
  I   I208      1.0  0.10880  0.75682  0.84543  1.0000
  I   I209      1.0  0.24200  0.66798  0.15046  1.0000
  I   I210      1.0  0.15808  0.52432  0.10896  1.0000
  I   I211      1.0  0.69970  0.66389  0.54570  1.0000
  I   I212      1.0  0.78153  0.77495  0.85069  1.0000
  I   I213      1.0  0.26434  0.51006  0.57446  1.0000
  I   I214      1.0  0.53419  0.86492  0.60273  1.0000
  I   I215      1.0  0.71226  0.90652  0.44934  1.0000
  I   I216      1.0  0.43890  0.95599  0.73615  1.0000
  I   I217      1.0  0.33052  0.16160  0.89138  1.0000
  I   I218      1.0  0.26443  0.37274  0.92787  1.0000
  I   I219      1.0  0.32935  0.61637  0.93273  1.0000
  I   I220      1.0  0.45439  0.63592  0.92399  1.0000
  I   I221      1.0  0.63268  0.45690  0.85489  1.0000
  I   I222      1.0  0.75726  0.44928  0.55761  1.0000
  I   I223      1.0  0.78216  0.44762  0.13730  1.0000
  I   I224      1.0  0.78404  0.28649  0.48473  1.0000
  I   I225      1.0  0.01617  0.37833  0.95288  1.0000
  I   I226      1.0  0.00332  0.73551  0.96461  1.0000
  I   I227      1.0  0.71472  0.73934  0.06899  1.0000
  I   I228      1.0  0.85852  0.59512  0.60855  1.0000
  I   I229      1.0  0.61328  0.23048  0.14357  1.0000
  I   I230      1.0  0.45247  0.37060  0.42547  1.0000
  I   I231      1.0  0.50075  0.40604  0.12930  1.0000
  I   I232      1.0  0.14136  0.98264  0.17840  1.0000
  I   I233      1.0  0.65593  0.21671  0.78714  1.0000
  I   I234      1.0  0.29087  0.89432  0.63042  1.0000
  I   I235      1.0  0.84738  0.17502  0.01104  1.0000
  I   I236      1.0  0.89905  0.48593  0.50579  1.0000
  I   I237      1.0  0.05475  0.46325  0.51807  1.0000
  I   I238      1.0  0.67075  0.01676  0.34206  1.0000
  I   I239      1.0  0.61225  0.04365  0.11573  1.0000
  I   I240      1.0  0.37266  0.28728  0.76059  1.0000
  I   I241      1.0  0.62245  0.73252  0.20004  1.0000
  I   I242      1.0  0.90599  0.10773  0.33353  1.0000
  I   I243      1.0  0.55477  0.76366  0.17368  1.0000
  I   I244      1.0  0.22722  0.12308  0.54437  1.0000
  I   I245      1.0  0.98109  0.27788  0.25319  1.0000
  I   I246      1.0  0.20091  0.16893  0.78109  1.0000
  I   I247      1.0  0.98044  0.94610  0.37164  1.0000
  I   I248      1.0  0.04080  0.06470  0.56775  1.0000
  I   I249      1.0  0.94804  0.83152  0.82705  1.0000
  I   I250      1.0  0.46540  0.77609  0.13160  1.0000
  I   I251      1.0  0.06269  0.62748  0.05386  1.0000
  I   I252      1.0  0.88520  0.70633  0.33177  1.0000
  I   I253      1.0  0.33655  0.25565  0.44529  1.0000
  I   I254      1.0  0.39882  0.10246  0.36155  1.0000
  I   I255      1.0  0.32427  0.06179  0.02767  1.0000
  I   I256      1.0  0.17144  0.77077  0.80853  1.0000
  I   I257      1.0  0.20548  0.74844  0.18883  1.0000
  I   I258      1.0  0.16198  0.43011  0.02630  1.0000
  I   I259      1.0  0.65411  0.69855  0.67895  1.0000
  I   I260      1.0  0.76751  0.90072  0.02848  1.0000
  I   I261      1.0  0.28243  0.56296  0.53001  1.0000
  I   I262      1.0  0.56281  0.88922  0.46956  1.0000
  I   I263      1.0  0.75917  0.92136  0.50122  1.0000
  I   I264      1.0  0.40001  0.02839  0.68957  1.0000
  I   I265      1.0  0.38406  0.18922  0.89057  1.0000
  I   I266      1.0  0.19243  0.42023  0.85593  1.0000
  I   I267      1.0  0.36458  0.52123  0.82086  1.0000
  I   I268      1.0  0.45007  0.72568  0.86521  1.0000
  I   I269      1.0  0.60732  0.48438  0.74635  1.0000
  I   I270      1.0  0.82803  0.40353  0.61803  1.0000
  I   I271      1.0  0.75478  0.43629  0.24207  1.0000
  I   I272      1.0  0.81691  0.32272  0.50073  1.0000
  I   I273      1.0  0.94564  0.40359  0.89587  1.0000
  I   I274      1.0  0.05291  0.74383  0.08570  1.0000
  I   I275      1.0  0.65563  0.75683  0.94118  1.0000
  I   I276      1.0  0.97266  0.56466  0.77579  1.0000
  I   I277      1.0  0.58847  0.28908  0.21972  1.0000
  I   I278      1.0  0.42858  0.32104  0.39817  1.0000
  I   I279      1.0  0.56544  0.36064  0.01268  1.0000
  I   I280      1.0  0.11274  0.00779  0.33088  1.0000
  I   I281      1.0  0.65927  0.21838  0.63477  1.0000
  I   I282      1.0  0.34004  0.73859  0.65611  1.0000
  I   I283      1.0  0.79000  0.28478  0.89989  1.0000
  I   I284      1.0  0.94506  0.40262  0.47089  1.0000
  I   I285      1.0  0.01129  0.55242  0.53148  1.0000
  I   I286      1.0  0.71723  0.02927  0.46355  1.0000
  I   I287      1.0  0.56466  0.00517  0.15073  1.0000
  I   I288      1.0  0.45332  0.21405  0.76979  1.0000
  I   I289      1.0  0.67628  0.72919  0.27434  1.0000
  I   I290      1.0  0.87700  0.05554  0.14571  1.0000
  I   I291      1.0  0.96935  0.11127  0.17913  1.0000
  I   I292      1.0  0.30031  0.05186  0.67742  1.0000
  I   I293      1.0  0.03801  0.22252  0.16426  1.0000
  I   I294      1.0  0.05139  0.23934  0.78468  1.0000
  I   I295      1.0  0.02188  0.87288  0.25735  1.0000
  I   I296      1.0  0.02398  0.06009  0.70917  1.0000
  I   I297      1.0  0.90175  0.97154  0.68252  1.0000
  I   I298      1.0  0.41102  0.75740  0.22165  1.0000
  I   I299      1.0  0.42147  0.84193  0.88310  1.0000
  I   I300      1.0  0.96572  0.62708  0.22478  1.0000
  I   I301      1.0  0.22530  0.11283  0.09536  1.0000
  I   I302      1.0  0.40799  0.23345  0.39096  1.0000
  I   I303      1.0  0.32717  0.11168  0.38897  1.0000
  I   I304      1.0  0.19699  0.42727  0.20970  1.0000
  I   I305      1.0  0.21745  0.74784  0.03564  1.0000
  I   I306      1.0  0.10709  0.79502  0.68213  1.0000
  I   I307      1.0  0.65532  0.63072  0.63331  1.0000
  I   I308      1.0  0.85126  0.77077  0.84997  1.0000
  I   I309      1.0  0.19714  0.55136  0.49926  1.0000
  I   I310      1.0  0.49996  0.02325  0.53995  1.0000
  I   I311      1.0  0.88474  0.79580  0.36511  1.0000
  I   I312      1.0  0.69365  0.94892  0.57970  1.0000
  I   I313      1.0  0.30096  0.56816  0.88744  1.0000
  I   I314      1.0  0.23830  0.27683  0.76923  1.0000
  I   I315      1.0  0.18575  0.48933  0.81221  1.0000
  I   I316      1.0  0.79583  0.51064  0.80616  1.0000
  I   I317      1.0  0.47184  0.68904  0.72748  1.0000
  I   I318      1.0  0.72402  0.50524  0.81766  1.0000
  I   I319      1.0  0.88606  0.40301  0.98593  1.0000
  I   I320      1.0  0.86906  0.34379  0.06585  1.0000
  I   I321      1.0  0.74539  0.30279  0.62842  1.0000
  I   I322      1.0  0.89979  0.79794  0.05895  1.0000
  I   I323      1.0  0.61838  0.70941  0.93384  1.0000
  I   I324      1.0  0.83074  0.61792  0.75236  1.0000
  I   I325      1.0  0.61454  0.14846  0.12061  1.0000
  I   I326      1.0  0.50385  0.28497  0.43862  1.0000
  I   I327      1.0  0.57788  0.40236  0.11299  1.0000
  I   I328      1.0  0.18430  0.01332  0.43637  1.0000
  I   I329      1.0  0.72066  0.22317  0.64378  1.0000
  I   I330      1.0  0.31189  0.82618  0.56330  1.0000
  I   I331      1.0  0.09554  0.52584  0.61219  1.0000
  I   I332      1.0  0.87350  0.22665  0.96500  1.0000
  I   I333      1.0  0.95956  0.52955  0.32463  1.0000
  I   I334      1.0  0.50381  0.28000  0.75167  1.0000
  I   I335      1.0  0.66005  0.11494  0.44793  1.0000
  I   I336      1.0  0.60033  0.92331  0.14028  1.0000
  I   I337      1.0  0.63596  0.75140  0.39887  1.0000
  I   I338      1.0  0.82985  0.02814  0.22350  1.0000
  I   I339      1.0  0.97592  0.03854  0.24807  1.0000
  I   I340      1.0  0.29571  0.06960  0.52998  1.0000
  I   I341      1.0  0.98802  0.29980  0.40285  1.0000
  I   I342      1.0  0.13523  0.18133  0.80256  1.0000
  I   I343      1.0  0.04743  0.80356  0.37155  1.0000
  I   I344      1.0  0.01331  0.13819  0.60604  1.0000
  I   I345      1.0  0.85613  0.94444  0.65914  1.0000
  I   I346      1.0  0.36463  0.83190  0.17281  1.0000
  I   I347      1.0  0.51810  0.81821  0.90588  1.0000
  I   I348      1.0  0.93297  0.59447  0.16113  1.0000
  I   I349      1.0  0.21711  0.08082  0.22097  1.0000
  I   I350      1.0  0.36053  0.20647  0.31981  1.0000
  I   I351      1.0  0.37953  0.05883  0.26208  1.0000
  I   I352      1.0  0.14911  0.39459  0.16136  1.0000
  I   I353      1.0  0.22018  0.70673  0.88822  1.0000
  I   I354      1.0  0.13449  0.71351  0.63347  1.0000
  I   I355      1.0  0.58128  0.75545  0.70422  1.0000
  I   I356      1.0  0.77546  0.82274  0.04141  1.0000
  I   I357      1.0  0.19890  0.62666  0.50319  1.0000
  I   I358      1.0  0.43898  0.00890  0.56309  1.0000
  I   I359      1.0  0.81610  0.83730  0.27624  1.0000
  I   I360      1.0  0.76020  0.95532  0.61894  1.0000
  I   I361      1.0  0.34022  0.59110  0.76659  1.0000
  I   I362      1.0  0.32230  0.23321  0.79171  1.0000
  I   I363      1.0  0.15959  0.44280  0.72142  1.0000
  I   I364      1.0  0.73740  0.56626  0.71050  1.0000
  I   I365      1.0  0.49516  0.59706  0.80618  1.0000
  I   I366      1.0  0.65702  0.51453  0.75691  1.0000
  I   I367      1.0  0.95781  0.38572  0.03658  1.0000
  I   I368      1.0  0.78982  0.38467  0.06578  1.0000
  I   I369      1.0  0.80438  0.26864  0.74789  1.0000
  I   I370      1.0  0.92441  0.84648  0.13601  1.0000
  I   I371      1.0  0.69207  0.64866  0.89577  1.0000
  I   I372      1.0  0.83435  0.66074  0.63739  1.0000
  I   I373      1.0  0.67167  0.17971  0.08427  1.0000
  I   I374      1.0  0.55991  0.22356  0.40747  1.0000
  I   I375      1.0  0.48735  0.42883  0.00325  1.0000
  I   I376      1.0  0.18961  0.97918  0.29447  1.0000
  I   I377      1.0  0.67064  0.28123  0.72346  1.0000
  I   I378      1.0  0.28516  0.80276  0.66182  1.0000
  I   I379      1.0  0.11774  0.44569  0.58692  1.0000
  I   I380      1.0  0.71565  0.30891  0.97132  1.0000
  I   I381      1.0  0.99637  0.45281  0.28324  1.0000
  I   I382      1.0  0.51716  0.21178  0.68572  1.0000
  I   I383      1.0  0.73278  0.10432  0.37469  1.0000
  I   I384      1.0  0.57557  0.92234  0.01611  1.0000
