data_image0
_chemical_formula_structural       Ti96I384
_chemical_formula_sum              "Ti96 I384"
_cell_length_a       69.2117
_cell_length_b       69.0297
_cell_length_c       33.8352
_cell_angle_alpha    88.7757
_cell_angle_beta     88.7757
_cell_angle_gamma    62.1586

_space_group_name_H-M_alt    "P 1"
_space_group_IT_number       1

loop_
  _space_group_symop_operation_xyz
  'x, y, z'

loop_
  _atom_site_type_symbol
  _atom_site_label
  _atom_site_symmetry_multiplicity
  _atom_site_fract_x
  _atom_site_fract_y
  _atom_site_fract_z
  _atom_site_occupancy
  Ti  Ti1       1.0  0.07880  0.87737  0.73531  1.0000
  Ti  Ti2       1.0  0.01555  0.14574  0.30827  1.0000
  Ti  Ti3       1.0  0.45263  0.96542  0.57901  1.0000
  Ti  Ti4       1.0  0.94844  0.37914  0.43743  1.0000
  Ti  Ti5       1.0  0.31041  0.72928  0.21964  1.0000
  Ti  Ti6       1.0  0.65817  0.96805  0.13811  1.0000
  Ti  Ti7       1.0  0.96322  0.52290  0.61496  1.0000
  Ti  Ti8       1.0  0.24880  0.67259  0.41688  1.0000
  Ti  Ti9       1.0  0.29502  0.04433  0.73529  1.0000
  Ti  Ti10      1.0  0.09434  0.55446  0.62028  1.0000
  Ti  Ti11      1.0  0.20891  0.36484  0.51767  1.0000
  Ti  Ti12      1.0  0.06048  0.59108  0.06026  1.0000
  Ti  Ti13      1.0  0.83980  0.18898  0.61857  1.0000
  Ti  Ti14      1.0  0.87551  0.03882  0.65750  1.0000
  Ti  Ti15      1.0  0.80453  0.90995  0.49302  1.0000
  Ti  Ti16      1.0  0.09312  0.58823  0.50766  1.0000
  Ti  Ti17      1.0  0.30471  0.98158  0.54817  1.0000
  Ti  Ti18      1.0  0.51200  0.81327  0.70349  1.0000
  Ti  Ti19      1.0  0.53986  0.62650  0.59102  1.0000
  Ti  Ti20      1.0  0.32931  0.17516  0.59460  1.0000
  Ti  Ti21      1.0  0.26292  0.62943  0.43959  1.0000
  Ti  Ti22      1.0  0.61063  0.89642  0.40585  1.0000
  Ti  Ti23      1.0  0.37068  0.13852  0.38729  1.0000
  Ti  Ti24      1.0  0.32130  0.68251  0.62588  1.0000
  Ti  Ti25      1.0  0.47053  0.98112  0.23334  1.0000
  Ti  Ti26      1.0  0.21985  0.83144  0.99542  1.0000
  Ti  Ti27      1.0  0.75751  0.19923  0.91057  1.0000
  Ti  Ti28      1.0  0.61552  0.71800  0.01265  1.0000
  Ti  Ti29      1.0  0.06167  0.76854  0.41897  1.0000
  Ti  Ti30      1.0  0.39741  0.91472  0.83842  1.0000
  Ti  Ti31      1.0  0.17806  0.39458  0.07876  1.0000
  Ti  Ti32      1.0  0.13050  0.14714  0.68349  1.0000
  Ti  Ti33      1.0  0.20898  0.88156  0.54024  1.0000
  Ti  Ti34      1.0  0.38121  0.31025  0.22948  1.0000
  Ti  Ti35      1.0  0.68106  0.55540  0.59202  1.0000
  Ti  Ti36      1.0  0.15696  0.13731  0.18381  1.0000
  Ti  Ti37      1.0  0.06249  0.27455  0.49964  1.0000
  Ti  Ti38      1.0  0.37174  0.54371  0.22042  1.0000
  Ti  Ti39      1.0  0.08242  0.47767  0.27519  1.0000
  Ti  Ti40      1.0  0.09977  0.45467  0.73155  1.0000
  Ti  Ti41      1.0  0.37172  0.31499  0.51116  1.0000
  Ti  Ti42      1.0  0.18684  0.95397  0.61107  1.0000
  Ti  Ti43      1.0  0.31345  0.96096  0.15019  1.0000
  Ti  Ti44      1.0  0.70685  0.82185  0.17987  1.0000
  Ti  Ti45      1.0  0.19487  0.41161  0.28341  1.0000
  Ti  Ti46      1.0  0.85242  0.37371  0.39055  1.0000
  Ti  Ti47      1.0  0.39432  0.58002  0.61053  1.0000
  Ti  Ti48      1.0  0.83604  0.01246  0.33916  1.0000
  Ti  Ti49      1.0  0.00559  0.12854  0.45656  1.0000
  Ti  Ti50      1.0  0.13112  0.32685  0.99786  1.0000
  Ti  Ti51      1.0  0.02961  0.19052  0.26012  1.0000
  Ti  Ti52      1.0  0.70311  0.15330  0.68406  1.0000
  Ti  Ti53      1.0  0.36892  0.75117  0.46152  1.0000
  Ti  Ti54      1.0  0.82481  0.95412  0.01623  1.0000
  Ti  Ti55      1.0  0.01067  0.53435  0.52558  1.0000
  Ti  Ti56      1.0  0.74235  0.32722  0.07303  1.0000
  Ti  Ti57      1.0  0.33161  0.06176  0.68478  1.0000
  Ti  Ti58      1.0  0.61351  0.33355  0.66336  1.0000
  Ti  Ti59      1.0  0.55852  0.30572  0.85017  1.0000
  Ti  Ti60      1.0  0.01044  0.63242  0.03519  1.0000
  Ti  Ti61      1.0  0.79631  0.84812  0.51331  1.0000
  Ti  Ti62      1.0  0.81303  0.18714  0.51780  1.0000
  Ti  Ti63      1.0  0.92805  0.01620  0.68909  1.0000
  Ti  Ti64      1.0  0.54940  0.77528  0.76855  1.0000
  Ti  Ti65      1.0  0.79804  0.00917  0.81613  1.0000
  Ti  Ti66      1.0  0.38847  0.22172  0.84624  1.0000
  Ti  Ti67      1.0  0.50308  0.87550  0.36143  1.0000
  Ti  Ti68      1.0  0.55075  0.64607  0.71267  1.0000
  Ti  Ti69      1.0  0.17717  0.85783  0.95373  1.0000
  Ti  Ti70      1.0  0.33976  0.93614  0.20108  1.0000
  Ti  Ti71      1.0  0.31609  0.16106  0.33412  1.0000
  Ti  Ti72      1.0  0.38345  0.45315  0.68838  1.0000
  Ti  Ti73      1.0  0.79670  0.13356  0.94929  1.0000
  Ti  Ti74      1.0  0.52938  0.99275  0.28648  1.0000
  Ti  Ti75      1.0  0.31003  0.80121  0.88729  1.0000
  Ti  Ti76      1.0  0.39952  0.85395  0.81899  1.0000
  Ti  Ti77      1.0  0.62413  0.74164  0.11114  1.0000
  Ti  Ti78      1.0  0.07300  0.71222  0.48540  1.0000
  Ti  Ti79      1.0  0.61268  0.60853  0.26434  1.0000
  Ti  Ti80      1.0  0.94860  0.34970  0.37562  1.0000
  Ti  Ti81      1.0  0.07588  0.16601  0.69087  1.0000
  Ti  Ti82      1.0  0.45606  0.23865  0.30714  1.0000
  Ti  Ti83      1.0  0.72208  0.57357  0.63610  1.0000
  Ti  Ti84      1.0  0.15058  0.14405  0.08682  1.0000
  Ti  Ti85      1.0  0.07303  0.22269  0.49692  1.0000
  Ti  Ti86      1.0  0.41002  0.21646  0.96713  1.0000
  Ti  Ti87      1.0  0.17411  0.48563  0.28519  1.0000
  Ti  Ti88      1.0  0.61174  0.15921  0.21952  1.0000
  Ti  Ti89      1.0  0.35011  0.36970  0.45771  1.0000
  Ti  Ti90      1.0  0.15768  0.00463  0.54410  1.0000
  Ti  Ti91      1.0  0.19253  0.64955  0.77097  1.0000
  Ti  Ti92      1.0  0.34779  0.68949  0.98492  1.0000
  Ti  Ti93      1.0  0.12688  0.75849  0.09884  1.0000
  Ti  Ti94      1.0  0.78669  0.99579  0.30395  1.0000
  Ti  Ti95      1.0  0.73338  0.43804  0.60915  1.0000
  Ti  Ti96      1.0  0.40437  0.54956  0.71508  1.0000
  I   I1        1.0  0.39513  0.61562  0.63065  1.0000
  I   I2        1.0  0.04244  0.14924  0.24015  1.0000
  I   I3        1.0  0.96665  0.14768  0.49461  1.0000
  I   I4        1.0  0.36963  0.77844  0.40605  1.0000
  I   I5        1.0  0.66974  0.92799  0.11604  1.0000
  I   I6        1.0  0.84665  0.92456  0.96631  1.0000
  I   I7        1.0  0.21310  0.66542  0.42600  1.0000
  I   I8        1.0  0.74495  0.28999  0.06269  1.0000
  I   I9        1.0  0.33123  0.06649  0.60886  1.0000
  I   I10       1.0  0.13690  0.56582  0.51082  1.0000
  I   I11       1.0  0.21845  0.33637  0.57388  1.0000
  I   I12       1.0  0.35322  0.70687  0.23591  1.0000
  I   I13       1.0  0.87949  0.16304  0.59213  1.0000
  I   I14       1.0  0.89724  0.06029  0.67158  1.0000
  I   I15       1.0  0.83953  0.91189  0.46446  1.0000
  I   I16       1.0  0.08263  0.58670  0.43823  1.0000
  I   I17       1.0  0.37072  0.21861  0.93600  1.0000
  I   I18       1.0  0.50083  0.81129  0.78534  1.0000
  I   I19       1.0  0.36262  0.13597  0.56955  1.0000
  I   I20       1.0  0.17633  0.40550  0.53752  1.0000
  I   I21       1.0  0.29215  0.65672  0.43622  1.0000
  I   I22       1.0  0.39532  0.10810  0.43472  1.0000
  I   I23       1.0  0.32644  0.19184  0.31425  1.0000
  I   I24       1.0  0.37547  0.93657  0.17003  1.0000
  I   I25       1.0  0.51084  0.03202  0.25485  1.0000
  I   I26       1.0  0.34792  0.77099  0.87700  1.0000
  I   I27       1.0  0.79107  0.16355  0.88116  1.0000
  I   I28       1.0  0.63872  0.69879  0.95302  1.0000
  I   I29       1.0  0.06828  0.72425  0.40871  1.0000
  I   I30       1.0  0.35898  0.94990  0.83901  1.0000
  I   I31       1.0  0.96496  0.37492  0.34072  1.0000
  I   I32       1.0  0.10551  0.15078  0.61452  1.0000
  I   I33       1.0  0.62879  0.63237  0.28952  1.0000
  I   I34       1.0  0.66025  0.52784  0.61038  1.0000
  I   I35       1.0  0.18390  0.10796  0.11914  1.0000
  I   I36       1.0  0.36049  0.32300  0.16531  1.0000
  I   I37       1.0  0.04099  0.25983  0.44518  1.0000
  I   I38       1.0  0.11643  0.43994  0.25098  1.0000
  I   I39       1.0  0.06492  0.24321  0.56421  1.0000
  I   I40       1.0  0.41476  0.30485  0.53672  1.0000
  I   I41       1.0  0.21591  0.91234  0.59643  1.0000
  I   I42       1.0  0.09164  0.44697  0.80309  1.0000
  I   I43       1.0  0.60212  0.37202  0.64419  1.0000
  I   I44       1.0  0.74509  0.80926  0.15744  1.0000
  I   I45       1.0  0.20610  0.44629  0.24520  1.0000
  I   I46       1.0  0.74761  0.39620  0.61705  1.0000
  I   I47       1.0  0.36220  0.59764  0.55757  1.0000
  I   I48       1.0  0.81278  0.05214  0.36228  1.0000
  I   I49       1.0  0.00928  0.09174  0.43337  1.0000
  I   I50       1.0  0.00959  0.21459  0.20306  1.0000
  I   I51       1.0  0.05813  0.20773  0.28343  1.0000
  I   I52       1.0  0.91339  0.38074  0.39830  1.0000
  I   I53       1.0  0.38043  0.71423  0.43337  1.0000
  I   I54       1.0  0.84313  0.95748  0.08660  1.0000
  I   I55       1.0  0.95655  0.53592  0.53881  1.0000
  I   I56       1.0  0.29970  0.58963  0.43743  1.0000
  I   I57       1.0  0.28440  0.01445  0.77765  1.0000
  I   I58       1.0  0.11765  0.57341  0.65441  1.0000
  I   I59       1.0  0.53541  0.33894  0.80369  1.0000
  I   I60       1.0  0.00302  0.66958  0.06630  1.0000
  I   I61       1.0  0.79931  0.22471  0.47089  1.0000
  I   I62       1.0  0.85771  0.21648  0.62119  1.0000
  I   I63       1.0  0.95326  0.03419  0.68503  1.0000
  I   I64       1.0  0.12074  0.51844  0.65498  1.0000
  I   I65       1.0  0.81776  0.02071  0.76501  1.0000
  I   I66       1.0  0.34845  0.22624  0.84912  1.0000
  I   I67       1.0  0.53070  0.59478  0.60001  1.0000
  I   I68       1.0  0.28981  0.19038  0.56897  1.0000
  I   I69       1.0  0.13704  0.86765  0.92922  1.0000
  I   I70       1.0  0.35259  0.93603  0.27289  1.0000
  I   I71       1.0  0.38726  0.16638  0.42072  1.0000
  I   I72       1.0  0.39299  0.41618  0.65546  1.0000
  I   I73       1.0  0.80518  0.09664  0.90995  1.0000
  I   I74       1.0  0.23456  0.79437  0.03872  1.0000
  I   I75       1.0  0.23466  0.85093  0.94312  1.0000
  I   I76       1.0  0.64215  0.69687  0.07925  1.0000
  I   I77       1.0  0.59063  0.73411  0.13740  1.0000
  I   I78       1.0  0.11006  0.88309  0.77554  1.0000
  I   I79       1.0  0.21415  0.90331  0.47825  1.0000
  I   I80       1.0  0.13754  0.41340  0.09235  1.0000
  I   I81       1.0  0.15525  0.10591  0.69403  1.0000
  I   I82       1.0  0.46490  0.21543  0.24069  1.0000
  I   I83       1.0  0.75160  0.55840  0.69042  1.0000
  I   I84       1.0  0.20286  0.12420  0.20172  1.0000
  I   I85       1.0  0.09952  0.24285  0.47242  1.0000
  I   I86       1.0  0.40416  0.20438  0.04073  1.0000
  I   I87       1.0  0.07944  0.47889  0.34861  1.0000
  I   I88       1.0  0.10050  0.49250  0.74444  1.0000
  I   I89       1.0  0.31225  0.39424  0.42197  1.0000
  I   I90       1.0  0.17741  0.02283  0.50403  1.0000
  I   I91       1.0  0.22812  0.65219  0.74476  1.0000
  I   I92       1.0  0.38621  0.67019  0.02498  1.0000
  I   I93       1.0  0.70301  0.83897  0.25100  1.0000
  I   I94       1.0  0.74510  0.02549  0.32784  1.0000
  I   I95       1.0  0.87985  0.34254  0.43949  1.0000
  I   I96       1.0  0.38283  0.54035  0.76891  1.0000
  I   I97       1.0  0.48309  0.94637  0.63043  1.0000
  I   I98       1.0  0.06091  0.90673  0.67797  1.0000
  I   I99       1.0  0.00651  0.14452  0.38579  1.0000
  I   I100      1.0  0.92835  0.38514  0.50897  1.0000
  I   I101      1.0  0.66397  0.16148  0.68149  1.0000
  I   I102      1.0  0.30541  0.69813  0.19178  1.0000
  I   I103      1.0  0.98045  0.55559  0.59628  1.0000
  I   I104      1.0  0.99531  0.48105  0.61808  1.0000
  I   I105      1.0  0.28853  0.02707  0.67219  1.0000
  I   I106      1.0  0.05429  0.56414  0.00901  1.0000
  I   I107      1.0  0.06029  0.56450  0.66377  1.0000
  I   I108      1.0  0.00826  0.60675  0.09109  1.0000
  I   I109      1.0  0.80568  0.93411  0.56353  1.0000
  I   I110      1.0  0.82949  0.15697  0.58823  1.0000
  I   I111      1.0  0.96093  0.97473  0.68559  1.0000
  I   I112      1.0  0.57165  0.79752  0.76475  1.0000
  I   I113      1.0  0.75856  0.02071  0.77663  1.0000
  I   I114      1.0  0.34360  0.96981  0.55036  1.0000
  I   I115      1.0  0.46105  0.90256  0.38181  1.0000
  I   I116      1.0  0.53031  0.83550  0.38070  1.0000
  I   I117      1.0  0.52097  0.68729  0.72937  1.0000
  I   I118      1.0  0.62552  0.85233  0.39723  1.0000
  I   I119      1.0  0.36886  0.89331  0.19115  1.0000
  I   I120      1.0  0.41433  0.46357  0.66993  1.0000
  I   I121      1.0  0.75166  0.15288  0.93727  1.0000
  I   I122      1.0  0.43114  0.01472  0.24375  1.0000
  I   I123      1.0  0.28114  0.79067  0.85566  1.0000
  I   I124      1.0  0.41394  0.88501  0.78476  1.0000
  I   I125      1.0  0.57581  0.75181  0.00420  1.0000
  I   I126      1.0  0.07847  0.75437  0.49567  1.0000
  I   I127      1.0  0.22411  0.86488  0.60869  1.0000
  I   I128      1.0  0.95043  0.41500  0.42477  1.0000
  I   I129      1.0  0.16584  0.14009  0.63108  1.0000
  I   I130      1.0  0.13219  0.11628  0.13969  1.0000
  I   I131      1.0  0.41577  0.27774  0.29698  1.0000
  I   I132      1.0  0.72064  0.53236  0.63066  1.0000
  I   I133      1.0  0.05368  0.47104  0.24645  1.0000
  I   I134      1.0  0.33166  0.54981  0.22723  1.0000
  I   I135      1.0  0.42183  0.19138  0.89311  1.0000
  I   I136      1.0  0.17677  0.96038  0.52155  1.0000
  I   I137      1.0  0.64179  0.13290  0.27183  1.0000
  I   I138      1.0  0.39302  0.28729  0.45256  1.0000
  I   I139      1.0  0.19434  0.61371  0.80068  1.0000
  I   I140      1.0  0.31856  0.69699  0.04332  1.0000
  I   I141      1.0  0.09561  0.76851  0.04598  1.0000
  I   I142      1.0  0.78376  0.99565  0.38576  1.0000
  I   I143      1.0  0.86736  0.34474  0.33949  1.0000
  I   I144      1.0  0.41083  0.57996  0.75762  1.0000
  I   I145      1.0  0.04927  0.88803  0.79169  1.0000
  I   I146      1.0  0.03390  0.10337  0.28475  1.0000
  I   I147      1.0  0.41859  0.96167  0.58409  1.0000
  I   I148      1.0  0.73465  0.11195  0.65721  1.0000
  I   I149      1.0  0.29022  0.76172  0.16944  1.0000
  I   I150      1.0  0.61885  0.00637  0.13087  1.0000
  I   I151      1.0  0.03204  0.49173  0.52691  1.0000
  I   I152      1.0  0.23294  0.70207  0.47562  1.0000
  I   I153      1.0  0.37204  0.02909  0.68804  1.0000
  I   I154      1.0  0.33766  0.93683  0.09685  1.0000
  I   I155      1.0  0.23812  0.37718  0.49186  1.0000
  I   I156      1.0  0.00487  0.61659  0.95878  1.0000
  I   I157      1.0  0.76917  0.93868  0.46103  1.0000
  I   I158      1.0  0.91283  0.01406  0.61266  1.0000
  I   I159      1.0  0.82353  0.82017  0.45937  1.0000
  I   I160      1.0  0.54457  0.79871  0.65034  1.0000
  I   I161      1.0  0.28170  0.02612  0.52573  1.0000
  I   I162      1.0  0.51603  0.77117  0.72890  1.0000
  I   I163      1.0  0.50633  0.65943  0.55242  1.0000
  I   I164      1.0  0.58334  0.64408  0.75105  1.0000
  I   I165      1.0  0.24452  0.60433  0.44541  1.0000
  I   I166      1.0  0.60240  0.90162  0.48307  1.0000
  I   I167      1.0  0.27530  0.17446  0.34946  1.0000
  I   I168      1.0  0.33715  0.69497  0.56402  1.0000
  I   I169      1.0  0.51767  0.97372  0.22559  1.0000
  I   I170      1.0  0.53002  0.00019  0.35948  1.0000
  I   I171      1.0  0.77978  0.17244  0.99170  1.0000
  I   I172      1.0  0.37697  0.83959  0.85633  1.0000
  I   I173      1.0  0.04904  0.69405  0.46134  1.0000
  I   I174      1.0  0.36483  0.89934  0.84595  1.0000
  I   I175      1.0  0.18754  0.36551  0.13729  1.0000
  I   I176      1.0  0.12195  0.15123  0.75654  1.0000
  I   I177      1.0  0.63708  0.57969  0.21197  1.0000
  I   I178      1.0  0.45905  0.26723  0.34880  1.0000
  I   I179      1.0  0.73691  0.59859  0.60819  1.0000
  I   I180      1.0  0.12453  0.16973  0.21560  1.0000
  I   I181      1.0  0.10616  0.18482  0.52372  1.0000
  I   I182      1.0  0.39280  0.25802  0.83137  1.0000
  I   I183      1.0  0.20549  0.49072  0.31727  1.0000
  I   I184      1.0  0.62784  0.13564  0.15553  1.0000
  I   I185      1.0  0.36484  0.30123  0.57851  1.0000
  I   I186      1.0  0.19481  0.95201  0.68815  1.0000
  I   I187      1.0  0.32421  0.72534  0.94884  1.0000
  I   I188      1.0  0.68057  0.85310  0.13712  1.0000
  I   I189      1.0  0.21017  0.39642  0.21192  1.0000
  I   I190      1.0  0.83054  0.41197  0.34602  1.0000
  I   I191      1.0  0.16950  0.31882  0.02567  1.0000
  I   I192      1.0  0.86588  0.01979  0.30713  1.0000
  I   I193      1.0  0.09476  0.76053  0.36317  1.0000
  I   I194      1.0  0.11390  0.32949  0.06493  1.0000
  I   I195      1.0  0.46688  0.96239  0.50551  1.0000
  I   I196      1.0  0.98554  0.35983  0.47138  1.0000
  I   I197      1.0  0.58262  0.32279  0.65976  1.0000
  I   I198      1.0  0.66717  0.98195  0.20833  1.0000
  I   I199      1.0  0.97181  0.51910  0.69716  1.0000
  I   I200      1.0  0.71858  0.36587  0.10008  1.0000
  I   I201      1.0  0.26241  0.06581  0.79057  1.0000
  I   I202      1.0  0.59200  0.31478  0.86288  1.0000
  I   I203      1.0  0.21018  0.81507  0.93230  1.0000
  I   I204      1.0  0.96922  0.65403  0.00601  1.0000
  I   I205      1.0  0.84315  0.17964  0.69471  1.0000
  I   I206      1.0  0.84990  0.03090  0.61027  1.0000
  I   I207      1.0  0.82062  0.82576  0.57038  1.0000
  I   I208      1.0  0.06460  0.59015  0.56850  1.0000
  I   I209      1.0  0.29068  0.96514  0.60271  1.0000
  I   I210      1.0  0.47858  0.82475  0.66074  1.0000
  I   I211      1.0  0.49075  0.87650  0.28688  1.0000
  I   I212      1.0  0.34676  0.19933  0.56514  1.0000
  I   I213      1.0  0.18367  0.87934  0.89141  1.0000
  I   I214      1.0  0.64544  0.90046  0.38031  1.0000
  I   I215      1.0  0.33027  0.17422  0.40606  1.0000
  I   I216      1.0  0.28124  0.71400  0.63057  1.0000
  I   I217      1.0  0.47510  0.96531  0.16703  1.0000
  I   I218      1.0  0.30147  0.84277  0.87729  1.0000
  I   I219      1.0  0.71558  0.21294  0.93814  1.0000
  I   I220      1.0  0.60280  0.78296  0.11155  1.0000
  I   I221      1.0  0.03329  0.77916  0.35868  1.0000
  I   I222      1.0  0.40645  0.94737  0.82230  1.0000
  I   I223      1.0  0.19545  0.37513  0.01499  1.0000
  I   I224      1.0  0.08695  0.12311  0.68390  1.0000
  I   I225      1.0  0.17340  0.87742  0.53479  1.0000
  I   I226      1.0  0.48924  0.21038  0.35537  1.0000
  I   I227      1.0  0.69379  0.60999  0.67405  1.0000
  I   I228      1.0  0.11166  0.16195  0.06142  1.0000
  I   I229      1.0  0.03633  0.29546  0.55720  1.0000
  I   I230      1.0  0.38572  0.57409  0.20240  1.0000
  I   I231      1.0  0.08238  0.51146  0.22555  1.0000
  I   I232      1.0  0.86002  0.05064  0.73402  1.0000
  I   I233      1.0  0.37090  0.35814  0.53000  1.0000
  I   I234      1.0  0.12218  0.01039  0.51155  1.0000
  I   I235      1.0  0.31575  0.99622  0.11733  1.0000
  I   I236      1.0  0.11407  0.75223  0.16802  1.0000
  I   I237      1.0  0.17625  0.65543  0.70152  1.0000
  I   I238      1.0  0.73167  0.45987  0.67333  1.0000
  I   I239      1.0  0.43821  0.51267  0.72770  1.0000
  I   I240      1.0  0.83395  0.97736  0.31201  1.0000
  I   I241      1.0  0.04684  0.11915  0.44909  1.0000
  I   I242      1.0  0.00225  0.19734  0.31823  1.0000
  I   I243      1.0  0.43777  0.00911  0.60104  1.0000
  I   I244      1.0  0.70722  0.15369  0.75829  1.0000
  I   I245      1.0  0.39366  0.74819  0.51652  1.0000
  I   I246      1.0  0.68348  0.97182  0.09239  1.0000
  I   I247      1.0  0.00063  0.53454  0.44927  1.0000
  I   I248      1.0  0.26376  0.63467  0.36263  1.0000
  I   I249      1.0  0.33903  0.09642  0.70268  1.0000
  I   I250      1.0  0.53340  0.31682  0.91294  1.0000
  I   I251      1.0  0.21142  0.35436  0.43968  1.0000
  I   I252      1.0  0.05660  0.61785  0.12374  1.0000
  I   I253      1.0  0.77765  0.18476  0.50606  1.0000
  I   I254      1.0  0.88845  0.99815  0.69701  1.0000
  I   I255      1.0  0.78073  0.89078  0.53831  1.0000
  I   I256      1.0  0.79555  0.03629  0.87606  1.0000
  I   I257      1.0  0.29273  0.96202  0.49736  1.0000
  I   I258      1.0  0.57321  0.74169  0.72833  1.0000
  I   I259      1.0  0.52323  0.89771  0.37204  1.0000
  I   I260      1.0  0.54836  0.65964  0.63969  1.0000
  I   I261      1.0  0.24219  0.69610  0.35686  1.0000
  I   I262      1.0  0.57996  0.92962  0.36563  1.0000
  I   I263      1.0  0.34921  0.11423  0.36560  1.0000
  I   I264      1.0  0.35533  0.67517  0.67599  1.0000
  I   I265      1.0  0.48262  0.00216  0.29204  1.0000
  I   I266      1.0  0.18642  0.87222  0.01978  1.0000
  I   I267      1.0  0.81621  0.11309  0.01444  1.0000
  I   I268      1.0  0.64630  0.73622  0.17070  1.0000
  I   I269      1.0  0.05819  0.71190  0.55531  1.0000
  I   I270      1.0  0.43782  0.83017  0.85805  1.0000
  I   I271      1.0  0.20541  0.41060  0.07991  1.0000
  I   I272      1.0  0.05725  0.17626  0.75851  1.0000
  I   I273      1.0  0.24440  0.84966  0.50386  1.0000
  I   I274      1.0  0.40925  0.32526  0.23160  1.0000
  I   I275      1.0  0.69505  0.58559  0.56992  1.0000
  I   I276      1.0  0.16589  0.15509  0.02292  1.0000
  I   I277      1.0  0.43452  0.22371  0.35155  1.0000
  I   I278      1.0  0.39726  0.51580  0.27046  1.0000
  I   I279      1.0  0.13553  0.48977  0.29577  1.0000
  I   I280      1.0  0.57215  0.17465  0.24928  1.0000
  I   I281      1.0  0.36672  0.34741  0.39477  1.0000
  I   I282      1.0  0.15733  0.01745  0.61549  1.0000
  I   I283      1.0  0.27241  0.97356  0.12474  1.0000
  I   I284      1.0  0.15798  0.71925  0.09886  1.0000
  I   I285      1.0  0.22900  0.38322  0.32403  1.0000
  I   I286      1.0  0.69084  0.45553  0.59550  1.0000
  I   I287      1.0  0.36859  0.57266  0.67044  1.0000
  I   I288      1.0  0.77756  0.96941  0.26711  1.0000
  I   I289      1.0  0.01743  0.11340  0.53608  1.0000
  I   I290      1.0  0.09935  0.36347  0.96923  1.0000
  I   I291      1.0  0.05467  0.14765  0.32003  1.0000
  I   I292      1.0  0.70925  0.18545  0.66084  1.0000
  I   I293      1.0  0.32770  0.76652  0.49201  1.0000
  I   I294      1.0  0.78755  0.95517  0.04028  1.0000
  I   I295      1.0  0.93108  0.51241  0.62601  1.0000
  I   I296      1.0  0.77385  0.31962  0.11879  1.0000
  I   I297      1.0  0.28494  0.08481  0.70869  1.0000
  I   I298      1.0  0.62943  0.32119  0.73400  1.0000
  I   I299      1.0  0.09843  0.53837  0.54944  1.0000
  I   I300      1.0  0.05581  0.62132  0.00609  1.0000
  I   I301      1.0  0.77715  0.82286  0.51174  1.0000
  I   I302      1.0  0.80375  0.22171  0.57390  1.0000
  I   I303      1.0  0.13415  0.41516  0.72513  1.0000
  I   I304      1.0  0.50880  0.85065  0.73657  1.0000
  I   I305      1.0  0.08888  0.62822  0.51562  1.0000
  I   I306      1.0  0.39309  0.20969  0.77384  1.0000
  I   I307      1.0  0.57183  0.60664  0.64806  1.0000
  I   I308      1.0  0.31883  0.17061  0.66901  1.0000
  I   I309      1.0  0.25701  0.64715  0.52011  1.0000
  I   I310      1.0  0.30494  0.97349  0.23959  1.0000
  I   I311      1.0  0.38384  0.14066  0.31846  1.0000
  I   I312      1.0  0.35099  0.49075  0.69421  1.0000
  I   I313      1.0  0.73710  0.20667  0.84364  1.0000
  I   I314      1.0  0.46800  0.95047  0.27230  1.0000
  I   I315      1.0  0.29977  0.80020  0.96267  1.0000
  I   I316      1.0  0.41391  0.83220  0.75471  1.0000
  I   I317      1.0  0.59792  0.69301  0.03756  1.0000
  I   I318      1.0  0.11360  0.68429  0.47847  1.0000
  I   I319      1.0  0.61037  0.59186  0.33298  1.0000
  I   I320      1.0  0.95151  0.33473  0.45865  1.0000
  I   I321      1.0  0.09650  0.19352  0.68031  1.0000
  I   I322      1.0  0.40103  0.27144  0.20015  1.0000
  I   I323      1.0  0.69086  0.53713  0.52539  1.0000
  I   I324      1.0  0.16839  0.10710  0.24303  1.0000
  I   I325      1.0  0.06256  0.31008  0.47376  1.0000
  I   I326      1.0  0.44909  0.21263  0.97805  1.0000
  I   I327      1.0  0.18461  0.44806  0.34058  1.0000
  I   I328      1.0  0.06619  0.45792  0.69196  1.0000
  I   I329      1.0  0.33215  0.34302  0.48418  1.0000
  I   I330      1.0  0.21283  0.97175  0.58852  1.0000
  I   I331      1.0  0.17413  0.39163  0.29718  1.0000
  I   I332      1.0  0.64190  0.30685  0.60704  1.0000
  I   I333      1.0  0.70296  0.78483  0.17616  1.0000
  I   I334      1.0  0.84684  0.99287  0.40554  1.0000
  I   I335      1.0  0.82083  0.36709  0.41728  1.0000
  I   I336      1.0  0.43124  0.55160  0.64106  1.0000
  I   I337      1.0  0.07468  0.84240  0.71589  1.0000
  I   I338      1.0  0.14013  0.29063  0.97465  1.0000
  I   I339      1.0  0.97896  0.15876  0.27546  1.0000
  I   I340      1.0  0.91963  0.33303  0.35059  1.0000
  I   I341      1.0  0.29891  0.72558  0.29490  1.0000
  I   I342      1.0  0.82490  0.98927  0.98590  1.0000
  I   I343      1.0  0.04002  0.54770  0.54125  1.0000
  I   I344      1.0  0.75347  0.33714  0.00581  1.0000
  I   I345      1.0  0.33391  0.04513  0.76547  1.0000
  I   I346      1.0  0.30493  0.92593  0.17847  1.0000
  I   I347      1.0  0.57085  0.26545  0.85104  1.0000
  I   I348      1.0  0.09043  0.55522  0.09220  1.0000
  I   I349      1.0  0.81138  0.87224  0.46056  1.0000
  I   I350      1.0  0.84071  0.16293  0.46404  1.0000
  I   I351      1.0  0.92546  0.01225  0.76390  1.0000
  I   I352      1.0  0.54701  0.75733  0.83667  1.0000
  I   I353      1.0  0.82739  0.96717  0.82855  1.0000
  I   I354      1.0  0.39096  0.26002  0.97083  1.0000
  I   I355      1.0  0.56623  0.60475  0.52901  1.0000
  I   I356      1.0  0.53320  0.61883  0.73867  1.0000
  I   I357      1.0  0.17217  0.83131  0.01120  1.0000
  I   I358      1.0  0.31913  0.64524  0.61611  1.0000
  I   I359      1.0  0.32550  0.13300  0.27343  1.0000
  I   I360      1.0  0.38841  0.44200  0.76170  1.0000
  I   I361      1.0  0.77047  0.22856  0.92089  1.0000
  I   I362      1.0  0.57315  0.97357  0.26968  1.0000
  I   I363      1.0  0.23777  0.84402  0.05221  1.0000
  I   I364      1.0  0.41383  0.90716  0.91351  1.0000
  I   I365      1.0  0.63208  0.75434  0.02808  1.0000
  I   I366      1.0  0.05337  0.81151  0.42181  1.0000
  I   I367      1.0  0.58057  0.63729  0.22088  1.0000
  I   I368      1.0  0.98399  0.31512  0.34316  1.0000
  I   I369      1.0  0.03897  0.18851  0.65347  1.0000
  I   I370      1.0  0.35000  0.33835  0.27851  1.0000
  I   I371      1.0  0.64275  0.58550  0.57533  1.0000
  I   I372      1.0  0.15954  0.17381  0.14372  1.0000
  I   I373      1.0  0.04532  0.20771  0.50986  1.0000
  I   I374      1.0  0.38993  0.51950  0.15964  1.0000
  I   I375      1.0  0.16692  0.51758  0.23172  1.0000
  I   I376      1.0  0.61751  0.19348  0.21337  1.0000
  I   I377      1.0  0.36184  0.40061  0.42401  1.0000
  I   I378      1.0  0.14388  0.96703  0.61039  1.0000
  I   I379      1.0  0.16129  0.68226  0.79758  1.0000
  I   I380      1.0  0.36640  0.65873  0.93515  1.0000
  I   I381      1.0  0.15328  0.77680  0.08911  1.0000
  I   I382      1.0  0.79931  0.02352  0.26458  1.0000
  I   I383      1.0  0.76915  0.43550  0.57291  1.0000
  I   I384      1.0  0.41849  0.57341  0.54690  1.0000
