data_image0
_chemical_formula_structural       Ti96I384
_chemical_formula_sum              "Ti96 I384"
_cell_length_a       37.9438
_cell_length_b       37.3983
_cell_length_c       22.1931
_cell_angle_alpha    88.7757
_cell_angle_beta     88.7757
_cell_angle_gamma    62.1586

_space_group_name_H-M_alt    "P 1"
_space_group_IT_number       1

loop_
  _space_group_symop_operation_xyz
  'x, y, z'

loop_
  _atom_site_type_symbol
  _atom_site_label
  _atom_site_symmetry_multiplicity
  _atom_site_fract_x
  _atom_site_fract_y
  _atom_site_fract_z
  _atom_site_occupancy
  Ti  Ti1       1.0  0.17241  0.07701  0.25328  1.0000
  Ti  Ti2       1.0  0.17334  0.07759  0.59127  1.0000
  Ti  Ti3       1.0  0.16510  0.07531  0.91137  1.0000
  Ti  Ti4       1.0  0.16220  0.35794  0.25830  1.0000
  Ti  Ti5       1.0  0.15206  0.35781  0.59326  1.0000
  Ti  Ti6       1.0  0.15085  0.36443  0.91479  1.0000
  Ti  Ti7       1.0  0.17567  0.57705  0.26071  1.0000
  Ti  Ti8       1.0  0.16912  0.57399  0.58446  1.0000
  Ti  Ti9       1.0  0.17796  0.56238  0.91684  1.0000
  Ti  Ti10      1.0  0.12856  0.85041  0.27194  1.0000
  Ti  Ti11      1.0  0.13053  0.86929  0.59031  1.0000
  Ti  Ti12      1.0  0.13741  0.86171  0.93102  1.0000
  Ti  Ti13      1.0  0.40786  0.11510  0.29182  1.0000
  Ti  Ti14      1.0  0.41170  0.09856  0.61766  1.0000
  Ti  Ti15      1.0  0.42238  0.09193  0.94764  1.0000
  Ti  Ti16      1.0  0.41643  0.32392  0.25716  1.0000
  Ti  Ti17      1.0  0.42979  0.31557  0.60125  1.0000
  Ti  Ti18      1.0  0.43493  0.32164  0.93553  1.0000
  Ti  Ti19      1.0  0.39211  0.60979  0.21727  1.0000
  Ti  Ti20      1.0  0.36759  0.61862  0.56352  1.0000
  Ti  Ti21      1.0  0.36935  0.60895  0.88513  1.0000
  Ti  Ti22      1.0  0.41832  0.82316  0.20117  1.0000
  Ti  Ti23      1.0  0.43055  0.82262  0.53252  1.0000
  Ti  Ti24      1.0  0.44109  0.80399  0.87295  1.0000
  Ti  Ti25      1.0  0.69389  0.06667  0.28846  1.0000
  Ti  Ti26      1.0  0.68583  0.07924  0.62890  1.0000
  Ti  Ti27      1.0  0.68178  0.08174  0.95616  1.0000
  Ti  Ti28      1.0  0.60534  0.37779  0.23176  1.0000
  Ti  Ti29      1.0  0.60085  0.38471  0.56573  1.0000
  Ti  Ti30      1.0  0.60854  0.39516  0.89030  1.0000
  Ti  Ti31      1.0  0.66119  0.56902  0.20816  1.0000
  Ti  Ti32      1.0  0.67726  0.55883  0.53573  1.0000
  Ti  Ti33      1.0  0.67338  0.56514  0.86768  1.0000
  Ti  Ti34      1.0  0.66299  0.82875  0.27708  1.0000
  Ti  Ti35      1.0  0.67845  0.84176  0.61213  1.0000
  Ti  Ti36      1.0  0.67515  0.83721  0.94958  1.0000
  Ti  Ti37      1.0  0.86042  0.14146  0.27115  1.0000
  Ti  Ti38      1.0  0.85714  0.16349  0.60040  1.0000
  Ti  Ti39      1.0  0.86550  0.13923  0.93850  1.0000
  Ti  Ti40      1.0  0.90752  0.33709  0.20105  1.0000
  Ti  Ti41      1.0  0.90716  0.34121  0.54065  1.0000
  Ti  Ti42      1.0  0.92023  0.33901  0.86010  1.0000
  Ti  Ti43      1.0  0.91863  0.58701  0.26102  1.0000
  Ti  Ti44      1.0  0.90996  0.58295  0.58811  1.0000
  Ti  Ti45      1.0  0.90763  0.59780  0.92247  1.0000
  Ti  Ti46      1.0  0.89783  0.81554  0.26346  1.0000
  Ti  Ti47      1.0  0.91482  0.82606  0.59805  1.0000
  Ti  Ti48      1.0  0.91285  0.81839  0.93939  1.0000
  Ti  Ti49      1.0  0.11275  0.15053  0.08595  1.0000
  Ti  Ti50      1.0  0.12898  0.15216  0.42049  1.0000
  Ti  Ti51      1.0  0.12675  0.15567  0.74966  1.0000
  Ti  Ti52      1.0  0.08651  0.40813  0.09371  1.0000
  Ti  Ti53      1.0  0.08434  0.42297  0.42701  1.0000
  Ti  Ti54      1.0  0.08099  0.42789  0.75499  1.0000
  Ti  Ti55      1.0  0.11397  0.62643  0.07817  1.0000
  Ti  Ti56      1.0  0.09871  0.64570  0.42549  1.0000
  Ti  Ti57      1.0  0.11201  0.63288  0.75257  1.0000
  Ti  Ti58      1.0  0.06963  0.91966  0.09913  1.0000
  Ti  Ti59      1.0  0.06346  0.93169  0.41887  1.0000
  Ti  Ti60      1.0  0.07432  0.93415  0.76229  1.0000
  Ti  Ti61      1.0  0.35503  0.16979  0.11062  1.0000
  Ti  Ti62      1.0  0.35265  0.17935  0.46991  1.0000
  Ti  Ti63      1.0  0.35862  0.16876  0.78594  1.0000
  Ti  Ti64      1.0  0.35284  0.39371  0.08300  1.0000
  Ti  Ti65      1.0  0.37634  0.38739  0.43297  1.0000
  Ti  Ti66      1.0  0.36760  0.38583  0.77729  1.0000
  Ti  Ti67      1.0  0.32237  0.66835  0.05693  1.0000
  Ti  Ti68      1.0  0.32016  0.68773  0.38075  1.0000
  Ti  Ti69      1.0  0.30761  0.68630  0.72646  1.0000
  Ti  Ti70      1.0  0.36317  0.87110  0.02168  1.0000
  Ti  Ti71      1.0  0.35221  0.90081  0.36109  1.0000
  Ti  Ti72      1.0  0.37078  0.88383  0.70891  1.0000
  Ti  Ti73      1.0  0.62802  0.13639  0.13385  1.0000
  Ti  Ti74      1.0  0.62938  0.13758  0.45100  1.0000
  Ti  Ti75      1.0  0.62473  0.15045  0.77898  1.0000
  Ti  Ti76      1.0  0.54645  0.44368  0.06613  1.0000
  Ti  Ti77      1.0  0.55699  0.45337  0.39756  1.0000
  Ti  Ti78      1.0  0.53265  0.44453  0.72277  1.0000
  Ti  Ti79      1.0  0.61449  0.63178  0.03635  1.0000
  Ti  Ti80      1.0  0.60433  0.63917  0.37808  1.0000
  Ti  Ti81      1.0  0.60578  0.63476  0.70827  1.0000
  Ti  Ti82      1.0  0.60190  0.90079  0.11686  1.0000
  Ti  Ti83      1.0  0.61561  0.90705  0.44086  1.0000
  Ti  Ti84      1.0  0.62170  0.90254  0.77997  1.0000
  Ti  Ti85      1.0  0.79796  0.20265  0.09969  1.0000
  Ti  Ti86      1.0  0.77704  0.21994  0.43747  1.0000
  Ti  Ti87      1.0  0.80061  0.20140  0.77246  1.0000
  Ti  Ti88      1.0  0.84111  0.39250  0.03072  1.0000
  Ti  Ti89      1.0  0.83890  0.40669  0.37993  1.0000
  Ti  Ti90      1.0  0.84160  0.40299  0.71176  1.0000
  Ti  Ti91      1.0  0.84850  0.64375  0.09684  1.0000
  Ti  Ti92      1.0  0.84146  0.63467  0.40837  1.0000
  Ti  Ti93      1.0  0.83939  0.63841  0.73327  1.0000
  Ti  Ti94      1.0  0.84007  0.88887  0.09804  1.0000
  Ti  Ti95      1.0  0.85145  0.88212  0.43066  1.0000
  Ti  Ti96      1.0  0.86777  0.88300  0.76556  1.0000
  I   I1        1.0  0.09897  0.13304  0.32524  1.0000
  I   I2        1.0  0.10017  0.13057  0.65230  1.0000
  I   I3        1.0  0.09172  0.12583  0.97407  1.0000
  I   I4        1.0  0.08459  0.38443  0.31926  1.0000
  I   I5        1.0  0.07635  0.38522  0.64905  1.0000
  I   I6        1.0  0.07302  0.39092  0.97838  1.0000
  I   I7        1.0  0.09702  0.60415  0.31985  1.0000
  I   I8        1.0  0.09078  0.59822  0.64897  1.0000
  I   I9        1.0  0.09837  0.60352  0.96942  1.0000
  I   I10       1.0  0.04729  0.89662  0.33375  1.0000
  I   I11       1.0  0.05335  0.90716  0.66388  1.0000
  I   I12       1.0  0.06215  0.88537  0.99536  1.0000
  I   I13       1.0  0.33489  0.15351  0.35919  1.0000
  I   I14       1.0  0.33081  0.14103  0.69011  1.0000
  I   I15       1.0  0.33960  0.13941  0.99840  1.0000
  I   I16       1.0  0.34455  0.36644  0.33477  1.0000
  I   I17       1.0  0.35325  0.35052  0.66436  1.0000
  I   I18       1.0  0.35250  0.35450  0.97771  1.0000
  I   I19       1.0  0.31126  0.65437  0.27067  1.0000
  I   I20       1.0  0.29088  0.66015  0.62663  1.0000
  I   I21       1.0  0.30207  0.64513  0.95561  1.0000
  I   I22       1.0  0.33687  0.86318  0.26631  1.0000
  I   I23       1.0  0.35617  0.85754  0.60682  1.0000
  I   I24       1.0  0.36034  0.83471  0.92631  1.0000
  I   I25       1.0  0.61257  0.10343  0.35274  1.0000
  I   I26       1.0  0.61038  0.10660  0.69130  1.0000
  I   I27       1.0  0.60480  0.11300  0.02931  1.0000
  I   I28       1.0  0.52735  0.42292  0.29084  1.0000
  I   I29       1.0  0.51675  0.41529  0.62452  1.0000
  I   I30       1.0  0.52843  0.42459  0.95045  1.0000
  I   I31       1.0  0.58291  0.61374  0.25929  1.0000
  I   I32       1.0  0.59048  0.59927  0.61528  1.0000
  I   I33       1.0  0.59730  0.59219  0.93746  1.0000
  I   I34       1.0  0.58522  0.88110  0.34029  1.0000
  I   I35       1.0  0.59981  0.89177  0.67125  1.0000
  I   I36       1.0  0.59406  0.87311  0.00282  1.0000
  I   I37       1.0  0.77700  0.17675  0.33836  1.0000
  I   I38       1.0  0.77904  0.18369  0.66172  1.0000
  I   I39       1.0  0.78679  0.16035  0.00984  1.0000
  I   I40       1.0  0.83485  0.36662  0.27738  1.0000
  I   I41       1.0  0.83098  0.37011  0.61222  1.0000
  I   I42       1.0  0.83805  0.36738  0.92463  1.0000
  I   I43       1.0  0.84179  0.59843  0.30386  1.0000
  I   I44       1.0  0.83194  0.59933  0.63361  1.0000
  I   I45       1.0  0.83335  0.61388  0.98856  1.0000
  I   I46       1.0  0.82610  0.85577  0.33014  1.0000
  I   I47       1.0  0.84093  0.86337  0.66203  1.0000
  I   I48       1.0  0.82670  0.85759  0.99761  1.0000
  I   I49       1.0  0.16162  0.14732  0.17623  1.0000
  I   I50       1.0  0.16495  0.15202  0.52324  1.0000
  I   I51       1.0  0.15566  0.15612  0.87092  1.0000
  I   I52       1.0  0.11344  0.43837  0.20239  1.0000
  I   I53       1.0  0.10612  0.44388  0.52847  1.0000
  I   I54       1.0  0.10825  0.44808  0.85706  1.0000
  I   I55       1.0  0.13268  0.65345  0.18831  1.0000
  I   I56       1.0  0.13212  0.65481  0.52385  1.0000
  I   I57       1.0  0.15119  0.64466  0.85014  1.0000
  I   I58       1.0  0.09709  0.92807  0.20166  1.0000
  I   I59       1.0  0.09918  0.94356  0.52198  1.0000
  I   I60       1.0  0.10933  0.94257  0.85888  1.0000
  I   I61       1.0  0.37853  0.19003  0.22337  1.0000
  I   I62       1.0  0.40411  0.17117  0.56312  1.0000
  I   I63       1.0  0.39689  0.17158  0.88607  1.0000
  I   I64       1.0  0.38508  0.40076  0.18856  1.0000
  I   I65       1.0  0.41835  0.39181  0.52946  1.0000
  I   I66       1.0  0.39981  0.40051  0.87860  1.0000
  I   I67       1.0  0.36536  0.68832  0.15712  1.0000
  I   I68       1.0  0.34297  0.69760  0.49490  1.0000
  I   I69       1.0  0.34919  0.68491  0.83277  1.0000
  I   I70       1.0  0.39584  0.89427  0.13620  1.0000
  I   I71       1.0  0.39320  0.90537  0.46730  1.0000
  I   I72       1.0  0.40327  0.89566  0.81743  1.0000
  I   I73       1.0  0.66976  0.14163  0.22989  1.0000
  I   I74       1.0  0.65911  0.15275  0.55763  1.0000
  I   I75       1.0  0.65333  0.16046  0.89486  1.0000
  I   I76       1.0  0.58875  0.45217  0.15629  1.0000
  I   I77       1.0  0.57302  0.46726  0.51799  1.0000
  I   I78       1.0  0.56248  0.46812  0.82474  1.0000
  I   I79       1.0  0.64134  0.64968  0.13828  1.0000
  I   I80       1.0  0.64158  0.64370  0.48313  1.0000
  I   I81       1.0  0.64224  0.64459  0.80950  1.0000
  I   I82       1.0  0.64903  0.90341  0.21164  1.0000
  I   I83       1.0  0.65680  0.91031  0.53227  1.0000
  I   I84       1.0  0.65255  0.91888  0.89063  1.0000
  I   I85       1.0  0.82430  0.22356  0.20354  1.0000
  I   I86       1.0  0.82122  0.23581  0.53549  1.0000
  I   I87       1.0  0.83195  0.21777  0.87941  1.0000
  I   I88       1.0  0.86239  0.41572  0.14157  1.0000
  I   I89       1.0  0.87361  0.42371  0.47920  1.0000
  I   I90       1.0  0.87828  0.41923  0.82347  1.0000
  I   I91       1.0  0.87691  0.66609  0.19811  1.0000
  I   I92       1.0  0.85235  0.65684  0.52642  1.0000
  I   I93       1.0  0.85990  0.67045  0.83814  1.0000
  I   I94       1.0  0.87704  0.89752  0.20334  1.0000
  I   I95       1.0  0.89337  0.89315  0.53122  1.0000
  I   I96       1.0  0.90043  0.88979  0.87563  1.0000
  I   I97       1.0  0.18822  0.10267  0.02364  1.0000
  I   I98       1.0  0.20449  0.10091  0.34703  1.0000
  I   I99       1.0  0.20067  0.10142  0.69464  1.0000
  I   I100      1.0  0.15785  0.39894  0.02444  1.0000
  I   I101      1.0  0.17190  0.39557  0.35587  1.0000
  I   I102      1.0  0.16253  0.39546  0.68933  1.0000
  I   I103      1.0  0.18903  0.59984  0.02367  1.0000
  I   I104      1.0  0.17374  0.62531  0.35330  1.0000
  I   I105      1.0  0.18437  0.60495  0.68448  1.0000
  I   I106      1.0  0.15268  0.88542  0.03620  1.0000
  I   I107      1.0  0.14437  0.89064  0.35473  1.0000
  I   I108      1.0  0.14848  0.89648  0.69551  1.0000
  I   I109      1.0  0.43298  0.12592  0.06195  1.0000
  I   I110      1.0  0.42820  0.13013  0.40624  1.0000
  I   I111      1.0  0.43590  0.12658  0.72410  1.0000
  I   I112      1.0  0.43660  0.35233  0.04365  1.0000
  I   I113      1.0  0.44500  0.33676  0.35696  1.0000
  I   I114      1.0  0.44672  0.34356  0.70398  1.0000
  I   I115      1.0  0.39195  0.63991  0.98336  1.0000
  I   I116      1.0  0.39597  0.64000  0.32448  1.0000
  I   I117      1.0  0.38569  0.64917  0.65616  1.0000
  I   I118      1.0  0.45131  0.83622  0.98243  1.0000
  I   I119      1.0  0.42883  0.86987  0.29470  1.0000
  I   I120      1.0  0.44993  0.85093  0.63283  1.0000
  I   I121      1.0  0.69978  0.11124  0.06017  1.0000
  I   I122      1.0  0.71092  0.09593  0.39191  1.0000
  I   I123      1.0  0.70406  0.10977  0.72621  1.0000
  I   I124      1.0  0.61584  0.42365  0.99578  1.0000
  I   I125      1.0  0.62818  0.41044  0.32937  1.0000
  I   I126      1.0  0.61354  0.41029  0.67441  1.0000
  I   I127      1.0  0.69018  0.59123  0.97627  1.0000
  I   I128      1.0  0.67650  0.60171  0.30518  1.0000
  I   I129      1.0  0.69406  0.59583  0.62990  1.0000
  I   I130      1.0  0.68452  0.86757  0.05624  1.0000
  I   I131      1.0  0.68807  0.86477  0.36461  1.0000
  I   I132      1.0  0.69648  0.86911  0.71786  1.0000
  I   I133      1.0  0.87661  0.17355  0.03962  1.0000
  I   I134      1.0  0.85928  0.19138  0.36243  1.0000
  I   I135      1.0  0.86820  0.19540  0.70254  1.0000
  I   I136      1.0  0.92577  0.36457  0.97090  1.0000
  I   I137      1.0  0.91694  0.37756  0.30116  1.0000
  I   I138      1.0  0.92030  0.36579  0.64872  1.0000
  I   I139      1.0  0.90595  0.64483  0.02455  1.0000
  I   I140      1.0  0.91385  0.62903  0.36434  1.0000
  I   I141      1.0  0.91677  0.62228  0.68728  1.0000
  I   I142      1.0  0.92205  0.85130  0.04206  1.0000
  I   I143      1.0  0.92424  0.84306  0.35723  1.0000
  I   I144      1.0  0.95115  0.84146  0.70683  1.0000
  I   I145      1.0  0.12764  0.07189  0.15517  1.0000
  I   I146      1.0  0.14289  0.07468  0.48465  1.0000
  I   I147      1.0  0.12221  0.08772  0.81340  1.0000
  I   I148      1.0  0.12995  0.33266  0.13784  1.0000
  I   I149      1.0  0.11981  0.34499  0.49103  1.0000
  I   I150      1.0  0.11389  0.35159  0.81924  1.0000
  I   I151      1.0  0.15598  0.54714  0.15071  1.0000
  I   I152      1.0  0.13658  0.56183  0.47877  1.0000
  I   I153      1.0  0.14194  0.55242  0.81200  1.0000
  I   I154      1.0  0.09232  0.83946  0.17070  1.0000
  I   I155      1.0  0.08364  0.85555  0.50191  1.0000
  I   I156      1.0  0.10463  0.85069  0.82011  1.0000
  I   I157      1.0  0.37477  0.09956  0.18813  1.0000
  I   I158      1.0  0.36468  0.09498  0.53393  1.0000
  I   I159      1.0  0.38791  0.08838  0.84077  1.0000
  I   I160      1.0  0.37030  0.32111  0.16238  1.0000
  I   I161      1.0  0.38742  0.31182  0.50612  1.0000
  I   I162      1.0  0.40720  0.30455  0.83565  1.0000
  I   I163      1.0  0.36072  0.59136  0.11834  1.0000
  I   I164      1.0  0.34188  0.61047  0.45389  1.0000
  I   I165      1.0  0.34488  0.60021  0.77348  1.0000
  I   I166      1.0  0.39706  0.80185  0.09262  1.0000
  I   I167      1.0  0.38751  0.82484  0.43497  1.0000
  I   I168      1.0  0.41103  0.79818  0.77031  1.0000
  I   I169      1.0  0.67462  0.04962  0.17679  1.0000
  I   I170      1.0  0.65591  0.06396  0.52528  1.0000
  I   I171      1.0  0.64500  0.07710  0.84323  1.0000
  I   I172      1.0  0.58287  0.36176  0.12075  1.0000
  I   I173      1.0  0.57699  0.38146  0.44556  1.0000
  I   I174      1.0  0.56693  0.37336  0.78314  1.0000
  I   I175      1.0  0.63610  0.55193  0.09932  1.0000
  I   I176      1.0  0.63562  0.55405  0.44169  1.0000
  I   I177      1.0  0.63897  0.55451  0.76754  1.0000
  I   I178      1.0  0.63195  0.81854  0.16135  1.0000
  I   I179      1.0  0.64616  0.83070  0.50043  1.0000
  I   I180      1.0  0.64342  0.82718  0.83094  1.0000
  I   I181      1.0  0.82995  0.12809  0.16640  1.0000
  I   I182      1.0  0.82549  0.14153  0.49703  1.0000
  I   I183      1.0  0.84462  0.12310  0.82520  1.0000
  I   I184      1.0  0.87763  0.31974  0.10710  1.0000
  I   I185      1.0  0.87474  0.32550  0.44196  1.0000
  I   I186      1.0  0.87894  0.31960  0.76793  1.0000
  I   I187      1.0  0.89968  0.56315  0.15447  1.0000
  I   I188      1.0  0.89106  0.55716  0.46493  1.0000
  I   I189      1.0  0.88073  0.57415  0.82062  1.0000
  I   I190      1.0  0.86672  0.81054  0.15687  1.0000
  I   I191      1.0  0.88867  0.80375  0.48761  1.0000
  I   I192      1.0  0.87957  0.80550  0.82951  1.0000
  I   I193      1.0  0.24006  0.04735  0.19940  1.0000
  I   I194      1.0  0.24478  0.03643  0.56110  1.0000
  I   I195      1.0  0.23754  0.03382  0.87379  1.0000
  I   I196      1.0  0.22816  0.34285  0.20399  1.0000
  I   I197      1.0  0.21759  0.35124  0.54028  1.0000
  I   I198      1.0  0.21822  0.35521  0.86699  1.0000
  I   I199      1.0  0.25105  0.55044  0.23401  1.0000
  I   I200      1.0  0.23368  0.55725  0.51735  1.0000
  I   I201      1.0  0.24544  0.54545  0.86115  1.0000
  I   I202      1.0  0.19680  0.82003  0.20928  1.0000
  I   I203      1.0  0.20174  0.84486  0.54486  1.0000
  I   I204      1.0  0.21046  0.83514  0.87463  1.0000
  I   I205      1.0  0.47988  0.07212  0.24341  1.0000
  I   I206      1.0  0.48000  0.07471  0.56056  1.0000
  I   I207      1.0  0.50035  0.06407  0.91952  1.0000
  I   I208      1.0  0.48355  0.29821  0.19927  1.0000
  I   I209      1.0  0.50302  0.28826  0.54513  1.0000
  I   I210      1.0  0.50901  0.30086  0.89176  1.0000
  I   I211      1.0  0.46525  0.59108  0.18262  1.0000
  I   I212      1.0  0.44564  0.58467  0.53228  1.0000
  I   I213      1.0  0.44435  0.57418  0.85323  1.0000
  I   I214      1.0  0.49455  0.79633  0.17074  1.0000
  I   I215      1.0  0.49186  0.80897  0.46221  1.0000
  I   I216      1.0  0.51462  0.78030  0.83691  1.0000
  I   I217      1.0  0.77185  0.03809  0.25992  1.0000
  I   I218      1.0  0.76185  0.05192  0.59363  1.0000
  I   I219      1.0  0.75410  0.05368  0.91668  1.0000
  I   I220      1.0  0.67504  0.35396  0.18253  1.0000
  I   I221      1.0  0.67320  0.36011  0.52764  1.0000
  I   I222      1.0  0.67676  0.37781  0.84453  1.0000
  I   I223      1.0  0.73383  0.54197  0.15957  1.0000
  I   I224      1.0  0.74373  0.53375  0.47797  1.0000
  I   I225      1.0  0.74448  0.54636  0.83289  1.0000
  I   I226      1.0  0.73215  0.78763  0.23344  1.0000
  I   I227      1.0  0.75039  0.80177  0.56578  1.0000
  I   I228      1.0  0.74706  0.80780  0.90991  1.0000
  I   I229      1.0  0.92510  0.13131  0.21795  1.0000
  I   I230      1.0  0.92434  0.15190  0.55152  1.0000
  I   I231      1.0  0.93831  0.12230  0.90095  1.0000
  I   I232      1.0  0.98152  0.32157  0.17015  1.0000
  I   I233      1.0  0.97596  0.32373  0.49704  1.0000
  I   I234      1.0  0.99071  0.32424  0.81488  1.0000
  I   I235      1.0  0.98047  0.59420  0.21200  1.0000
  I   I236      1.0  0.97386  0.57916  0.54431  1.0000
  I   I237      1.0  0.97349  0.59568  0.88101  1.0000
  I   I238      1.0  0.96800  0.77790  0.21491  1.0000
  I   I239      1.0  0.98742  0.79470  0.54903  1.0000
  I   I240      1.0  0.98862  0.77952  0.91645  1.0000
  I   I241      1.0  0.17533  0.01197  0.30696  1.0000
  I   I242      1.0  0.16921  0.01637  0.64702  1.0000
  I   I243      1.0  0.15325  0.01792  0.95952  1.0000
  I   I244      1.0  0.19023  0.28284  0.28832  1.0000
  I   I245      1.0  0.18320  0.28559  0.63546  1.0000
  I   I246      1.0  0.17531  0.29541  0.97025  1.0000
  I   I247      1.0  0.18651  0.51207  0.32202  1.0000
  I   I248      1.0  0.19109  0.50085  0.61545  1.0000
  I   I249      1.0  0.19684  0.49501  0.96880  1.0000
  I   I250      1.0  0.13479  0.78167  0.31666  1.0000
  I   I251      1.0  0.14472  0.79914  0.63858  1.0000
  I   I252      1.0  0.15735  0.78420  0.94823  1.0000
  I   I253      1.0  0.41225  0.04851  0.33674  1.0000
  I   I254      1.0  0.42334  0.02938  0.66095  1.0000
  I   I255      1.0  0.42525  0.03324  0.01007  1.0000
  I   I256      1.0  0.42650  0.25567  0.29826  1.0000
  I   I257      1.0  0.43555  0.25158  0.65777  1.0000
  I   I258      1.0  0.45399  0.25134  0.99046  1.0000
  I   I259      1.0  0.41156  0.53916  0.26535  1.0000
  I   I260      1.0  0.36589  0.55068  0.60291  1.0000
  I   I261      1.0  0.37202  0.53989  0.92490  1.0000
  I   I262      1.0  0.43043  0.75358  0.26118  1.0000
  I   I263      1.0  0.44582  0.75106  0.56691  1.0000
  I   I264      1.0  0.46127  0.73342  0.91946  1.0000
  I   I265      1.0  0.70489  0.99967  0.34926  1.0000
  I   I266      1.0  0.70002  0.00818  0.67039  1.0000
  I   I267      1.0  0.68817  0.00886  0.97898  1.0000
  I   I268      1.0  0.61687  0.31080  0.28932  1.0000
  I   I269      1.0  0.60955  0.31608  0.60576  1.0000
  I   I270      1.0  0.62452  0.32432  0.94849  1.0000
  I   I271      1.0  0.66520  0.50084  0.25323  1.0000
  I   I272      1.0  0.69246  0.48709  0.58319  1.0000
  I   I273      1.0  0.68503  0.49544  0.92788  1.0000
  I   I274      1.0  0.65315  0.77274  0.33199  1.0000
  I   I275      1.0  0.67975  0.77656  0.65835  1.0000
  I   I276      1.0  0.68880  0.77166  0.99933  1.0000
  I   I277      1.0  0.88781  0.07513  0.33353  1.0000
  I   I278      1.0  0.88336  0.08706  0.64299  1.0000
  I   I279      1.0  0.88097  0.07268  0.99153  1.0000
  I   I280      1.0  0.92904  0.26904  0.25614  1.0000
  I   I281      1.0  0.92342  0.26875  0.58700  1.0000
  I   I282      1.0  0.94480  0.26284  0.89813  1.0000
  I   I283      1.0  0.95512  0.51481  0.30501  1.0000
  I   I284      1.0  0.93970  0.51155  0.64203  1.0000
  I   I285      1.0  0.94047  0.52348  0.95650  1.0000
  I   I286      1.0  0.89973  0.75016  0.30320  1.0000
  I   I287      1.0  0.90976  0.76156  0.64104  1.0000
  I   I288      1.0  0.91045  0.75478  0.98840  1.0000
  I   I289      1.0  0.04539  0.17409  0.14453  1.0000
  I   I290      1.0  0.05404  0.18851  0.46856  1.0000
  I   I291      1.0  0.05824  0.19706  0.80697  1.0000
  I   I292      1.0  0.01816  0.42350  0.14215  1.0000
  I   I293      1.0  0.01473  0.43122  0.45843  1.0000
  I   I294      1.0  0.01420  0.43594  0.79715  1.0000
  I   I295      1.0  0.04241  0.64719  0.12200  1.0000
  I   I296      1.0  0.03243  0.65908  0.48414  1.0000
  I   I297      1.0  0.04390  0.65412  0.79675  1.0000
  I   I298      1.0  0.00038  0.93988  0.15032  1.0000
  I   I299      1.0  0.99078  0.96236  0.47112  1.0000
  I   I300      1.0  0.99916  0.96506  0.80379  1.0000
  I   I301      1.0  0.28112  0.20534  0.14944  1.0000
  I   I302      1.0  0.28066  0.20338  0.51051  1.0000
  I   I303      1.0  0.28583  0.19016  0.82867  1.0000
  I   I304      1.0  0.27842  0.41466  0.11091  1.0000
  I   I305      1.0  0.30874  0.43265  0.48935  1.0000
  I   I306      1.0  0.29606  0.41346  0.81795  1.0000
  I   I307      1.0  0.25210  0.68510  0.10932  1.0000
  I   I308      1.0  0.24829  0.70406  0.41139  1.0000
  I   I309      1.0  0.24026  0.70334  0.77868  1.0000
  I   I310      1.0  0.28879  0.89994  0.05907  1.0000
  I   I311      1.0  0.28571  0.91970  0.41900  1.0000
  I   I312      1.0  0.30665  0.88669  0.75745  1.0000
  I   I313      1.0  0.55893  0.14621  0.17899  1.0000
  I   I314      1.0  0.56041  0.16828  0.49953  1.0000
  I   I315      1.0  0.55085  0.17129  0.81557  1.0000
  I   I316      1.0  0.48021  0.44716  0.11480  1.0000
  I   I317      1.0  0.48132  0.48041  0.42568  1.0000
  I   I318      1.0  0.46035  0.46791  0.77805  1.0000
  I   I319      1.0  0.54317  0.65188  0.08346  1.0000
  I   I320      1.0  0.53769  0.64462  0.42348  1.0000
  I   I321      1.0  0.53884  0.65395  0.76101  1.0000
  I   I322      1.0  0.53331  0.92148  0.16582  1.0000
  I   I323      1.0  0.54410  0.92909  0.49240  1.0000
  I   I324      1.0  0.55011  0.91743  0.81993  1.0000
  I   I325      1.0  0.72668  0.22990  0.14788  1.0000
  I   I326      1.0  0.71146  0.23402  0.49297  1.0000
  I   I327      1.0  0.73534  0.22639  0.83296  1.0000
  I   I328      1.0  0.76969  0.40840  0.07028  1.0000
  I   I329      1.0  0.76981  0.41696  0.42097  1.0000
  I   I330      1.0  0.77243  0.43293  0.75756  1.0000
  I   I331      1.0  0.78750  0.63536  0.15127  1.0000
  I   I332      1.0  0.78252  0.62143  0.44651  1.0000
  I   I333      1.0  0.77661  0.64175  0.79050  1.0000
  I   I334      1.0  0.76987  0.90778  0.13941  1.0000
  I   I335      1.0  0.78604  0.90333  0.49473  1.0000
  I   I336      1.0  0.79482  0.92520  0.80659  1.0000
  I   I337      1.0  0.10734  0.21877  0.04631  1.0000
  I   I338      1.0  0.13083  0.21568  0.37079  1.0000
  I   I339      1.0  0.13601  0.21922  0.71737  1.0000
  I   I340      1.0  0.05939  0.48702  0.05903  1.0000
  I   I341      1.0  0.06406  0.49399  0.38457  1.0000
  I   I342      1.0  0.04981  0.50173  0.72017  1.0000
  I   I343      1.0  0.09280  0.69860  0.02764  1.0000
  I   I344      1.0  0.06102  0.71564  0.36499  1.0000
  I   I345      1.0  0.09673  0.70796  0.72458  1.0000
  I   I346      1.0  0.05374  0.98756  0.05075  1.0000
  I   I347      1.0  0.04674  0.99633  0.35800  1.0000
  I   I348      1.0  0.06005  0.00634  0.71081  1.0000
  I   I349      1.0  0.34593  0.23419  0.05341  1.0000
  I   I350      1.0  0.33225  0.25562  0.43835  1.0000
  I   I351      1.0  0.34491  0.23610  0.73400  1.0000
  I   I352      1.0  0.34655  0.46364  0.04067  1.0000
  I   I353      1.0  0.36389  0.45501  0.37226  1.0000
  I   I354      1.0  0.36069  0.45346  0.73113  1.0000
  I   I355      1.0  0.29946  0.74352  0.02466  1.0000
  I   I356      1.0  0.30331  0.76159  0.35978  1.0000
  I   I357      1.0  0.29148  0.75454  0.66070  1.0000
  I   I358      1.0  0.35478  0.94067  0.98464  1.0000
  I   I359      1.0  0.34251  0.96317  0.29832  1.0000
  I   I360      1.0  0.35250  0.95549  0.66661  1.0000
  I   I361      1.0  0.59558  0.21309  0.10735  1.0000
  I   I362      1.0  0.62264  0.20340  0.40119  1.0000
  I   I363      1.0  0.61160  0.21770  0.72456  1.0000
  I   I364      1.0  0.51345  0.52115  0.02835  1.0000
  I   I365      1.0  0.53479  0.52731  0.35560  1.0000
  I   I366      1.0  0.51092  0.52067  0.68845  1.0000
  I   I367      1.0  0.60744  0.69784  0.98161  1.0000
  I   I368      1.0  0.58711  0.70838  0.34168  1.0000
  I   I369      1.0  0.59692  0.70430  0.67174  1.0000
  I   I370      1.0  0.57878  0.97470  0.07641  1.0000
  I   I371      1.0  0.60658  0.97211  0.38699  1.0000
  I   I372      1.0  0.60409  0.98048  0.75135  1.0000
  I   I373      1.0  0.77662  0.26941  0.03784  1.0000
  I   I374      1.0  0.75797  0.29180  0.39527  1.0000
  I   I375      1.0  0.77199  0.28014  0.74135  1.0000
  I   I376      1.0  0.82682  0.46418  0.99535  1.0000
  I   I377      1.0  0.81551  0.47571  0.32474  1.0000
  I   I378      1.0  0.82416  0.47601  0.67060  1.0000
  I   I379      1.0  0.80061  0.72032  0.07076  1.0000
  I   I380      1.0  0.79048  0.70823  0.38711  1.0000
  I   I381      1.0  0.80146  0.71267  0.69806  1.0000
  I   I382      1.0  0.83179  0.95713  0.04948  1.0000
  I   I383      1.0  0.84348  0.95174  0.38911  1.0000
  I   I384      1.0  0.86349  0.94701  0.70750  1.0000
