data_image0
_chemical_formula_structural       Ti96I384
_chemical_formula_sum              "Ti96 I384"
_cell_length_a       36.3658
_cell_length_b       35.9269
_cell_length_c       22.1295
_cell_angle_alpha    88.7757
_cell_angle_beta     88.7757
_cell_angle_gamma    62.1586

_space_group_name_H-M_alt    "P 1"
_space_group_IT_number       1

loop_
  _space_group_symop_operation_xyz
  'x, y, z'

loop_
  _atom_site_type_symbol
  _atom_site_label
  _atom_site_symmetry_multiplicity
  _atom_site_fract_x
  _atom_site_fract_y
  _atom_site_fract_z
  _atom_site_occupancy
  Ti  Ti1       1.0  0.15638  0.10284  0.24070  1.0000
  Ti  Ti2       1.0  0.15387  0.09141  0.56756  1.0000
  Ti  Ti3       1.0  0.14946  0.09394  0.89855  1.0000
  Ti  Ti4       1.0  0.15652  0.34194  0.26648  1.0000
  Ti  Ti5       1.0  0.15076  0.33571  0.59629  1.0000
  Ti  Ti6       1.0  0.15780  0.33447  0.92107  1.0000
  Ti  Ti7       1.0  0.15348  0.59809  0.22276  1.0000
  Ti  Ti8       1.0  0.15828  0.58566  0.56773  1.0000
  Ti  Ti9       1.0  0.15468  0.59911  0.89838  1.0000
  Ti  Ti10      1.0  0.15687  0.84251  0.23624  1.0000
  Ti  Ti11      1.0  0.16025  0.84436  0.57806  1.0000
  Ti  Ti12      1.0  0.14728  0.85213  0.91033  1.0000
  Ti  Ti13      1.0  0.38910  0.10795  0.26822  1.0000
  Ti  Ti14      1.0  0.39170  0.08963  0.61703  1.0000
  Ti  Ti15      1.0  0.39237  0.09611  0.94099  1.0000
  Ti  Ti16      1.0  0.41178  0.32222  0.25932  1.0000
  Ti  Ti17      1.0  0.41190  0.33054  0.60333  1.0000
  Ti  Ti18      1.0  0.41651  0.32367  0.94186  1.0000
  Ti  Ti19      1.0  0.40713  0.59829  0.25951  1.0000
  Ti  Ti20      1.0  0.41440  0.59070  0.56926  1.0000
  Ti  Ti21      1.0  0.41075  0.60178  0.92480  1.0000
  Ti  Ti22      1.0  0.41669  0.84164  0.23521  1.0000
  Ti  Ti23      1.0  0.41900  0.84350  0.57962  1.0000
  Ti  Ti24      1.0  0.41529  0.84408  0.93280  1.0000
  Ti  Ti25      1.0  0.67283  0.07388  0.24043  1.0000
  Ti  Ti26      1.0  0.67555  0.06589  0.57410  1.0000
  Ti  Ti27      1.0  0.66496  0.07797  0.90257  1.0000
  Ti  Ti28      1.0  0.65905  0.34680  0.27116  1.0000
  Ti  Ti29      1.0  0.64578  0.34688  0.60777  1.0000
  Ti  Ti30      1.0  0.65467  0.35213  0.94623  1.0000
  Ti  Ti31      1.0  0.68231  0.59199  0.25980  1.0000
  Ti  Ti32      1.0  0.68112  0.59405  0.58976  1.0000
  Ti  Ti33      1.0  0.66890  0.59994  0.94158  1.0000
  Ti  Ti34      1.0  0.65297  0.83102  0.22491  1.0000
  Ti  Ti35      1.0  0.65723  0.84466  0.55789  1.0000
  Ti  Ti36      1.0  0.65943  0.84526  0.89267  1.0000
  Ti  Ti37      1.0  0.90490  0.09082  0.24366  1.0000
  Ti  Ti38      1.0  0.89942  0.08771  0.58576  1.0000
  Ti  Ti39      1.0  0.90138  0.09991  0.91285  1.0000
  Ti  Ti40      1.0  0.89125  0.35164  0.26632  1.0000
  Ti  Ti41      1.0  0.89548  0.33812  0.61602  1.0000
  Ti  Ti42      1.0  0.89790  0.34272  0.93212  1.0000
  Ti  Ti43      1.0  0.92203  0.58626  0.24406  1.0000
  Ti  Ti44      1.0  0.92382  0.58827  0.59005  1.0000
  Ti  Ti45      1.0  0.92255  0.58713  0.91236  1.0000
  Ti  Ti46      1.0  0.92121  0.83690  0.23810  1.0000
  Ti  Ti47      1.0  0.92284  0.84677  0.56492  1.0000
  Ti  Ti48      1.0  0.91314  0.83855  0.90333  1.0000
  Ti  Ti49      1.0  0.09447  0.16262  0.07091  1.0000
  Ti  Ti50      1.0  0.08438  0.16381  0.39669  1.0000
  Ti  Ti51      1.0  0.08623  0.16112  0.73078  1.0000
  Ti  Ti52      1.0  0.08510  0.40399  0.09242  1.0000
  Ti  Ti53      1.0  0.07752  0.40787  0.42055  1.0000
  Ti  Ti54      1.0  0.07983  0.40966  0.76433  1.0000
  Ti  Ti55      1.0  0.08646  0.68083  0.06616  1.0000
  Ti  Ti56      1.0  0.09271  0.66035  0.39691  1.0000
  Ti  Ti57      1.0  0.08974  0.65315  0.72403  1.0000
  Ti  Ti58      1.0  0.08951  0.91956  0.08279  1.0000
  Ti  Ti59      1.0  0.09245  0.91260  0.40624  1.0000
  Ti  Ti60      1.0  0.08389  0.92372  0.73649  1.0000
  Ti  Ti61      1.0  0.32345  0.17695  0.10643  1.0000
  Ti  Ti62      1.0  0.32397  0.16202  0.44675  1.0000
  Ti  Ti63      1.0  0.32622  0.16548  0.78234  1.0000
  Ti  Ti64      1.0  0.34351  0.39112  0.09022  1.0000
  Ti  Ti65      1.0  0.34839  0.38760  0.42790  1.0000
  Ti  Ti66      1.0  0.34720  0.38877  0.78005  1.0000
  Ti  Ti67      1.0  0.33968  0.67431  0.09537  1.0000
  Ti  Ti68      1.0  0.34400  0.66158  0.42141  1.0000
  Ti  Ti69      1.0  0.34314  0.66869  0.74825  1.0000
  Ti  Ti70      1.0  0.33079  0.91168  0.07153  1.0000
  Ti  Ti71      1.0  0.34413  0.90201  0.40675  1.0000
  Ti  Ti72      1.0  0.35509  0.90361  0.75698  1.0000
  Ti  Ti73      1.0  0.60784  0.14000  0.07183  1.0000
  Ti  Ti74      1.0  0.60694  0.13813  0.40903  1.0000
  Ti  Ti75      1.0  0.59640  0.13495  0.73233  1.0000
  Ti  Ti76      1.0  0.57934  0.42355  0.10445  1.0000
  Ti  Ti77      1.0  0.58029  0.39529  0.43537  1.0000
  Ti  Ti78      1.0  0.58042  0.40861  0.78900  1.0000
  Ti  Ti79      1.0  0.60269  0.66580  0.10275  1.0000
  Ti  Ti80      1.0  0.60963  0.65007  0.41932  1.0000
  Ti  Ti81      1.0  0.59712  0.66022  0.76131  1.0000
  Ti  Ti82      1.0  0.58415  0.91769  0.06596  1.0000
  Ti  Ti83      1.0  0.59050  0.90958  0.38724  1.0000
  Ti  Ti84      1.0  0.59094  0.91179  0.72912  1.0000
  Ti  Ti85      1.0  0.83739  0.16600  0.07648  1.0000
  Ti  Ti86      1.0  0.83861  0.16322  0.40841  1.0000
  Ti  Ti87      1.0  0.82791  0.16077  0.73710  1.0000
  Ti  Ti88      1.0  0.83612  0.42230  0.10221  1.0000
  Ti  Ti89      1.0  0.83980  0.41760  0.43901  1.0000
  Ti  Ti90      1.0  0.84392  0.41767  0.77193  1.0000
  Ti  Ti91      1.0  0.86203  0.66432  0.07747  1.0000
  Ti  Ti92      1.0  0.85759  0.65806  0.41139  1.0000
  Ti  Ti93      1.0  0.84585  0.66628  0.74242  1.0000
  Ti  Ti94      1.0  0.84475  0.90713  0.07051  1.0000
  Ti  Ti95      1.0  0.84656  0.90944  0.40424  1.0000
  Ti  Ti96      1.0  0.84579  0.90206  0.74084  1.0000
  I   I1        1.0  0.07235  0.12322  0.29496  1.0000
  I   I2        1.0  0.07177  0.12732  0.62363  1.0000
  I   I3        1.0  0.07413  0.12133  0.96235  1.0000
  I   I4        1.0  0.07139  0.37050  0.31912  1.0000
  I   I5        1.0  0.07443  0.36913  0.66294  1.0000
  I   I6        1.0  0.07506  0.37417  0.99102  1.0000
  I   I7        1.0  0.08448  0.61611  0.29883  1.0000
  I   I8        1.0  0.07800  0.61840  0.62011  1.0000
  I   I9        1.0  0.07438  0.64079  0.95790  1.0000
  I   I10       1.0  0.07516  0.88105  0.31021  1.0000
  I   I11       1.0  0.07558  0.89086  0.62550  1.0000
  I   I12       1.0  0.06670  0.89712  0.97016  1.0000
  I   I13       1.0  0.31131  0.13472  0.34294  1.0000
  I   I14       1.0  0.30821  0.13640  0.67320  1.0000
  I   I15       1.0  0.31313  0.13358  0.00274  1.0000
  I   I16       1.0  0.33749  0.34633  0.33265  1.0000
  I   I17       1.0  0.33238  0.35077  0.67631  1.0000
  I   I18       1.0  0.33217  0.35475  0.98762  1.0000
  I   I19       1.0  0.32653  0.63423  0.32106  1.0000
  I   I20       1.0  0.32696  0.63569  0.63945  1.0000
  I   I21       1.0  0.33373  0.62960  0.98747  1.0000
  I   I22       1.0  0.33542  0.86783  0.30050  1.0000
  I   I23       1.0  0.33980  0.87026  0.64421  1.0000
  I   I24       1.0  0.33057  0.86550  0.97479  1.0000
  I   I25       1.0  0.59409  0.10180  0.30556  1.0000
  I   I26       1.0  0.59143  0.09600  0.62530  1.0000
  I   I27       1.0  0.58295  0.11632  0.96636  1.0000
  I   I28       1.0  0.58112  0.36187  0.32636  1.0000
  I   I29       1.0  0.57173  0.36412  0.68719  1.0000
  I   I30       1.0  0.57689  0.36888  0.01759  1.0000
  I   I31       1.0  0.59875  0.61808  0.32199  1.0000
  I   I32       1.0  0.59365  0.62849  0.65045  1.0000
  I   I33       1.0  0.59144  0.62558  0.99531  1.0000
  I   I34       1.0  0.57802  0.87402  0.28530  1.0000
  I   I35       1.0  0.57897  0.88350  0.62275  1.0000
  I   I36       1.0  0.57862  0.88325  0.95047  1.0000
  I   I37       1.0  0.82326  0.12906  0.30434  1.0000
  I   I38       1.0  0.81203  0.12307  0.63489  1.0000
  I   I39       1.0  0.81592  0.13548  0.97938  1.0000
  I   I40       1.0  0.82038  0.38065  0.33883  1.0000
  I   I41       1.0  0.81559  0.39089  0.67027  1.0000
  I   I42       1.0  0.81969  0.39162  0.99690  1.0000
  I   I43       1.0  0.83699  0.64146  0.30490  1.0000
  I   I44       1.0  0.83470  0.63104  0.63686  1.0000
  I   I45       1.0  0.84488  0.62292  0.98902  1.0000
  I   I46       1.0  0.84045  0.87038  0.30625  1.0000
  I   I47       1.0  0.83469  0.87790  0.62666  1.0000
  I   I48       1.0  0.83626  0.87001  0.96233  1.0000
  I   I49       1.0  0.13149  0.17364  0.16737  1.0000
  I   I50       1.0  0.11804  0.18247  0.48934  1.0000
  I   I51       1.0  0.12491  0.17626  0.83310  1.0000
  I   I52       1.0  0.12211  0.41681  0.19641  1.0000
  I   I53       1.0  0.11434  0.41790  0.52625  1.0000
  I   I54       1.0  0.12396  0.41632  0.86306  1.0000
  I   I55       1.0  0.12142  0.68437  0.16945  1.0000
  I   I56       1.0  0.12619  0.67527  0.50207  1.0000
  I   I57       1.0  0.11484  0.68226  0.82255  1.0000
  I   I58       1.0  0.12430  0.93508  0.17540  1.0000
  I   I59       1.0  0.13359  0.92459  0.50850  1.0000
  I   I60       1.0  0.11936  0.93403  0.84638  1.0000
  I   I61       1.0  0.36732  0.18420  0.20198  1.0000
  I   I62       1.0  0.36754  0.17044  0.54298  1.0000
  I   I63       1.0  0.36406  0.17982  0.88034  1.0000
  I   I64       1.0  0.36550  0.40667  0.20451  1.0000
  I   I65       1.0  0.37275  0.41125  0.54727  1.0000
  I   I66       1.0  0.37984  0.40924  0.88025  1.0000
  I   I67       1.0  0.36838  0.68342  0.20126  1.0000
  I   I68       1.0  0.38158  0.67883  0.52230  1.0000
  I   I69       1.0  0.37324  0.68131  0.85434  1.0000
  I   I70       1.0  0.36870  0.92921  0.17515  1.0000
  I   I71       1.0  0.36589  0.92244  0.51997  1.0000
  I   I72       1.0  0.38136  0.92528  0.86005  1.0000
  I   I73       1.0  0.64401  0.15558  0.17346  1.0000
  I   I74       1.0  0.64586  0.14994  0.50658  1.0000
  I   I75       1.0  0.62855  0.15344  0.82927  1.0000
  I   I76       1.0  0.60927  0.43310  0.21348  1.0000
  I   I77       1.0  0.59867  0.42730  0.54705  1.0000
  I   I78       1.0  0.60128  0.43291  0.89054  1.0000
  I   I79       1.0  0.63739  0.67994  0.19695  1.0000
  I   I80       1.0  0.64010  0.67119  0.52876  1.0000
  I   I81       1.0  0.61768  0.67910  0.87558  1.0000
  I   I82       1.0  0.61987  0.92302  0.16642  1.0000
  I   I83       1.0  0.62479  0.91918  0.50241  1.0000
  I   I84       1.0  0.62791  0.92688  0.82642  1.0000
  I   I85       1.0  0.88226  0.16994  0.17479  1.0000
  I   I86       1.0  0.87194  0.16791  0.52066  1.0000
  I   I87       1.0  0.86400  0.17878  0.83262  1.0000
  I   I88       1.0  0.87282  0.43210  0.20556  1.0000
  I   I89       1.0  0.88162  0.41630  0.53970  1.0000
  I   I90       1.0  0.88910  0.42639  0.85931  1.0000
  I   I91       1.0  0.90609  0.66515  0.16893  1.0000
  I   I92       1.0  0.89570  0.66388  0.52075  1.0000
  I   I93       1.0  0.89717  0.66746  0.84505  1.0000
  I   I94       1.0  0.87636  0.92253  0.16795  1.0000
  I   I95       1.0  0.87332  0.93111  0.51027  1.0000
  I   I96       1.0  0.87442  0.92426  0.83644  1.0000
  I   I97       1.0  0.17290  0.11228  0.00762  1.0000
  I   I98       1.0  0.16991  0.14607  0.33131  1.0000
  I   I99       1.0  0.16323  0.12886  0.66952  1.0000
  I   I100      1.0  0.17130  0.36886  0.02139  1.0000
  I   I101      1.0  0.16196  0.38338  0.36314  1.0000
  I   I102      1.0  0.15804  0.38134  0.69235  1.0000
  I   I103      1.0  0.16492  0.63849  0.00384  1.0000
  I   I104      1.0  0.17914  0.61819  0.32734  1.0000
  I   I105      1.0  0.17199  0.62448  0.66693  1.0000
  I   I106      1.0  0.16640  0.88359  0.01240  1.0000
  I   I107      1.0  0.18122  0.86725  0.33193  1.0000
  I   I108      1.0  0.17852  0.86884  0.68145  1.0000
  I   I109      1.0  0.40709  0.13586  0.03326  1.0000
  I   I110      1.0  0.41153  0.12039  0.38586  1.0000
  I   I111      1.0  0.40621  0.13070  0.70535  1.0000
  I   I112      1.0  0.42514  0.36090  0.04874  1.0000
  I   I113      1.0  0.43290  0.35241  0.37145  1.0000
  I   I114      1.0  0.42217  0.36145  0.70724  1.0000
  I   I115      1.0  0.42901  0.63257  0.02700  1.0000
  I   I116      1.0  0.43307  0.61523  0.35956  1.0000
  I   I117      1.0  0.42365  0.62572  0.67475  1.0000
  I   I118      1.0  0.41443  0.89317  0.02483  1.0000
  I   I119      1.0  0.42467  0.88116  0.33424  1.0000
  I   I120      1.0  0.42852  0.87738  0.69186  1.0000
  I   I121      1.0  0.68760  0.10397  0.01551  1.0000
  I   I122      1.0  0.68997  0.10070  0.34429  1.0000
  I   I123      1.0  0.68009  0.10322  0.68074  1.0000
  I   I124      1.0  0.65634  0.39651  0.05140  1.0000
  I   I125      1.0  0.65684  0.38395  0.38760  1.0000
  I   I126      1.0  0.65252  0.38618  0.71526  1.0000
  I   I127      1.0  0.68963  0.63186  0.03738  1.0000
  I   I128      1.0  0.68176  0.64559  0.34640  1.0000
  I   I129      1.0  0.68122  0.63169  0.69276  1.0000
  I   I130      1.0  0.66618  0.88338  0.99499  1.0000
  I   I131      1.0  0.66828  0.87061  0.32632  1.0000
  I   I132      1.0  0.67843  0.87602  0.66727  1.0000
  I   I133      1.0  0.91161  0.14072  0.01039  1.0000
  I   I134      1.0  0.91942  0.12752  0.34406  1.0000
  I   I135      1.0  0.91340  0.12931  0.67738  1.0000
  I   I136      1.0  0.91724  0.37858  0.03592  1.0000
  I   I137      1.0  0.91880  0.37417  0.36575  1.0000
  I   I138      1.0  0.92612  0.36529  0.70757  1.0000
  I   I139      1.0  0.94608  0.61364  0.01148  1.0000
  I   I140      1.0  0.94533  0.61473  0.34473  1.0000
  I   I141      1.0  0.92380  0.63627  0.68363  1.0000
  I   I142      1.0  0.92875  0.87139  0.01533  1.0000
  I   I143      1.0  0.93180  0.88041  0.34056  1.0000
  I   I144      1.0  0.93566  0.87294  0.67561  1.0000
  I   I145      1.0  0.11283  0.08506  0.13737  1.0000
  I   I146      1.0  0.12557  0.08295  0.45846  1.0000
  I   I147      1.0  0.10886  0.08631  0.79682  1.0000
  I   I148      1.0  0.12586  0.32367  0.15888  1.0000
  I   I149      1.0  0.11236  0.32337  0.49591  1.0000
  I   I150      1.0  0.11473  0.32293  0.82993  1.0000
  I   I151      1.0  0.10641  0.59979  0.12249  1.0000
  I   I152      1.0  0.11394  0.58555  0.46985  1.0000
  I   I153      1.0  0.12911  0.57778  0.79583  1.0000
  I   I154      1.0  0.10877  0.83845  0.13893  1.0000
  I   I155      1.0  0.12103  0.83272  0.47266  1.0000
  I   I156      1.0  0.10378  0.84783  0.80537  1.0000
  I   I157      1.0  0.37255  0.08985  0.16092  1.0000
  I   I158      1.0  0.34525  0.08550  0.51888  1.0000
  I   I159      1.0  0.36098  0.08260  0.83592  1.0000
  I   I160      1.0  0.37913  0.30850  0.15515  1.0000
  I   I161      1.0  0.37616  0.30834  0.50669  1.0000
  I   I162      1.0  0.38857  0.30790  0.83170  1.0000
  I   I163      1.0  0.36374  0.59493  0.15368  1.0000
  I   I164      1.0  0.37110  0.58411  0.48275  1.0000
  I   I165      1.0  0.37289  0.58549  0.81920  1.0000
  I   I166      1.0  0.37726  0.82884  0.13374  1.0000
  I   I167      1.0  0.39545  0.82134  0.46900  1.0000
  I   I168      1.0  0.41011  0.82043  0.81324  1.0000
  I   I169      1.0  0.64074  0.06046  0.12931  1.0000
  I   I170      1.0  0.65001  0.05430  0.46938  1.0000
  I   I171      1.0  0.64101  0.05153  0.80211  1.0000
  I   I172      1.0  0.62943  0.33333  0.16438  1.0000
  I   I173      1.0  0.62013  0.31756  0.50016  1.0000
  I   I174      1.0  0.62958  0.32622  0.84374  1.0000
  I   I175      1.0  0.64794  0.58007  0.16264  1.0000
  I   I176      1.0  0.64776  0.56960  0.49133  1.0000
  I   I177      1.0  0.63871  0.58002  0.82939  1.0000
  I   I178      1.0  0.62054  0.83062  0.11573  1.0000
  I   I179      1.0  0.62425  0.82601  0.45065  1.0000
  I   I180      1.0  0.62580  0.83080  0.78841  1.0000
  I   I181      1.0  0.86492  0.07780  0.14897  1.0000
  I   I182      1.0  0.86639  0.08251  0.47100  1.0000
  I   I183      1.0  0.86466  0.08346  0.81333  1.0000
  I   I184      1.0  0.85082  0.34212  0.15922  1.0000
  I   I185      1.0  0.86552  0.32805  0.50477  1.0000
  I   I186      1.0  0.87071  0.32946  0.82523  1.0000
  I   I187      1.0  0.88574  0.57707  0.15431  1.0000
  I   I188      1.0  0.87883  0.58407  0.47724  1.0000
  I   I189      1.0  0.88527  0.58327  0.80294  1.0000
  I   I190      1.0  0.88108  0.82486  0.13770  1.0000
  I   I191      1.0  0.89787  0.82413  0.46043  1.0000
  I   I192      1.0  0.89023  0.81770  0.79791  1.0000
  I   I193      1.0  0.22789  0.06531  0.17762  1.0000
  I   I194      1.0  0.22614  0.07585  0.52905  1.0000
  I   I195      1.0  0.22439  0.07906  0.85409  1.0000
  I   I196      1.0  0.22908  0.32191  0.21982  1.0000
  I   I197      1.0  0.22306  0.31368  0.54952  1.0000
  I   I198      1.0  0.22883  0.31821  0.87537  1.0000
  I   I199      1.0  0.22735  0.57473  0.16960  1.0000
  I   I200      1.0  0.23064  0.56059  0.51066  1.0000
  I   I201      1.0  0.22783  0.57681  0.85894  1.0000
  I   I202      1.0  0.22888  0.82321  0.18183  1.0000
  I   I203      1.0  0.23110  0.82300  0.51841  1.0000
  I   I204      1.0  0.22162  0.83365  0.86781  1.0000
  I   I205      1.0  0.46656  0.09491  0.24034  1.0000
  I   I206      1.0  0.46686  0.05406  0.57557  1.0000
  I   I207      1.0  0.46516  0.07213  0.89836  1.0000
  I   I208      1.0  0.47898  0.32047  0.21965  1.0000
  I   I209      1.0  0.48281  0.31117  0.54875  1.0000
  I   I210      1.0  0.48621  0.31152  0.89483  1.0000
  I   I211      1.0  0.47430  0.59250  0.20342  1.0000
  I   I212      1.0  0.48768  0.56980  0.52431  1.0000
  I   I213      1.0  0.48405  0.57889  0.87622  1.0000
  I   I214      1.0  0.48550  0.83008  0.18327  1.0000
  I   I215      1.0  0.49283  0.83222  0.53798  1.0000
  I   I216      1.0  0.49072  0.82327  0.90906  1.0000
  I   I217      1.0  0.74114  0.05907  0.18643  1.0000
  I   I218      1.0  0.75287  0.04840  0.55196  1.0000
  I   I219      1.0  0.73922  0.05932  0.85656  1.0000
  I   I220      1.0  0.73355  0.33791  0.24472  1.0000
  I   I221      1.0  0.71581  0.32799  0.55574  1.0000
  I   I222      1.0  0.71805  0.35196  0.89152  1.0000
  I   I223      1.0  0.75356  0.57051  0.20203  1.0000
  I   I224      1.0  0.75685  0.56210  0.54232  1.0000
  I   I225      1.0  0.73343  0.59459  0.87589  1.0000
  I   I226      1.0  0.71984  0.82448  0.17991  1.0000
  I   I227      1.0  0.73330  0.81371  0.51712  1.0000
  I   I228      1.0  0.73561  0.81385  0.86656  1.0000
  I   I229      1.0  0.97849  0.07418  0.19856  1.0000
  I   I230      1.0  0.97962  0.05308  0.55835  1.0000
  I   I231      1.0  0.98017  0.07209  0.88183  1.0000
  I   I232      1.0  0.96774  0.31951  0.21094  1.0000
  I   I233      1.0  0.96955  0.30844  0.56502  1.0000
  I   I234      1.0  0.97196  0.31040  0.87961  1.0000
  I   I235      1.0  0.99945  0.55779  0.20388  1.0000
  I   I236      1.0  0.99651  0.56384  0.54336  1.0000
  I   I237      1.0  0.99364  0.55944  0.84799  1.0000
  I   I238      1.0  0.99343  0.81931  0.19501  1.0000
  I   I239      1.0  0.99613  0.82551  0.51617  1.0000
  I   I240      1.0  0.98675  0.82823  0.86441  1.0000
  I   I241      1.0  0.16921  0.03113  0.29388  1.0000
  I   I242      1.0  0.17887  0.01351  0.60585  1.0000
  I   I243      1.0  0.18279  0.01224  0.92052  1.0000
  I   I244      1.0  0.18129  0.26680  0.31336  1.0000
  I   I245      1.0  0.17247  0.25916  0.64210  1.0000
  I   I246      1.0  0.17689  0.26216  0.97065  1.0000
  I   I247      1.0  0.17541  0.51796  0.24797  1.0000
  I   I248      1.0  0.17810  0.51214  0.61588  1.0000
  I   I249      1.0  0.17331  0.52643  0.95063  1.0000
  I   I250      1.0  0.18599  0.76404  0.27948  1.0000
  I   I251      1.0  0.16872  0.77099  0.61868  1.0000
  I   I252      1.0  0.16695  0.77737  0.95258  1.0000
  I   I253      1.0  0.40232  0.03131  0.30598  1.0000
  I   I254      1.0  0.40648  0.01720  0.66706  1.0000
  I   I255      1.0  0.40697  0.02072  0.98445  1.0000
  I   I256      1.0  0.44142  0.24773  0.30542  1.0000
  I   I257      1.0  0.43535  0.25211  0.63586  1.0000
  I   I258      1.0  0.43963  0.24908  0.97287  1.0000
  I   I259      1.0  0.43665  0.51921  0.27778  1.0000
  I   I260      1.0  0.41959  0.52152  0.61766  1.0000
  I   I261      1.0  0.42310  0.52567  0.95790  1.0000
  I   I262      1.0  0.44738  0.76556  0.27557  1.0000
  I   I263      1.0  0.45138  0.76495  0.61024  1.0000
  I   I264      1.0  0.43461  0.77044  0.98007  1.0000
  I   I265      1.0  0.69547  0.99399  0.27115  1.0000
  I   I266      1.0  0.70073  0.98888  0.62069  1.0000
  I   I267      1.0  0.68047  0.00725  0.95614  1.0000
  I   I268      1.0  0.67792  0.27677  0.33298  1.0000
  I   I269      1.0  0.67363  0.27254  0.65944  1.0000
  I   I270      1.0  0.69173  0.27825  0.99726  1.0000
  I   I271      1.0  0.70373  0.51843  0.31274  1.0000
  I   I272      1.0  0.69345  0.52124  0.63381  1.0000
  I   I273      1.0  0.69066  0.52030  0.96812  1.0000
  I   I274      1.0  0.68219  0.75593  0.27597  1.0000
  I   I275      1.0  0.66911  0.76807  0.59892  1.0000
  I   I276      1.0  0.67315  0.77218  0.94662  1.0000
  I   I277      1.0  0.92482  0.01931  0.29388  1.0000
  I   I278      1.0  0.90936  0.01906  0.63741  1.0000
  I   I279      1.0  0.90840  0.03095  0.96353  1.0000
  I   I280      1.0  0.91182  0.27376  0.30157  1.0000
  I   I281      1.0  0.90059  0.27130  0.66339  1.0000
  I   I282      1.0  0.91087  0.27696  0.99097  1.0000
  I   I283      1.0  0.92708  0.51865  0.30027  1.0000
  I   I284      1.0  0.92992  0.52021  0.63623  1.0000
  I   I285      1.0  0.93942  0.51401  0.95785  1.0000
  I   I286      1.0  0.94282  0.76361  0.28569  1.0000
  I   I287      1.0  0.93423  0.77232  0.60284  1.0000
  I   I288      1.0  0.94108  0.76024  0.94515  1.0000
  I   I289      1.0  0.02050  0.19208  0.11628  1.0000
  I   I290      1.0  0.01771  0.17336  0.45182  1.0000
  I   I291      1.0  0.00695  0.19411  0.77594  1.0000
  I   I292      1.0  0.01318  0.42136  0.14149  1.0000
  I   I293      1.0  0.00359  0.42849  0.46453  1.0000
  I   I294      1.0  0.00703  0.43069  0.81248  1.0000
  I   I295      1.0  0.00928  0.70917  0.09681  1.0000
  I   I296      1.0  0.01855  0.68704  0.44143  1.0000
  I   I297      1.0  0.01719  0.66443  0.76417  1.0000
  I   I298      1.0  0.01377  0.94651  0.13376  1.0000
  I   I299      1.0  0.01935  0.93588  0.46051  1.0000
  I   I300      1.0  0.00642  0.94838  0.76520  1.0000
  I   I301      1.0  0.25553  0.19301  0.16353  1.0000
  I   I302      1.0  0.24759  0.19049  0.49310  1.0000
  I   I303      1.0  0.25444  0.17631  0.82778  1.0000
  I   I304      1.0  0.26828  0.40143  0.10908  1.0000
  I   I305      1.0  0.27333  0.41034  0.46121  1.0000
  I   I306      1.0  0.27257  0.40286  0.82020  1.0000
  I   I307      1.0  0.26222  0.70113  0.11365  1.0000
  I   I308      1.0  0.27376  0.68290  0.48343  1.0000
  I   I309      1.0  0.27063  0.69417  0.79585  1.0000
  I   I310      1.0  0.26783  0.91194  0.12605  1.0000
  I   I311      1.0  0.26936  0.91710  0.43927  1.0000
  I   I312      1.0  0.28970  0.90327  0.80089  1.0000
  I   I313      1.0  0.53440  0.15697  0.12658  1.0000
  I   I314      1.0  0.53394  0.15730  0.44520  1.0000
  I   I315      1.0  0.52174  0.15208  0.76662  1.0000
  I   I316      1.0  0.51000  0.42536  0.15942  1.0000
  I   I317      1.0  0.50619  0.40369  0.46682  1.0000
  I   I318      1.0  0.51111  0.41548  0.83511  1.0000
  I   I319      1.0  0.53320  0.67363  0.14779  1.0000
  I   I320      1.0  0.53512  0.66466  0.47566  1.0000
  I   I321      1.0  0.52361  0.66366  0.77595  1.0000
  I   I322      1.0  0.51343  0.92571  0.10612  1.0000
  I   I323      1.0  0.52114  0.91783  0.43537  1.0000
  I   I324      1.0  0.51284  0.93395  0.76296  1.0000
  I   I325      1.0  0.76698  0.17977  0.13114  1.0000
  I   I326      1.0  0.76246  0.18258  0.44779  1.0000
  I   I327      1.0  0.75810  0.17416  0.79909  1.0000
  I   I328      1.0  0.76435  0.43614  0.14585  1.0000
  I   I329      1.0  0.76441  0.43400  0.47584  1.0000
  I   I330      1.0  0.77059  0.44831  0.81738  1.0000
  I   I331      1.0  0.78734  0.69376  0.12787  1.0000
  I   I332      1.0  0.78054  0.68655  0.45301  1.0000
  I   I333      1.0  0.78013  0.68551  0.80516  1.0000
  I   I334      1.0  0.77316  0.92548  0.11633  1.0000
  I   I335      1.0  0.77640  0.91748  0.45069  1.0000
  I   I336      1.0  0.77318  0.91274  0.78201  1.0000
  I   I337      1.0  0.07817  0.23419  0.02246  1.0000
  I   I338      1.0  0.05268  0.23256  0.33228  1.0000
  I   I339      1.0  0.06501  0.23856  0.69467  1.0000
  I   I340      1.0  0.06756  0.48044  0.04907  1.0000
  I   I341      1.0  0.05802  0.48432  0.38524  1.0000
  I   I342      1.0  0.06026  0.48199  0.70808  1.0000
  I   I343      1.0  0.06667  0.74881  0.00220  1.0000
  I   I344      1.0  0.07782  0.73462  0.35672  1.0000
  I   I345      1.0  0.05299  0.72941  0.67182  1.0000
  I   I346      1.0  0.07208  0.99117  0.02613  1.0000
  I   I347      1.0  0.07923  0.98323  0.35897  1.0000
  I   I348      1.0  0.07440  0.99385  0.68672  1.0000
  I   I349      1.0  0.29831  0.24619  0.04185  1.0000
  I   I350      1.0  0.31126  0.23006  0.38628  1.0000
  I   I351      1.0  0.30563  0.24066  0.73998  1.0000
  I   I352      1.0  0.31923  0.47170  0.06735  1.0000
  I   I353      1.0  0.32676  0.46340  0.37816  1.0000
  I   I354      1.0  0.31660  0.46924  0.75413  1.0000
  I   I355      1.0  0.33409  0.74100  0.04027  1.0000
  I   I356      1.0  0.32222  0.73482  0.38042  1.0000
  I   I357      1.0  0.33145  0.73793  0.69884  1.0000
  I   I358      1.0  0.28877  0.98680  0.03294  1.0000
  I   I359      1.0  0.32714  0.97711  0.36691  1.0000
  I   I360      1.0  0.30528  0.98015  0.71779  1.0000
  I   I361      1.0  0.59226  0.21437  0.03323  1.0000
  I   I362      1.0  0.58484  0.20808  0.34411  1.0000
  I   I363      1.0  0.57601  0.20865  0.68193  1.0000
  I   I364      1.0  0.52805  0.49973  0.06579  1.0000
  I   I365      1.0  0.54700  0.47313  0.39890  1.0000
  I   I366      1.0  0.54473  0.49001  0.74580  1.0000
  I   I367      1.0  0.57556  0.73946  0.04830  1.0000
  I   I368      1.0  0.56833  0.72831  0.38181  1.0000
  I   I369      1.0  0.57225  0.74039  0.72707  1.0000
  I   I370      1.0  0.56444  0.99438  0.03434  1.0000
  I   I371      1.0  0.57284  0.98707  0.36901  1.0000
  I   I372      1.0  0.57089  0.98955  0.69921  1.0000
  I   I373      1.0  0.81924  0.24396  0.04832  1.0000
  I   I374      1.0  0.82010  0.23775  0.37581  1.0000
  I   I375      1.0  0.80401  0.22744  0.67504  1.0000
  I   I376      1.0  0.82292  0.49817  0.06765  1.0000
  I   I377      1.0  0.83271  0.49069  0.39745  1.0000
  I   I378      1.0  0.83095  0.48636  0.71487  1.0000
  I   I379      1.0  0.84842  0.72965  0.01426  1.0000
  I   I380      1.0  0.85006  0.73238  0.38108  1.0000
  I   I381      1.0  0.82396  0.74053  0.69886  1.0000
  I   I382      1.0  0.83145  0.97895  0.01790  1.0000
  I   I383      1.0  0.82000  0.98435  0.35939  1.0000
  I   I384      1.0  0.82499  0.97824  0.70242  1.0000
