data_image0
_chemical_formula_structural       Ti96I384
_chemical_formula_sum              "Ti96 I384"
_cell_length_a       67.4798
_cell_length_b       67.4867
_cell_length_c       32.9933
_cell_angle_alpha    88.7757
_cell_angle_beta     88.7757
_cell_angle_gamma    62.1586

_space_group_name_H-M_alt    "P 1"
_space_group_IT_number       1

loop_
  _space_group_symop_operation_xyz
  'x, y, z'

loop_
  _atom_site_type_symbol
  _atom_site_label
  _atom_site_symmetry_multiplicity
  _atom_site_fract_x
  _atom_site_fract_y
  _atom_site_fract_z
  _atom_site_occupancy
  Ti  Ti1       1.0  0.09776  0.79527  0.07088  1.0000
  Ti  Ti2       1.0  0.66494  0.97957  0.90098  1.0000
  Ti  Ti3       1.0  0.61914  0.91006  0.28710  1.0000
  Ti  Ti4       1.0  0.85225  0.23102  0.20558  1.0000
  Ti  Ti5       1.0  0.59120  0.80689  0.28691  1.0000
  Ti  Ti6       1.0  0.95291  0.69803  0.91433  1.0000
  Ti  Ti7       1.0  0.83213  0.29615  0.60013  1.0000
  Ti  Ti8       1.0  0.25949  0.00998  0.37895  1.0000
  Ti  Ti9       1.0  0.27000  0.93963  0.13339  1.0000
  Ti  Ti10      1.0  0.89460  0.85796  0.38993  1.0000
  Ti  Ti11      1.0  0.14732  0.17841  0.21296  1.0000
  Ti  Ti12      1.0  0.17721  0.61528  0.67156  1.0000
  Ti  Ti13      1.0  0.13902  0.05603  0.17565  1.0000
  Ti  Ti14      1.0  0.95715  0.08524  0.56569  1.0000
  Ti  Ti15      1.0  0.77671  0.98416  0.58674  1.0000
  Ti  Ti16      1.0  0.85488  0.86671  0.45954  1.0000
  Ti  Ti17      1.0  0.28665  0.03268  0.63247  1.0000
  Ti  Ti18      1.0  0.79824  0.75480  0.94642  1.0000
  Ti  Ti19      1.0  0.61256  0.42736  0.02368  1.0000
  Ti  Ti20      1.0  0.10712  0.06920  0.76076  1.0000
  Ti  Ti21      1.0  0.21177  0.01889  0.35334  1.0000
  Ti  Ti22      1.0  0.78908  0.76783  0.36537  1.0000
  Ti  Ti23      1.0  0.52304  0.01581  0.61193  1.0000
  Ti  Ti24      1.0  0.31867  0.79146  0.90735  1.0000
  Ti  Ti25      1.0  0.56743  0.84527  0.74109  1.0000
  Ti  Ti26      1.0  0.36259  0.79872  0.46112  1.0000
  Ti  Ti27      1.0  0.80641  0.16684  0.59812  1.0000
  Ti  Ti28      1.0  0.66355  0.50109  0.48660  1.0000
  Ti  Ti29      1.0  0.00634  0.85384  0.02913  1.0000
  Ti  Ti30      1.0  0.52232  0.03243  0.93546  1.0000
  Ti  Ti31      1.0  0.13785  0.65171  0.92212  1.0000
  Ti  Ti32      1.0  0.89634  0.30687  0.94174  1.0000
  Ti  Ti33      1.0  0.12472  0.85006  0.38725  1.0000
  Ti  Ti34      1.0  0.36299  0.40711  0.68838  1.0000
  Ti  Ti35      1.0  0.63320  0.65522  0.81097  1.0000
  Ti  Ti36      1.0  0.85374  0.09083  0.92686  1.0000
  Ti  Ti37      1.0  0.21772  0.41523  0.41878  1.0000
  Ti  Ti38      1.0  0.42919  0.36889  0.02566  1.0000
  Ti  Ti39      1.0  0.86551  0.64919  0.25421  1.0000
  Ti  Ti40      1.0  0.30211  0.39328  0.93756  1.0000
  Ti  Ti41      1.0  0.52758  0.59030  0.66924  1.0000
  Ti  Ti42      1.0  0.00973  0.25891  0.33885  1.0000
  Ti  Ti43      1.0  0.48658  0.03654  0.28681  1.0000
  Ti  Ti44      1.0  0.89079  0.52382  0.75851  1.0000
  Ti  Ti45      1.0  0.32768  0.64283  0.59473  1.0000
  Ti  Ti46      1.0  0.61413  0.37599  0.28121  1.0000
  Ti  Ti47      1.0  0.28486  0.51688  0.30265  1.0000
  Ti  Ti48      1.0  0.68426  0.24047  0.01448  1.0000
  Ti  Ti49      1.0  0.89758  0.44910  0.24810  1.0000
  Ti  Ti50      1.0  0.98857  0.30116  0.77273  1.0000
  Ti  Ti51      1.0  0.65887  0.03827  0.90119  1.0000
  Ti  Ti52      1.0  0.85031  0.12343  0.36136  1.0000
  Ti  Ti53      1.0  0.42307  0.69052  0.14293  1.0000
  Ti  Ti54      1.0  0.95485  0.64349  0.98644  1.0000
  Ti  Ti55      1.0  0.83491  0.34038  0.51105  1.0000
  Ti  Ti56      1.0  0.13977  0.44150  0.80897  1.0000
  Ti  Ti57      1.0  0.26209  0.91785  0.00442  1.0000
  Ti  Ti58      1.0  0.60068  0.24053  0.40043  1.0000
  Ti  Ti59      1.0  0.25317  0.31920  0.15677  1.0000
  Ti  Ti60      1.0  0.21256  0.56352  0.55927  1.0000
  Ti  Ti61      1.0  0.72199  0.98851  0.53498  1.0000
  Ti  Ti62      1.0  0.07444  0.08945  0.23905  1.0000
  Ti  Ti63      1.0  0.00086  0.09901  0.61894  1.0000
  Ti  Ti64      1.0  0.81934  0.74683  0.04853  1.0000
  Ti  Ti65      1.0  0.70388  0.85844  0.83210  1.0000
  Ti  Ti66      1.0  0.50702  0.21466  0.03081  1.0000
  Ti  Ti67      1.0  0.63141  0.48506  0.96953  1.0000
  Ti  Ti68      1.0  0.89670  0.47241  0.98649  1.0000
  Ti  Ti69      1.0  0.47159  0.70010  0.82792  1.0000
  Ti  Ti70      1.0  0.56696  0.81685  0.42753  1.0000
  Ti  Ti71      1.0  0.45025  0.07536  0.63492  1.0000
  Ti  Ti72      1.0  0.99553  0.20561  0.09639  1.0000
  Ti  Ti73      1.0  0.82662  0.17346  0.69515  1.0000
  Ti  Ti74      1.0  0.61088  0.83069  0.68567  1.0000
  Ti  Ti75      1.0  0.31584  0.84066  0.53353  1.0000
  Ti  Ti76      1.0  0.53592  0.97823  0.94062  1.0000
  Ti  Ti77      1.0  0.66539  0.50856  0.60054  1.0000
  Ti  Ti78      1.0  0.96173  0.86619  0.06584  1.0000
  Ti  Ti79      1.0  0.72380  0.29559  0.80413  1.0000
  Ti  Ti80      1.0  0.71227  0.36677  0.12210  1.0000
  Ti  Ti81      1.0  0.89879  0.34601  0.01982  1.0000
  Ti  Ti82      1.0  0.29699  0.42355  0.62227  1.0000
  Ti  Ti83      1.0  0.62164  0.71112  0.79767  1.0000
  Ti  Ti84      1.0  0.85724  0.04061  0.93422  1.0000
  Ti  Ti85      1.0  0.23513  0.35889  0.44516  1.0000
  Ti  Ti86      1.0  0.50675  0.28324  0.02479  1.0000
  Ti  Ti87      1.0  0.83127  0.61484  0.19100  1.0000
  Ti  Ti88      1.0  0.51326  0.52007  0.28006  1.0000
  Ti  Ti89      1.0  0.46413  0.64421  0.61620  1.0000
  Ti  Ti90      1.0  0.00070  0.31143  0.27483  1.0000
  Ti  Ti91      1.0  0.33064  0.64736  0.68280  1.0000
  Ti  Ti92      1.0  0.29510  0.52021  0.94985  1.0000
  Ti  Ti93      1.0  0.85588  0.49986  0.76569  1.0000
  Ti  Ti94      1.0  0.72294  0.18948  0.98683  1.0000
  Ti  Ti95      1.0  0.65089  0.34468  0.36664  1.0000
  Ti  Ti96      1.0  0.27956  0.53086  0.22182  1.0000
  I   I1        1.0  0.31044  0.48209  0.26268  1.0000
  I   I2        1.0  0.62317  0.07648  0.90698  1.0000
  I   I3        1.0  0.89856  0.41251  0.26678  1.0000
  I   I4        1.0  0.44290  0.68710  0.07534  1.0000
  I   I5        1.0  0.94872  0.71581  0.98071  1.0000
  I   I6        1.0  0.94444  0.66357  0.05952  1.0000
  I   I7        1.0  0.26783  0.96982  0.36157  1.0000
  I   I8        1.0  0.11030  0.47139  0.85994  1.0000
  I   I9        1.0  0.28030  0.93963  0.04027  1.0000
  I   I10       1.0  0.84559  0.83200  0.45581  1.0000
  I   I11       1.0  0.13002  0.17485  0.14305  1.0000
  I   I12       1.0  0.60233  0.76330  0.28313  1.0000
  I   I13       1.0  0.11071  0.09776  0.22032  1.0000
  I   I14       1.0  0.98611  0.06678  0.63275  1.0000
  I   I15       1.0  0.76937  0.02425  0.59750  1.0000
  I   I16       1.0  0.81131  0.89703  0.46092  1.0000
  I   I17       1.0  0.49999  0.20889  0.10543  1.0000
  I   I18       1.0  0.85180  0.75322  0.02587  1.0000
  I   I19       1.0  0.12082  0.09837  0.76122  1.0000
  I   I20       1.0  0.11319  0.18086  0.25677  1.0000
  I   I21       1.0  0.16943  0.04362  0.35080  1.0000
  I   I22       1.0  0.54898  0.99103  0.66699  1.0000
  I   I23       1.0  0.44960  0.09058  0.70025  1.0000
  I   I24       1.0  0.60084  0.82329  0.44929  1.0000
  I   I25       1.0  0.62755  0.84853  0.63520  1.0000
  I   I26       1.0  0.31578  0.80123  0.54437  1.0000
  I   I27       1.0  0.86079  0.14882  0.63286  1.0000
  I   I28       1.0  0.63573  0.49955  0.54739  1.0000
  I   I29       1.0  0.99809  0.84713  0.11038  1.0000
  I   I30       1.0  0.51866  0.07153  0.90823  1.0000
  I   I31       1.0  0.69263  0.40607  0.15462  1.0000
  I   I32       1.0  0.92797  0.36176  0.00734  1.0000
  I   I33       1.0  0.73440  0.29502  0.88303  1.0000
  I   I34       1.0  0.65141  0.63373  0.88404  1.0000
  I   I35       1.0  0.81173  0.10380  0.95149  1.0000
  I   I36       1.0  0.35578  0.42696  0.75314  1.0000
  I   I37       1.0  0.26820  0.32996  0.48981  1.0000
  I   I38       1.0  0.84353  0.57278  0.18324  1.0000
  I   I39       1.0  0.22914  0.38384  0.35869  1.0000
  I   I40       1.0  0.50804  0.61526  0.59554  1.0000
  I   I41       1.0  0.98734  0.32476  0.19958  1.0000
  I   I42       1.0  0.34671  0.37938  0.93651  1.0000
  I   I43       1.0  0.56865  0.25214  0.35335  1.0000
  I   I44       1.0  0.92050  0.52150  0.70931  1.0000
  I   I45       1.0  0.34973  0.66925  0.60379  1.0000
  I   I46       1.0  0.69766  0.31347  0.34883  1.0000
  I   I47       1.0  0.31137  0.50147  0.37190  1.0000
  I   I48       1.0  0.69654  0.27090  0.00610  1.0000
  I   I49       1.0  0.86253  0.47215  0.20568  1.0000
  I   I50       1.0  0.63012  0.97470  0.90802  1.0000
  I   I51       1.0  0.63559  0.01557  0.84711  1.0000
  I   I52       1.0  0.83790  0.20088  0.20638  1.0000
  I   I53       1.0  0.37876  0.70497  0.15154  1.0000
  I   I54       1.0  0.94567  0.61609  0.94634  1.0000
  I   I55       1.0  0.80066  0.30766  0.65637  1.0000
  I   I56       1.0  0.22036  0.04417  0.40547  1.0000
  I   I57       1.0  0.29054  0.96402  0.13520  1.0000
  I   I58       1.0  0.85354  0.88384  0.35907  1.0000
  I   I59       1.0  0.29262  0.27832  0.16301  1.0000
  I   I60       1.0  0.18169  0.60582  0.58762  1.0000
  I   I61       1.0  0.04192  0.09063  0.19931  1.0000
  I   I62       1.0  0.15186  0.02236  0.12521  1.0000
  I   I63       1.0  0.92440  0.09309  0.51518  1.0000
  I   I64       1.0  0.88107  0.89459  0.45326  1.0000
  I   I65       1.0  0.73009  0.81610  0.84573  1.0000
  I   I66       1.0  0.54874  0.20263  0.03204  1.0000
  I   I67       1.0  0.63110  0.44038  0.96228  1.0000
  I   I68       1.0  0.08495  0.07480  0.82972  1.0000
  I   I69       1.0  0.48185  0.66595  0.86811  1.0000
  I   I70       1.0  0.52531  0.84316  0.44004  1.0000
  I   I71       1.0  0.53369  0.04777  0.59113  1.0000
  I   I72       1.0  0.01951  0.20157  0.03309  1.0000
  I   I73       1.0  0.79073  0.20750  0.62490  1.0000
  I   I74       1.0  0.31773  0.84113  0.44986  1.0000
  I   I75       1.0  0.36310  0.82829  0.50850  1.0000
  I   I76       1.0  0.64784  0.49786  0.41298  1.0000
  I   I77       1.0  0.65653  0.49823  0.67462  1.0000
  I   I78       1.0  0.96463  0.89078  0.99590  1.0000
  I   I79       1.0  0.12502  0.84715  0.31038  1.0000
  I   I80       1.0  0.15698  0.66236  0.86475  1.0000
  I   I81       1.0  0.90604  0.33992  0.93504  1.0000
  I   I82       1.0  0.27828  0.39785  0.61476  1.0000
  I   I83       1.0  0.60512  0.70024  0.86104  1.0000
  I   I84       1.0  0.87010  0.05944  0.99191  1.0000
  I   I85       1.0  0.19013  0.38908  0.44555  1.0000
  I   I86       1.0  0.48621  0.31738  0.97646  1.0000
  I   I87       1.0  0.86163  0.68786  0.24862  1.0000
  I   I88       1.0  0.28890  0.36530  0.95380  1.0000
  I   I89       1.0  0.42640  0.66155  0.65417  1.0000
  I   I90       1.0  0.98312  0.35185  0.29925  1.0000
  I   I91       1.0  0.37771  0.62384  0.70208  1.0000
  I   I92       1.0  0.28244  0.49597  0.99037  1.0000
  I   I93       1.0  0.88984  0.55653  0.80304  1.0000
  I   I94       1.0  0.74582  0.21185  0.97583  1.0000
  I   I95       1.0  0.60845  0.40054  0.21973  1.0000
  I   I96       1.0  0.29975  0.51420  0.15329  1.0000
  I   I97       1.0  0.59991  0.94926  0.25414  1.0000
  I   I98       1.0  0.08675  0.84103  0.04633  1.0000
  I   I99       1.0  0.68271  0.96316  0.83184  1.0000
  I   I100      1.0  0.88195  0.21001  0.25936  1.0000
  I   I101      1.0  0.87243  0.12766  0.41419  1.0000
  I   I102      1.0  0.56655  0.81436  0.21753  1.0000
  I   I103      1.0  0.87255  0.31938  0.47110  1.0000
  I   I104      1.0  0.83540  0.25219  0.59672  1.0000
  I   I105      1.0  0.24985  0.88643  0.00702  1.0000
  I   I106      1.0  0.14673  0.62316  0.73279  1.0000
  I   I107      1.0  0.92905  0.85712  0.34345  1.0000
  I   I108      1.0  0.20084  0.62919  0.70718  1.0000
  I   I109      1.0  0.81940  0.95917  0.57532  1.0000
  I   I110      1.0  0.10544  0.04785  0.20548  1.0000
  I   I111      1.0  0.00219  0.13695  0.60972  1.0000
  I   I112      1.0  0.83043  0.71504  0.95134  1.0000
  I   I113      1.0  0.71037  0.87634  0.89168  1.0000
  I   I114      1.0  0.32747  0.01350  0.61973  1.0000
  I   I115      1.0  0.66166  0.49384  0.99812  1.0000
  I   I116      1.0  0.62782  0.38852  0.98459  1.0000
  I   I117      1.0  0.92085  0.44644  0.92941  1.0000
  I   I118      1.0  0.80178  0.76422  0.44063  1.0000
  I   I119      1.0  0.57213  0.84189  0.35637  1.0000
  I   I120      1.0  0.99067  0.16947  0.11057  1.0000
  I   I121      1.0  0.84614  0.19866  0.69647  1.0000
  I   I122      1.0  0.53722  0.86624  0.79845  1.0000
  I   I123      1.0  0.39407  0.76865  0.50289  1.0000
  I   I124      1.0  0.56521  0.00352  0.96103  1.0000
  I   I125      1.0  0.69612  0.49803  0.43177  1.0000
  I   I126      1.0  0.93769  0.85526  0.11499  1.0000
  I   I127      1.0  0.16809  0.83342  0.39598  1.0000
  I   I128      1.0  0.75771  0.35455  0.11169  1.0000
  I   I129      1.0  0.91072  0.31625  0.08236  1.0000
  I   I130      1.0  0.83591  0.12755  0.87070  1.0000
  I   I131      1.0  0.31977  0.44494  0.66138  1.0000
  I   I132      1.0  0.62158  0.68729  0.73681  1.0000
  I   I133      1.0  0.85274  0.63725  0.32676  1.0000
  I   I134      1.0  0.39413  0.40075  0.05435  1.0000
  I   I135      1.0  0.51992  0.30652  0.07265  1.0000
  I   I136      1.0  0.05202  0.23529  0.32184  1.0000
  I   I137      1.0  0.52444  0.48646  0.33012  1.0000
  I   I138      1.0  0.56891  0.57250  0.63057  1.0000
  I   I139      1.0  0.30838  0.62086  0.63717  1.0000
  I   I140      1.0  0.32339  0.49765  0.89282  1.0000
  I   I141      1.0  0.85219  0.53213  0.70441  1.0000
  I   I142      1.0  0.75123  0.15791  0.04174  1.0000
  I   I143      1.0  0.65845  0.33855  0.44735  1.0000
  I   I144      1.0  0.30780  0.53852  0.25807  1.0000
  I   I145      1.0  0.08495  0.79745  0.14330  1.0000
  I   I146      1.0  0.68562  0.95662  0.96978  1.0000
  I   I147      1.0  0.63889  0.90945  0.35304  1.0000
  I   I148      1.0  0.85067  0.14481  0.29699  1.0000
  I   I149      1.0  0.62218  0.81570  0.25317  1.0000
  I   I150      1.0  0.91732  0.73273  0.88496  1.0000
  I   I151      1.0  0.82709  0.38106  0.52632  1.0000
  I   I152      1.0  0.27435  0.99707  0.45634  1.0000
  I   I153      1.0  0.29266  0.89713  0.94853  1.0000
  I   I154      1.0  0.51712  0.00137  0.32774  1.0000
  I   I155      1.0  0.18915  0.14685  0.23732  1.0000
  I   I156      1.0  0.23123  0.51734  0.57418  1.0000
  I   I157      1.0  0.76764  0.96574  0.65166  1.0000
  I   I158      1.0  0.01107  0.09450  0.69509  1.0000
  I   I159      1.0  0.69067  0.98336  0.57569  1.0000
  I   I160      1.0  0.76611  0.75515  0.90282  1.0000
  I   I161      1.0  0.28740  0.04617  0.71075  1.0000
  I   I162      1.0  0.80536  0.76522  0.11680  1.0000
  I   I163      1.0  0.57039  0.44770  0.02784  1.0000
  I   I164      1.0  0.91820  0.45049  0.05085  1.0000
  I   I165      1.0  0.20818  0.98490  0.32078  1.0000
  I   I166      1.0  0.76673  0.81324  0.35094  1.0000
  I   I167      1.0  0.47883  0.04026  0.56871  1.0000
  I   I168      1.0  0.35272  0.77071  0.95789  1.0000
  I   I169      1.0  0.60290  0.79712  0.65417  1.0000
  I   I170      1.0  0.56953  0.86238  0.65834  1.0000
  I   I171      1.0  0.77037  0.17976  0.54046  1.0000
  I   I172      1.0  0.57447  0.94151  0.96207  1.0000
  I   I173      1.0  0.04360  0.81357  0.04692  1.0000
  I   I174      1.0  0.49544  0.04449  0.99687  1.0000
  I   I175      1.0  0.16039  0.61018  0.93320  1.0000
  I   I176      1.0  0.88058  0.31398  0.86877  1.0000
  I   I177      1.0  0.76158  0.27276  0.77156  1.0000
  I   I178      1.0  0.26695  0.44298  0.68435  1.0000
  I   I179      1.0  0.63230  0.73928  0.75227  1.0000
  I   I180      1.0  0.88701  0.00155  0.94000  1.0000
  I   I181      1.0  0.23563  0.33203  0.39239  1.0000
  I   I182      1.0  0.54729  0.26377  0.99302  1.0000
  I   I183      1.0  0.78928  0.63289  0.21545  1.0000
  I   I184      1.0  0.55214  0.50759  0.23945  1.0000
  I   I185      1.0  0.52828  0.60165  0.74452  1.0000
  I   I186      1.0  0.04172  0.29890  0.24159  1.0000
  I   I187      1.0  0.25822  0.54896  0.91489  1.0000
  I   I188      1.0  0.91201  0.49746  0.82929  1.0000
  I   I189      1.0  0.29161  0.67530  0.64000  1.0000
  I   I190      1.0  0.65496  0.33266  0.28019  1.0000
  I   I191      1.0  0.03193  0.28471  0.78274  1.0000
  I   I192      1.0  0.64617  0.24861  0.04863  1.0000
  I   I193      1.0  0.13905  0.78144  0.08319  1.0000
  I   I194      1.0  0.97453  0.28947  0.84336  1.0000
  I   I195      1.0  0.65066  0.88566  0.23617  1.0000
  I   I196      1.0  0.84482  0.27291  0.20914  1.0000
  I   I197      1.0  0.58426  0.24934  0.47172  1.0000
  I   I198      1.0  0.97819  0.69499  0.85184  1.0000
  I   I199      1.0  0.84862  0.28761  0.52970  1.0000
  I   I200      1.0  0.11658  0.41901  0.78790  1.0000
  I   I201      1.0  0.28193  0.90410  0.18352  1.0000
  I   I202      1.0  0.23918  0.34262  0.22271  1.0000
  I   I203      1.0  0.44905  0.74118  0.85199  1.0000
  I   I204      1.0  0.21442  0.57170  0.65989  1.0000
  I   I205      1.0  0.17558  0.04466  0.21829  1.0000
  I   I206      1.0  0.03483  0.07676  0.56536  1.0000
  I   I207      1.0  0.72672  0.01347  0.59849  1.0000
  I   I208      1.0  0.85094  0.86539  0.54165  1.0000
  I   I209      1.0  0.28601  0.99390  0.65185  1.0000
  I   I210      1.0  0.80869  0.77657  0.89343  1.0000
  I   I211      1.0  0.64419  0.47986  0.89773  1.0000
  I   I212      1.0  0.13680  0.02722  0.75188  1.0000
  I   I213      1.0  0.51296  0.69460  0.82767  1.0000
  I   I214      1.0  0.82834  0.76057  0.33942  1.0000
  I   I215      1.0  0.43173  0.10925  0.58382  1.0000
  I   I216      1.0  0.33475  0.81601  0.87467  1.0000
  I   I217      1.0  0.60079  0.80901  0.77004  1.0000
  I   I218      1.0  0.33443  0.83867  0.60879  1.0000
  I   I219      1.0  0.82795  0.14015  0.53300  1.0000
  I   I220      1.0  0.69383  0.47773  0.54638  1.0000
  I   I221      1.0  0.01040  0.88949  0.04964  1.0000
  I   I222      1.0  0.54364  0.99919  0.86771  1.0000
  I   I223      1.0  0.12324  0.68324  0.98220  1.0000
  I   I224      1.0  0.94125  0.28123  0.94699  1.0000
  I   I225      1.0  0.10878  0.88729  0.43033  1.0000
  I   I226      1.0  0.29527  0.43966  0.54994  1.0000
  I   I227      1.0  0.66578  0.69306  0.81270  1.0000
  I   I228      1.0  0.86081  0.11342  0.98492  1.0000
  I   I229      1.0  0.23702  0.44209  0.40334  1.0000
  I   I230      1.0  0.46215  0.37715  0.04318  1.0000
  I   I231      1.0  0.82267  0.62581  0.11580  1.0000
  I   I232      1.0  0.92582  0.10036  0.62598  1.0000
  I   I233      1.0  0.52925  0.55175  0.67105  1.0000
  I   I234      1.0  0.96919  0.29764  0.30384  1.0000
  I   I235      1.0  0.45964  0.01697  0.27020  1.0000
  I   I236      1.0  0.89544  0.46550  0.74789  1.0000
  I   I237      1.0  0.32127  0.68239  0.73407  1.0000
  I   I238      1.0  0.64734  0.38675  0.33557  1.0000
  I   I239      1.0  0.25145  0.56841  0.17734  1.0000
  I   I240      1.0  0.71699  0.21456  0.07061  1.0000
  I   I241      1.0  0.88228  0.48256  0.30062  1.0000
  I   I242      1.0  0.67322  0.04487  0.82717  1.0000
  I   I243      1.0  0.59637  0.89133  0.31486  1.0000
  I   I244      1.0  0.80854  0.14203  0.39045  1.0000
  I   I245      1.0  0.44341  0.64906  0.16348  1.0000
  I   I246      1.0  0.92367  0.67609  0.92444  1.0000
  I   I247      1.0  0.80576  0.34289  0.46340  1.0000
  I   I248      1.0  0.29243  0.02351  0.36539  1.0000
  I   I249      1.0  0.25004  0.92247  0.08956  1.0000
  I   I250      1.0  0.24524  0.35620  0.11114  1.0000
  I   I251      1.0  0.14596  0.21717  0.22696  1.0000
  I   I252      1.0  0.18434  0.56085  0.51557  1.0000
  I   I253      1.0  0.05650  0.13476  0.25467  1.0000
  I   I254      1.0  0.97130  0.11502  0.54574  1.0000
  I   I255      1.0  0.70369  0.99668  0.46014  1.0000
  I   I256      1.0  0.66000  0.86717  0.83573  1.0000
  I   I257      1.0  0.26981  0.03769  0.56144  1.0000
  I   I258      1.0  0.78649  0.73381  0.02820  1.0000
  I   I259      1.0  0.59902  0.52345  0.94924  1.0000
  I   I260      1.0  0.85698  0.47541  0.99442  1.0000
  I   I261      1.0  0.21513  0.99930  0.42319  1.0000
  I   I262      1.0  0.78336  0.73920  0.32104  1.0000
  I   I263      1.0  0.42477  0.05797  0.64148  1.0000
  I   I264      1.0  0.27979  0.81683  0.94048  1.0000
  I   I265      1.0  0.54211  0.82768  0.70619  1.0000
  I   I266      1.0  0.39356  0.79389  0.40776  1.0000
  I   I267      1.0  0.85290  0.14932  0.75651  1.0000
  I   I268      1.0  0.69691  0.51403  0.62956  1.0000
  I   I269      1.0  0.95130  0.90889  0.08650  1.0000
  I   I270      1.0  0.51328  0.96024  0.91420  1.0000
  I   I271      1.0  0.10052  0.65867  0.89906  1.0000
  I   I272      1.0  0.85992  0.35030  0.99042  1.0000
  I   I273      1.0  0.11955  0.81721  0.42451  1.0000
  I   I274      1.0  0.34296  0.38719  0.63728  1.0000
  I   I275      1.0  0.60421  0.64716  0.78008  1.0000
  I   I276      1.0  0.83464  0.04930  0.86777  1.0000
  I   I277      1.0  0.20314  0.43931  0.48182  1.0000
  I   I278      1.0  0.43140  0.33342  0.05663  1.0000
  I   I279      1.0  0.90512  0.63313  0.21051  1.0000
  I   I280      1.0  0.49172  0.51898  0.21475  1.0000
  I   I281      1.0  0.44743  0.63000  0.56208  1.0000
  I   I282      1.0  0.99028  0.23593  0.36611  1.0000
  I   I283      1.0  0.50825  0.04602  0.23374  1.0000
  I   I284      1.0  0.84606  0.48235  0.83036  1.0000
  I   I285      1.0  0.30103  0.65624  0.53099  1.0000
  I   I286      1.0  0.59222  0.35610  0.25712  1.0000
  I   I287      1.0  0.25412  0.50675  0.21317  1.0000
  I   I288      1.0  0.68724  0.23250  0.93388  1.0000
  I   I289      1.0  0.92800  0.44828  0.19675  1.0000
  I   I290      1.0  0.98202  0.34027  0.76789  1.0000
  I   I291      1.0  0.67902  0.05600  0.93842  1.0000
  I   I292      1.0  0.87059  0.08047  0.33697  1.0000
  I   I293      1.0  0.44578  0.70305  0.19203  1.0000
  I   I294      1.0  0.98305  0.64895  0.92995  1.0000
  I   I295      1.0  0.86729  0.29621  0.63448  1.0000
  I   I296      1.0  0.13521  0.46514  0.74232  1.0000
  I   I297      1.0  0.23019  0.95387  0.97087  1.0000
  I   I298      1.0  0.61655  0.26930  0.38476  1.0000
  I   I299      1.0  0.90466  0.82172  0.33913  1.0000
  I   I300      1.0  0.24469  0.56444  0.51660  1.0000
  I   I301      1.0  0.73428  0.94591  0.50865  1.0000
  I   I302      1.0  0.14319  0.08722  0.13331  1.0000
  I   I303      1.0  0.29021  0.42295  0.99691  1.0000
  I   I304      1.0  0.79093  0.78743  0.00862  1.0000
  I   I305      1.0  0.89908  0.82693  0.45452  1.0000
  I   I306      1.0  0.48395  0.25801  0.00653  1.0000
  I   I307      1.0  0.63655  0.41030  0.09160  1.0000
  I   I308      1.0  0.08407  0.08418  0.69767  1.0000
  I   I309      1.0  0.24975  0.01877  0.29557  1.0000
  I   I310      1.0  0.56501  0.77824  0.45562  1.0000
  I   I311      1.0  0.53857  0.98021  0.56857  1.0000
  I   I312      1.0  0.01897  0.20767  0.15540  1.0000
  I   I313      1.0  0.81260  0.14447  0.66841  1.0000
  I   I314      1.0  0.59763  0.86307  0.73945  1.0000
  I   I315      1.0  0.27469  0.87309  0.54411  1.0000
  I   I316      1.0  0.52264  0.98379  0.02048  1.0000
  I   I317      1.0  0.64143  0.54618  0.50504  1.0000
  I   I318      1.0  0.02661  0.84899  0.95930  1.0000
  I   I319      1.0  0.69575  0.30089  0.74903  1.0000
  I   I320      1.0  0.69692  0.36062  0.05329  1.0000
  I   I321      1.0  0.88004  0.28541  0.98542  1.0000
  I   I322      1.0  0.38948  0.42310  0.65484  1.0000
  I   I323      1.0  0.67191  0.63500  0.77083  1.0000
  I   I324      1.0  0.88792  0.06116  0.88225  1.0000
  I   I325      1.0  0.17399  0.44059  0.37614  1.0000
  I   I326      1.0  0.51227  0.25457  0.08820  1.0000
  I   I327      1.0  0.83105  0.65671  0.21217  1.0000
  I   I328      1.0  0.28210  0.39731  0.86552  1.0000
  I   I329      1.0  0.47837  0.61736  0.68742  1.0000
  I   I330      1.0  0.00489  0.27061  0.25119  1.0000
  I   I331      1.0  0.35972  0.60326  0.57898  1.0000
  I   I332      1.0  0.63164  0.19614  0.40232  1.0000
  I   I333      1.0  0.85365  0.53138  0.81246  1.0000
  I   I334      1.0  0.67596  0.19734  0.99901  1.0000
  I   I335      1.0  0.59820  0.40058  0.34672  1.0000
  I   I336      1.0  0.24432  0.56035  0.28651  1.0000
  I   I337      1.0  0.09914  0.75916  0.03636  1.0000
  I   I338      1.0  0.97574  0.28522  0.71739  1.0000
  I   I339      1.0  0.65169  0.02098  0.96111  1.0000
  I   I340      1.0  0.87543  0.20912  0.14759  1.0000
  I   I341      1.0  0.57384  0.79061  0.36280  1.0000
  I   I342      1.0  0.98734  0.60403  0.01006  1.0000
  I   I343      1.0  0.80972  0.34397  0.58161  1.0000
  I   I344      1.0  0.18214  0.41013  0.83085  1.0000
  I   I345      1.0  0.23136  0.97084  0.16285  1.0000
  I   I346      1.0  0.47302  0.07135  0.33622  1.0000
  I   I347      1.0  0.21825  0.31631  0.13290  1.0000
  I   I348      1.0  0.14880  0.65988  0.64825  1.0000
  I   I349      1.0  0.76198  0.99044  0.50573  1.0000
  I   I350      1.0  0.05981  0.08213  0.30585  1.0000
  I   I351      1.0  0.99515  0.05069  0.52962  1.0000
  I   I352      1.0  0.84258  0.70815  0.09398  1.0000
  I   I353      1.0  0.72840  0.85965  0.76980  1.0000
  I   I354      1.0  0.50615  0.18288  0.99201  1.0000
  I   I355      1.0  0.61721  0.46892  0.03623  1.0000
  I   I356      1.0  0.89542  0.51053  0.97314  1.0000
  I   I357      1.0  0.46582  0.69215  0.75309  1.0000
  I   I358      1.0  0.31280  0.76604  0.85491  1.0000
  I   I359      1.0  0.49349  0.03708  0.67245  1.0000
  I   I360      1.0  0.95577  0.23365  0.11471  1.0000
  I   I361      1.0  0.79501  0.20332  0.74545  1.0000
  I   I362      1.0  0.65800  0.79918  0.68938  1.0000
  I   I363      1.0  0.35391  0.76673  0.44544  1.0000
  I   I364      1.0  0.49230  0.02570  0.88956  1.0000
  I   I365      1.0  0.63851  0.55198  0.62009  1.0000
  I   I366      1.0  0.98497  0.82461  0.02506  1.0000
  I   I367      1.0  0.72316  0.33415  0.77994  1.0000
  I   I368      1.0  0.71826  0.33912  0.17970  1.0000
  I   I369      1.0  0.87588  0.38093  0.06583  1.0000
  I   I370      1.0  0.39754  0.36210  0.69130  1.0000
  I   I371      1.0  0.58015  0.74632  0.79670  1.0000
  I   I372      1.0  0.82791  0.03516  0.96864  1.0000
  I   I373      1.0  0.25666  0.38997  0.45184  1.0000
  I   I374      1.0  0.41677  0.37341  0.94919  1.0000
  I   I375      1.0  0.87613  0.60260  0.23156  1.0000
  I   I376      1.0  0.50127  0.55711  0.31608  1.0000
  I   I377      1.0  0.46441  0.68746  0.59997  1.0000
  I   I378      1.0  0.00268  0.28843  0.39422  1.0000
  I   I379      1.0  0.32024  0.63223  0.75250  1.0000
  I   I380      1.0  0.31534  0.53227  0.00228  1.0000
  I   I381      1.0  0.84397  0.48130  0.69822  1.0000
  I   I382      1.0  0.73258  0.15997  0.92943  1.0000
  I   I383      1.0  0.61312  0.34099  0.37594  1.0000
  I   I384      1.0  0.25253  0.50698  0.32430  1.0000
