data_image0
_chemical_formula_structural       Ti96I384
_chemical_formula_sum              "Ti96 I384"
_cell_length_a       52.4799
_cell_length_b       52.7309
_cell_length_c       25.4038
_cell_angle_alpha    88.7757
_cell_angle_beta     88.7757
_cell_angle_gamma    62.1586

_space_group_name_H-M_alt    "P 1"
_space_group_IT_number       1

loop_
  _space_group_symop_operation_xyz
  'x, y, z'

loop_
  _atom_site_type_symbol
  _atom_site_label
  _atom_site_symmetry_multiplicity
  _atom_site_fract_x
  _atom_site_fract_y
  _atom_site_fract_z
  _atom_site_occupancy
  Ti  Ti1       1.0  0.59609  0.78351  0.30843  1.0000
  Ti  Ti2       1.0  0.09220  0.96747  0.15324  1.0000
  Ti  Ti3       1.0  0.43219  0.89538  0.23602  1.0000
  Ti  Ti4       1.0  0.27622  0.03479  0.48875  1.0000
  Ti  Ti5       1.0  0.17992  0.31789  0.47651  1.0000
  Ti  Ti6       1.0  0.16805  0.16906  0.91203  1.0000
  Ti  Ti7       1.0  0.98597  0.79681  0.10956  1.0000
  Ti  Ti8       1.0  0.96902  0.03782  0.55487  1.0000
  Ti  Ti9       1.0  0.88388  0.80003  0.36838  1.0000
  Ti  Ti10      1.0  0.32644  0.76576  0.94759  1.0000
  Ti  Ti11      1.0  0.91242  0.76280  0.78996  1.0000
  Ti  Ti12      1.0  0.07623  0.73371  0.83710  1.0000
  Ti  Ti13      1.0  0.32103  0.19103  0.34751  1.0000
  Ti  Ti14      1.0  0.38099  0.10379  0.62973  1.0000
  Ti  Ti15      1.0  0.29989  0.17975  0.03349  1.0000
  Ti  Ti16      1.0  0.25991  0.58979  0.10014  1.0000
  Ti  Ti17      1.0  0.19836  0.63318  0.41461  1.0000
  Ti  Ti18      1.0  0.28013  0.41550  0.46493  1.0000
  Ti  Ti19      1.0  0.40952  0.68493  0.52578  1.0000
  Ti  Ti20      1.0  0.64019  0.79107  0.78055  1.0000
  Ti  Ti21      1.0  0.32824  0.56116  0.81748  1.0000
  Ti  Ti22      1.0  0.41682  0.95217  0.84534  1.0000
  Ti  Ti23      1.0  0.70535  0.85431  0.06338  1.0000
  Ti  Ti24      1.0  0.46279  0.80563  0.68643  1.0000
  Ti  Ti25      1.0  0.33578  0.27453  0.77244  1.0000
  Ti  Ti26      1.0  0.33048  0.32963  0.02939  1.0000
  Ti  Ti27      1.0  0.50213  0.47352  0.57015  1.0000
  Ti  Ti28      1.0  0.41710  0.60386  0.28163  1.0000
  Ti  Ti29      1.0  0.71550  0.40408  0.95825  1.0000
  Ti  Ti30      1.0  0.65430  0.57765  0.85437  1.0000
  Ti  Ti31      1.0  0.94142  0.49436  0.01536  1.0000
  Ti  Ti32      1.0  0.79344  0.41335  0.60930  1.0000
  Ti  Ti33      1.0  0.87382  0.52579  0.78392  1.0000
  Ti  Ti34      1.0  0.80120  0.02688  0.91378  1.0000
  Ti  Ti35      1.0  0.72570  0.65857  0.13375  1.0000
  Ti  Ti36      1.0  0.82401  0.59651  0.47272  1.0000
  Ti  Ti37      1.0  0.68702  0.21627  0.26166  1.0000
  Ti  Ti38      1.0  0.65063  0.36890  0.21316  1.0000
  Ti  Ti39      1.0  0.48889  0.33943  0.90664  1.0000
  Ti  Ti40      1.0  0.89864  0.22910  0.97061  1.0000
  Ti  Ti41      1.0  0.75410  0.27145  0.57799  1.0000
  Ti  Ti42      1.0  0.28437  0.80222  0.27726  1.0000
  Ti  Ti43      1.0  0.79496  0.41888  0.29572  1.0000
  Ti  Ti44      1.0  0.00375  0.49461  0.56867  1.0000
  Ti  Ti45      1.0  0.09124  0.46824  0.83925  1.0000
  Ti  Ti46      1.0  0.69099  0.98455  0.61591  1.0000
  Ti  Ti47      1.0  0.58537  0.07598  0.37647  1.0000
  Ti  Ti48      1.0  0.57718  0.13939  0.77006  1.0000
  Ti  Ti49      1.0  0.50664  0.81842  0.27088  1.0000
  Ti  Ti50      1.0  0.08921  0.89662  0.19282  1.0000
  Ti  Ti51      1.0  0.08752  0.05602  0.17066  1.0000
  Ti  Ti52      1.0  0.28163  0.96614  0.45341  1.0000
  Ti  Ti53      1.0  0.16999  0.24707  0.46911  1.0000
  Ti  Ti54      1.0  0.15543  0.24147  0.84176  1.0000
  Ti  Ti55      1.0  0.90933  0.81805  0.18835  1.0000
  Ti  Ti56      1.0  0.92739  0.07736  0.48830  1.0000
  Ti  Ti57      1.0  0.81555  0.87480  0.41194  1.0000
  Ti  Ti58      1.0  0.27069  0.79147  0.80290  1.0000
  Ti  Ti59      1.0  0.32880  0.69031  0.00827  1.0000
  Ti  Ti60      1.0  0.99938  0.72776  0.81646  1.0000
  Ti  Ti61      1.0  0.30794  0.15122  0.19955  1.0000
  Ti  Ti62      1.0  0.36561  0.24139  0.37080  1.0000
  Ti  Ti63      1.0  0.31269  0.15280  0.68786  1.0000
  Ti  Ti64      1.0  0.25145  0.44235  0.34375  1.0000
  Ti  Ti65      1.0  0.20937  0.62867  0.24720  1.0000
  Ti  Ti66      1.0  0.09380  0.61724  0.48009  1.0000
  Ti  Ti67      1.0  0.43781  0.68086  0.67892  1.0000
  Ti  Ti68      1.0  0.71257  0.74705  0.83652  1.0000
  Ti  Ti69      1.0  0.32576  0.55785  0.63369  1.0000
  Ti  Ti70      1.0  0.44276  0.87763  0.74853  1.0000
  Ti  Ti71      1.0  0.75033  0.82434  0.17906  1.0000
  Ti  Ti72      1.0  0.65274  0.92501  0.98040  1.0000
  Ti  Ti73      1.0  0.56781  0.45655  0.60481  1.0000
  Ti  Ti74      1.0  0.27740  0.34328  0.89081  1.0000
  Ti  Ti75      1.0  0.27900  0.40936  0.10996  1.0000
  Ti  Ti76      1.0  0.62480  0.62877  0.75533  1.0000
  Ti  Ti77      1.0  0.49561  0.53408  0.27306  1.0000
  Ti  Ti78      1.0  0.67083  0.48213  0.88739  1.0000
  Ti  Ti79      1.0  0.95269  0.44964  0.87498  1.0000
  Ti  Ti80      1.0  0.99773  0.48862  0.13703  1.0000
  Ti  Ti81      1.0  0.83114  0.42066  0.68446  1.0000
  Ti  Ti82      1.0  0.82660  0.01124  0.07537  1.0000
  Ti  Ti83      1.0  0.78800  0.57697  0.16512  1.0000
  Ti  Ti84      1.0  0.73753  0.65210  0.48935  1.0000
  Ti  Ti85      1.0  0.67275  0.15045  0.23144  1.0000
  Ti  Ti86      1.0  0.68743  0.27821  0.15005  1.0000
  Ti  Ti87      1.0  0.48195  0.41868  0.92260  1.0000
  Ti  Ti88      1.0  0.94817  0.16447  0.92616  1.0000
  Ti  Ti89      1.0  0.73159  0.25861  0.73432  1.0000
  Ti  Ti90      1.0  0.24153  0.77152  0.25895  1.0000
  Ti  Ti91      1.0  0.16192  0.47297  0.76867  1.0000
  Ti  Ti92      1.0  0.83226  0.34790  0.24541  1.0000
  Ti  Ti93      1.0  0.02348  0.49913  0.72385  1.0000
  Ti  Ti94      1.0  0.59254  0.08909  0.88531  1.0000
  Ti  Ti95      1.0  0.63135  0.98757  0.51984  1.0000
  Ti  Ti96      1.0  0.53888  0.07298  0.24469  1.0000
  I   I1        1.0  0.04134  0.90102  0.22888  1.0000
  I   I2        1.0  0.10011  0.98758  0.06586  1.0000
  I   I3        1.0  0.48408  0.78129  0.25829  1.0000
  I   I4        1.0  0.21136  0.20271  0.52391  1.0000
  I   I5        1.0  0.20596  0.19167  0.87032  1.0000
  I   I6        1.0  0.20910  0.12124  0.86917  1.0000
  I   I7        1.0  0.92623  0.08940  0.58751  1.0000
  I   I8        1.0  0.00567  0.04469  0.60645  1.0000
  I   I9        1.0  0.89905  0.83811  0.29111  1.0000
  I   I10       1.0  0.30876  0.74348  0.03090  1.0000
  I   I11       1.0  0.95355  0.70593  0.84032  1.0000
  I   I12       1.0  0.28837  0.73831  0.75698  1.0000
  I   I13       1.0  0.35297  0.21420  0.29405  1.0000
  I   I14       1.0  0.36476  0.14413  0.72347  1.0000
  I   I15       1.0  0.26443  0.17135  0.11194  1.0000
  I   I16       1.0  0.20232  0.60597  0.14539  1.0000
  I   I17       1.0  0.05970  0.66331  0.42800  1.0000
  I   I18       1.0  0.27189  0.38426  0.36618  1.0000
  I   I19       1.0  0.71349  0.69868  0.81477  1.0000
  I   I20       1.0  0.33604  0.52534  0.55101  1.0000
  I   I21       1.0  0.28292  0.57366  0.87957  1.0000
  I   I22       1.0  0.75438  0.83616  0.27543  1.0000
  I   I23       1.0  0.69924  0.82158  0.15156  1.0000
  I   I24       1.0  0.49323  0.83612  0.72002  1.0000
  I   I25       1.0  0.23895  0.32364  0.87525  1.0000
  I   I26       1.0  0.32100  0.38985  0.03498  1.0000
  I   I27       1.0  0.45976  0.51667  0.50793  1.0000
  I   I28       1.0  0.44930  0.55322  0.20084  1.0000
  I   I29       1.0  0.65169  0.44413  0.94706  1.0000
  I   I30       1.0  0.61919  0.57622  0.78034  1.0000
  I   I31       1.0  0.99969  0.45786  0.04335  1.0000
  I   I32       1.0  0.83824  0.41835  0.57417  1.0000
  I   I33       1.0  0.93916  0.48405  0.78988  1.0000
  I   I34       1.0  0.71783  0.70369  0.07871  1.0000
  I   I35       1.0  0.71614  0.61766  0.46141  1.0000
  I   I36       1.0  0.86101  0.03427  0.09487  1.0000
  I   I37       1.0  0.64576  0.27524  0.21060  1.0000
  I   I38       1.0  0.46183  0.43605  0.02204  1.0000
  I   I39       1.0  0.62474  0.15870  0.18528  1.0000
  I   I40       1.0  0.76734  0.22812  0.80346  1.0000
  I   I41       1.0  0.20807  0.77301  0.18678  1.0000
  I   I42       1.0  0.90502  0.16650  0.99373  1.0000
  I   I43       1.0  0.80534  0.32338  0.19644  1.0000
  I   I44       1.0  0.98590  0.48580  0.67137  1.0000
  I   I45       1.0  0.04836  0.50911  0.89592  1.0000
  I   I46       1.0  0.63298  0.02182  0.60190  1.0000
  I   I47       1.0  0.54276  0.05265  0.35656  1.0000
  I   I48       1.0  0.60902  0.07594  0.77767  1.0000
  I   I49       1.0  0.54911  0.83961  0.29687  1.0000
  I   I50       1.0  0.14200  0.91683  0.15473  1.0000
  I   I51       1.0  0.09131  0.07677  0.25972  1.0000
  I   I52       1.0  0.24360  0.06294  0.56544  1.0000
  I   I53       1.0  0.16786  0.28183  0.55042  1.0000
  I   I54       1.0  0.16947  0.25550  0.75254  1.0000
  I   I55       1.0  0.92562  0.78310  0.11044  1.0000
  I   I56       1.0  0.91764  0.06066  0.39273  1.0000
  I   I57       1.0  0.82314  0.82119  0.36479  1.0000
  I   I58       1.0  0.37285  0.76550  0.98630  1.0000
  I   I59       1.0  0.28815  0.68679  0.06003  1.0000
  I   I60       1.0  0.01464  0.77020  0.78474  1.0000
  I   I61       1.0  0.34389  0.14198  0.28550  1.0000
  I   I62       1.0  0.42000  0.21554  0.35010  1.0000
  I   I63       1.0  0.37143  0.06450  0.68314  1.0000
  I   I64       1.0  0.31510  0.57923  0.08138  1.0000
  I   I65       1.0  0.23084  0.64554  0.34013  1.0000
  I   I66       1.0  0.14101  0.57198  0.52400  1.0000
  I   I67       1.0  0.48169  0.66060  0.74500  1.0000
  I   I68       1.0  0.62933  0.74667  0.77737  1.0000
  I   I69       1.0  0.30837  0.59684  0.72870  1.0000
  I   I70       1.0  0.38945  0.91412  0.80038  1.0000
  I   I71       1.0  0.76293  0.81328  0.06369  1.0000
  I   I72       1.0  0.66447  0.96512  0.99357  1.0000
  I   I73       1.0  0.51789  0.50733  0.62847  1.0000
  I   I74       1.0  0.32789  0.34158  0.91743  1.0000
  I   I75       1.0  0.23205  0.41199  0.15021  1.0000
  I   I76       1.0  0.39204  0.63546  0.36751  1.0000
  I   I77       1.0  0.52883  0.55226  0.23194  1.0000
  I   I78       1.0  0.68831  0.51756  0.83751  1.0000
  I   I79       1.0  0.93742  0.44170  0.97610  1.0000
  I   I80       1.0  0.97612  0.51036  0.22526  1.0000
  I   I81       1.0  0.81263  0.42144  0.78285  1.0000
  I   I82       1.0  0.81133  0.97580  0.88664  1.0000
  I   I83       1.0  0.70942  0.68262  0.22350  1.0000
  I   I84       1.0  0.71417  0.69073  0.41662  1.0000
  I   I85       1.0  0.68164  0.18942  0.16743  1.0000
  I   I86       1.0  0.73398  0.27730  0.09755  1.0000
  I   I87       1.0  0.51661  0.34782  0.98462  1.0000
  I   I88       1.0  0.90603  0.27310  0.93993  1.0000
  I   I89       1.0  0.78885  0.28355  0.52522  1.0000
  I   I90       1.0  0.28154  0.85229  0.28353  1.0000
  I   I91       1.0  0.14482  0.49588  0.67605  1.0000
  I   I92       1.0  0.79857  0.36421  0.33905  1.0000
  I   I93       1.0  0.06821  0.51012  0.76089  1.0000
  I   I94       1.0  0.58172  0.04833  0.91959  1.0000
  I   I95       1.0  0.63522  0.97308  0.42156  1.0000
  I   I96       1.0  0.54544  0.10894  0.18380  1.0000
  I   I97       1.0  0.48895  0.86577  0.20415  1.0000
  I   I98       1.0  0.61734  0.78131  0.39983  1.0000
  I   I99       1.0  0.13122  0.99853  0.18808  1.0000
  I   I100      1.0  0.33024  0.92503  0.41624  1.0000
  I   I101      1.0  0.32369  0.04019  0.51211  1.0000
  I   I102      1.0  0.15150  0.37120  0.50201  1.0000
  I   I103      1.0  0.89666  0.78309  0.26457  1.0000
  I   I104      1.0  0.03134  0.80556  0.09712  1.0000
  I   I105      1.0  0.78144  0.87047  0.48941  1.0000
  I   I106      1.0  0.09062  0.76545  0.76613  1.0000
  I   I107      1.0  0.36762  0.70293  0.93780  1.0000
  I   I108      1.0  0.98847  0.72365  0.71260  1.0000
  I   I109      1.0  0.27813  0.12815  0.23804  1.0000
  I   I110      1.0  0.36549  0.16395  0.40846  1.0000
  I   I111      1.0  0.43344  0.09312  0.61758  1.0000
  I   I112      1.0  0.31264  0.42748  0.38785  1.0000
  I   I113      1.0  0.26613  0.58215  0.21324  1.0000
  I   I114      1.0  0.18076  0.67785  0.46570  1.0000
  I   I115      1.0  0.40763  0.65471  0.69250  1.0000
  I   I116      1.0  0.44718  0.67399  0.43865  1.0000
  I   I117      1.0  0.59334  0.83951  0.79988  1.0000
  I   I118      1.0  0.41582  0.86608  0.65620  1.0000
  I   I119      1.0  0.40864  0.94052  0.94193  1.0000
  I   I120      1.0  0.68033  0.83909  0.99722  1.0000
  I   I121      1.0  0.50959  0.44258  0.48500  1.0000
  I   I122      1.0  0.31588  0.28006  0.87613  1.0000
  I   I123      1.0  0.38588  0.31345  0.01608  1.0000
  I   I124      1.0  0.68503  0.59648  0.79700  1.0000
  I   I125      1.0  0.42482  0.64240  0.22451  1.0000
  I   I126      1.0  0.70654  0.46033  0.97870  1.0000
  I   I127      1.0  0.88072  0.48454  0.86560  1.0000
  I   I128      1.0  0.92669  0.48417  0.10901  1.0000
  I   I129      1.0  0.78377  0.46644  0.64765  1.0000
  I   I130      1.0  0.78348  0.60787  0.55789  1.0000
  I   I131      1.0  0.79214  0.05974  0.00499  1.0000
  I   I132      1.0  0.82493  0.55023  0.23238  1.0000
  I   I133      1.0  0.45741  0.46664  0.87658  1.0000
  I   I134      1.0  0.72892  0.22109  0.20933  1.0000
  I   I135      1.0  0.59505  0.40488  0.19658  1.0000
  I   I136      1.0  0.34261  0.76984  0.28034  1.0000
  I   I137      1.0  0.95838  0.11604  0.86985  1.0000
  I   I138      1.0  0.76472  0.28693  0.68297  1.0000
  I   I139      1.0  0.13425  0.48440  0.87541  1.0000
  I   I140      1.0  0.87283  0.29928  0.27610  1.0000
  I   I141      1.0  0.05259  0.46192  0.63587  1.0000
  I   I142      1.0  0.61441  0.14335  0.70591  1.0000
  I   I143      1.0  0.68493  0.98753  0.49191  1.0000
  I   I144      1.0  0.59789  0.05515  0.27686  1.0000
  I   I145      1.0  0.53801  0.78852  0.18590  1.0000
  I   I146      1.0  0.06662  0.94181  0.10693  1.0000
  I   I147      1.0  0.39000  0.88407  0.22284  1.0000
  I   I148      1.0  0.26700  0.92680  0.48288  1.0000
  I   I149      1.0  0.12749  0.23395  0.49179  1.0000
  I   I150      1.0  0.12641  0.22543  0.93957  1.0000
  I   I151      1.0  0.96866  0.81221  0.22006  1.0000
  I   I152      1.0  0.98892  0.00802  0.46467  1.0000
  I   I153      1.0  0.87412  0.83241  0.45865  1.0000
  I   I154      1.0  0.29484  0.81692  0.98664  1.0000
  I   I155      1.0  0.86841  0.78469  0.85415  1.0000
  I   I156      1.0  0.03400  0.67346  0.81926  1.0000
  I   I157      1.0  0.28477  0.20233  0.25376  1.0000
  I   I158      1.0  0.38306  0.07492  0.55181  1.0000
  I   I159      1.0  0.30638  0.13100  0.99379  1.0000
  I   I160      1.0  0.28012  0.44024  0.55072  1.0000
  I   I161      1.0  0.21193  0.59289  0.33377  1.0000
  I   I162      1.0  0.32639  0.36280  0.49440  1.0000
  I   I163      1.0  0.41203  0.72096  0.74967  1.0000
  I   I164      1.0  0.73443  0.73486  0.93155  1.0000
  I   I165      1.0  0.35679  0.51437  0.87489  1.0000
  I   I166      1.0  0.43771  0.92613  0.69195  1.0000
  I   I167      1.0  0.71101  0.88351  0.14984  1.0000
  I   I168      1.0  0.42324  0.78754  0.68748  1.0000
  I   I169      1.0  0.37818  0.22649  0.79976  1.0000
  I   I170      1.0  0.27174  0.34985  0.01794  1.0000
  I   I171      1.0  0.53180  0.42789  0.64079  1.0000
  I   I172      1.0  0.63504  0.67363  0.74932  1.0000
  I   I173      1.0  0.70439  0.38688  0.04536  1.0000
  I   I174      1.0  0.63387  0.53200  0.93344  1.0000
  I   I175      1.0  0.97042  0.49230  0.91446  1.0000
  I   I176      1.0  0.80843  0.36638  0.55972  1.0000
  I   I177      1.0  0.88155  0.52591  0.68271  1.0000
  I   I178      1.0  0.85419  0.99264  0.96952  1.0000
  I   I179      1.0  0.78205  0.63381  0.19101  1.0000
  I   I180      1.0  0.81321  0.59921  0.37161  1.0000
  I   I181      1.0  0.63905  0.21620  0.29410  1.0000
  I   I182      1.0  0.69360  0.31188  0.22791  1.0000
  I   I183      1.0  0.46533  0.30935  0.96436  1.0000
  I   I184      1.0  0.89761  0.20785  0.87569  1.0000
  I   I185      1.0  0.78687  0.21735  0.59198  1.0000
  I   I186      1.0  0.22517  0.74491  0.32426  1.0000
  I   I187      1.0  0.78134  0.39416  0.19939  1.0000
  I   I188      1.0  0.00798  0.45259  0.51593  1.0000
  I   I189      1.0  0.05196  0.44909  0.79140  1.0000
  I   I190      1.0  0.67858  0.97340  0.71135  1.0000
  I   I191      1.0  0.59105  0.05485  0.47193  1.0000
  I   I192      1.0  0.53981  0.19164  0.77565  1.0000
  I   I193      1.0  0.62083  0.80012  0.22930  1.0000
  I   I194      1.0  0.06574  0.95371  0.24246  1.0000
  I   I195      1.0  0.41453  0.94445  0.28906  1.0000
  I   I196      1.0  0.23660  0.07966  0.43429  1.0000
  I   I197      1.0  0.14678  0.29878  0.41450  1.0000
  I   I198      1.0  0.13185  0.17134  0.83733  1.0000
  I   I199      1.0  0.98279  0.79369  0.00747  1.0000
  I   I200      1.0  0.87432  0.12418  0.46742  1.0000
  I   I201      1.0  0.87995  0.75059  0.38456  1.0000
  I   I202      1.0  0.32757  0.77503  0.84101  1.0000
  I   I203      1.0  0.89215  0.80528  0.72081  1.0000
  I   I204      1.0  0.12408  0.69081  0.86173  1.0000
  I   I205      1.0  0.28178  0.18569  0.40828  1.0000
  I   I206      1.0  0.34887  0.15483  0.58777  1.0000
  I   I207      1.0  0.26078  0.23499  0.03044  1.0000
  I   I208      1.0  0.26732  0.53936  0.08494  1.0000
  I   I209      1.0  0.24063  0.59869  0.47890  1.0000
  I   I210      1.0  0.23499  0.40828  0.49060  1.0000
  I   I211      1.0  0.38042  0.73078  0.47148  1.0000
  I   I212      1.0  0.75807  0.74575  0.78891  1.0000
  I   I213      1.0  0.35318  0.51955  0.71698  1.0000
  I   I214      1.0  0.36556  0.99622  0.83129  1.0000
  I   I215      1.0  0.71632  0.88938  0.99978  1.0000
  I   I216      1.0  0.49029  0.79292  0.59486  1.0000
  I   I217      1.0  0.30566  0.26526  0.70729  1.0000
  I   I218      1.0  0.33410  0.27896  0.04011  1.0000
  I   I219      1.0  0.59393  0.45538  0.69356  1.0000
  I   I220      1.0  0.37427  0.59901  0.24318  1.0000
  I   I221      1.0  0.70249  0.36756  0.90605  1.0000
  I   I222      1.0  0.68021  0.57443  0.94986  1.0000
  I   I223      1.0  0.89370  0.53835  0.98033  1.0000
  I   I224      1.0  0.75485  0.41442  0.68645  1.0000
  I   I225      1.0  0.81403  0.55167  0.80539  1.0000
  I   I226      1.0  0.81605  0.04483  0.82971  1.0000
  I   I227      1.0  0.68647  0.64727  0.10564  1.0000
  I   I228      1.0  0.87373  0.59674  0.47230  1.0000
  I   I229      1.0  0.71763  0.15494  0.27914  1.0000
  I   I230      1.0  0.68334  0.39283  0.19318  1.0000
  I   I231      1.0  0.44112  0.39291  0.92501  1.0000
  I   I232      1.0  0.84421  0.25419  0.00227  1.0000
  I   I233      1.0  0.69909  0.23037  0.74676  1.0000
  I   I234      1.0  0.29465  0.73028  0.23400  1.0000
  I   I235      1.0  0.74989  0.45080  0.34650  1.0000
  I   I236      1.0  0.94967  0.52849  0.55833  1.0000
  I   I237      1.0  0.12796  0.44048  0.75889  1.0000
  I   I238      1.0  0.73704  0.93530  0.61872  1.0000
  I   I239      1.0  0.63869  0.07050  0.37683  1.0000
  I   I240      1.0  0.53408  0.13406  0.72052  1.0000
  I   I241      1.0  0.62910  0.72719  0.30242  1.0000
  I   I242      1.0  0.05519  0.02155  0.18010  1.0000
  I   I243      1.0  0.41255  0.93820  0.16266  1.0000
  I   I244      1.0  0.22449  0.01093  0.48141  1.0000
  I   I245      1.0  0.18673  0.32948  0.37485  1.0000
  I   I246      1.0  0.17710  0.15850  0.01587  1.0000
  I   I247      1.0  0.00908  0.74084  0.12583  1.0000
  I   I248      1.0  0.96823  0.09035  0.46576  1.0000
  I   I249      1.0  0.93850  0.76792  0.38544  1.0000
  I   I250      1.0  0.26485  0.77996  0.90643  1.0000
  I   I251      1.0  0.89702  0.72987  0.74331  1.0000
  I   I252      1.0  0.07861  0.77132  0.90766  1.0000
  I   I253      1.0  0.31291  0.24472  0.41296  1.0000
  I   I254      1.0  0.28098  0.20652  0.69814  1.0000
  I   I255      1.0  0.33322  0.18452  0.95496  1.0000
  I   I256      1.0  0.23426  0.62341  0.01745  1.0000
  I   I257      1.0  0.15621  0.61801  0.42449  1.0000
  I   I258      1.0  0.24754  0.48146  0.27749  1.0000
  I   I259      1.0  0.37856  0.65828  0.53245  1.0000
  I   I260      1.0  0.68944  0.80094  0.77459  1.0000
  I   I261      1.0  0.35140  0.58671  0.87402  1.0000
  I   I262      1.0  0.43688  0.99047  0.82941  1.0000
  I   I263      1.0  0.65285  0.90533  0.08576  1.0000
  I   I264      1.0  0.50367  0.75859  0.73715  1.0000
  I   I265      1.0  0.36815  0.29186  0.71988  1.0000
  I   I266      1.0  0.31702  0.34579  0.13933  1.0000
  I   I267      1.0  0.45699  0.48040  0.63484  1.0000
  I   I268      1.0  0.44481  0.55886  0.34730  1.0000
  I   I269      1.0  0.77295  0.38239  0.95690  1.0000
  I   I270      1.0  0.61549  0.63787  0.86411  1.0000
  I   I271      1.0  0.95674  0.53413  0.07293  1.0000
  I   I272      1.0  0.75743  0.44231  0.53182  1.0000
  I   I273      1.0  0.87798  0.56888  0.81694  1.0000
  I   I274      1.0  0.74552  0.05265  0.90416  1.0000
  I   I275      1.0  0.74140  0.57594  0.20817  1.0000
  I   I276      1.0  0.85029  0.53871  0.46633  1.0000
  I   I277      1.0  0.68395  0.25063  0.33590  1.0000
  I   I278      1.0  0.65204  0.37220  0.31850  1.0000
  I   I279      1.0  0.52764  0.28850  0.86018  1.0000
  I   I280      1.0  0.98198  0.18555  0.89040  1.0000
  I   I281      1.0  0.70445  0.27225  0.63372  1.0000
  I   I282      1.0  0.29057  0.77242  0.37022  1.0000
  I   I283      1.0  0.80296  0.45683  0.24935  1.0000
  I   I284      1.0  0.01459  0.52364  0.49894  1.0000
  I   I285      1.0  0.09943  0.42969  0.91392  1.0000
  I   I286      1.0  0.71110  0.02129  0.62366  1.0000
  I   I287      1.0  0.54739  0.12887  0.36231  1.0000
  I   I288      1.0  0.53699  0.12038  0.87743  1.0000
  I   I289      1.0  0.54612  0.77741  0.34304  1.0000
  I   I290      1.0  0.11469  0.85131  0.13658  1.0000
  I   I291      1.0  0.04643  0.08966  0.11085  1.0000
  I   I292      1.0  0.29665  0.00614  0.39600  1.0000
  I   I293      1.0  0.17862  0.22219  0.37643  1.0000
  I   I294      1.0  0.13673  0.28886  0.89749  1.0000
  I   I295      1.0  0.93450  0.84624  0.11976  1.0000
  I   I296      1.0  0.91565  0.03297  0.52645  1.0000
  I   I297      1.0  0.82464  0.91478  0.44073  1.0000
  I   I298      1.0  0.22320  0.80153  0.75560  1.0000
  I   I299      1.0  0.36851  0.64097  0.04445  1.0000
  I   I300      1.0  0.03271  0.73194  0.90368  1.0000
  I   I301      1.0  0.32415  0.18595  0.12261  1.0000
  I   I302      1.0  0.36624  0.25831  0.47158  1.0000
  I   I303      1.0  0.29680  0.12241  0.61740  1.0000
  I   I304      1.0  0.23850  0.47433  0.43541  1.0000
  I   I305      1.0  0.15463  0.66412  0.25401  1.0000
  I   I306      1.0  0.06153  0.59173  0.45854  1.0000
  I   I307      1.0  0.40998  0.72141  0.60470  1.0000
  I   I308      1.0  0.64451  0.79735  0.67275  1.0000
  I   I309      1.0  0.27248  0.56785  0.63098  1.0000
  I   I310      1.0  0.46431  0.89603  0.82613  1.0000
  I   I311      1.0  0.78427  0.76505  0.18484  1.0000
  I   I312      1.0  0.59683  0.95273  0.96879  1.0000
  I   I313      1.0  0.56792  0.49490  0.53943  1.0000
  I   I314      1.0  0.24324  0.39739  0.90735  1.0000
  I   I315      1.0  0.25186  0.46344  0.07740  1.0000
  I   I316      1.0  0.57020  0.65982  0.71737  1.0000
  I   I317      1.0  0.51357  0.48412  0.22740  1.0000
  I   I318      1.0  0.64652  0.48752  0.79224  1.0000
  I   I319      1.0  0.00648  0.41183  0.85387  1.0000
  I   I320      1.0  0.03958  0.50304  0.13606  1.0000
  I   I321      1.0  0.86751  0.44171  0.69065  1.0000
  I   I322      1.0  0.79744  0.02139  0.15969  1.0000
  I   I323      1.0  0.76950  0.61695  0.07252  1.0000
  I   I324      1.0  0.79152  0.65316  0.47087  1.0000
  I   I325      1.0  0.71093  0.10029  0.20408  1.0000
  I   I326      1.0  0.64903  0.33948  0.12269  1.0000
  I   I327      1.0  0.50087  0.37541  0.84218  1.0000
  I   I328      1.0  0.98987  0.13662  0.98682  1.0000
  I   I329      1.0  0.72125  0.28354  0.49720  1.0000
  I   I330      1.0  0.20963  0.82325  0.30257  1.0000
  I   I331      1.0  0.21118  0.42624  0.74205  1.0000
  I   I332      1.0  0.83706  0.40077  0.35835  1.0000
  I   I333      1.0  0.98249  0.54189  0.77747  1.0000
  I   I334      1.0  0.60832  0.13352  0.85919  1.0000
  I   I335      1.0  0.58926  0.97609  0.55627  1.0000
  I   I336      1.0  0.48244  0.10083  0.25407  1.0000
  I   I337      1.0  0.45992  0.85688  0.33715  1.0000
  I   I338      1.0  0.12443  0.87265  0.27121  1.0000
  I   I339      1.0  0.12974  0.05879  0.11770  1.0000
  I   I340      1.0  0.30037  0.97991  0.54377  1.0000
  I   I341      1.0  0.22805  0.30504  0.52627  1.0000
  I   I342      1.0  0.10174  0.25803  0.79676  1.0000
  I   I343      1.0  0.86363  0.86103  0.14763  1.0000
  I   I344      1.0  0.97465  0.99348  0.61563  1.0000
  I   I345      1.0  0.78114  0.89760  0.33881  1.0000
  I   I346      1.0  0.26642  0.84040  0.76407  1.0000
  I   I347      1.0  0.32048  0.66791  0.91767  1.0000
  I   I348      1.0  0.94844  0.77679  0.85490  1.0000
  I   I349      1.0  0.34139  0.10190  0.15106  1.0000
  I   I350      1.0  0.35262  0.29556  0.34998  1.0000
  I   I351      1.0  0.30392  0.13437  0.77565  1.0000
  I   I352      1.0  0.19884  0.45954  0.35127  1.0000
  I   I353      1.0  0.22656  0.66077  0.19631  1.0000
  I   I354      1.0  0.07376  0.63956  0.56802  1.0000
  I   I355      1.0  0.46638  0.65080  0.58405  1.0000
  I   I356      1.0  0.66131  0.78445  0.87692  1.0000
  I   I357      1.0  0.35326  0.58699  0.58950  1.0000
  I   I358      1.0  0.43282  0.83406  0.79189  1.0000
  I   I359      1.0  0.79517  0.83293  0.16612  1.0000
  I   I360      1.0  0.65478  0.91830  0.87272  1.0000
  I   I361      1.0  0.59691  0.41328  0.54454  1.0000
  I   I362      1.0  0.29423  0.34025  0.79175  1.0000
  I   I363      1.0  0.30790  0.42284  0.17443  1.0000
  I   I364      1.0  0.64009  0.60337  0.66505  1.0000
  I   I365      1.0  0.52641  0.51464  0.35786  1.0000
  I   I366      1.0  0.71341  0.43299  0.85728  1.0000
  I   I367      1.0  0.94030  0.41213  0.82591  1.0000
  I   I368      1.0  0.02053  0.43511  0.17832  1.0000
  I   I369      1.0  0.86687  0.36357  0.68477  1.0000
  I   I370      1.0  0.84796  0.95643  0.10586  1.0000
  I   I371      1.0  0.80330  0.53775  0.08880  1.0000
  I   I372      1.0  0.71364  0.67752  0.57183  1.0000
  I   I373      1.0  0.64921  0.14258  0.32770  1.0000
  I   I374      1.0  0.66703  0.26726  0.06722  1.0000
  I   I375      1.0  0.53444  0.40887  0.91293  1.0000
  I   I376      1.0  0.92903  0.21286  0.06460  1.0000
  I   I377      1.0  0.69336  0.30509  0.77376  1.0000
  I   I378      1.0  0.25728  0.80491  0.18315  1.0000
  I   I379      1.0  0.17920  0.51145  0.78013  1.0000
  I   I380      1.0  0.85143  0.37292  0.17355  1.0000
  I   I381      1.0  0.02185  0.54021  0.64540  1.0000
  I   I382      1.0  0.63088  0.07735  0.96135  1.0000
  I   I383      1.0  0.66643  0.93557  0.55975  1.0000
  I   I384      1.0  0.55040  0.03608  0.16938  1.0000
