data_image0
_chemical_formula_structural       Ti96I384
_chemical_formula_sum              "Ti96 I384"
_cell_length_a       58.6771
_cell_length_b       59.2403
_cell_length_c       28.6068
_cell_angle_alpha    88.7757
_cell_angle_beta     88.7757
_cell_angle_gamma    62.1586

_space_group_name_H-M_alt    "P 1"
_space_group_IT_number       1

loop_
  _space_group_symop_operation_xyz
  'x, y, z'

loop_
  _atom_site_type_symbol
  _atom_site_label
  _atom_site_symmetry_multiplicity
  _atom_site_fract_x
  _atom_site_fract_y
  _atom_site_fract_z
  _atom_site_occupancy
  Ti  Ti1       1.0  0.88167  0.84499  0.76664  1.0000
  Ti  Ti2       1.0  0.76996  0.02415  0.91368  1.0000
  Ti  Ti3       1.0  0.72238  0.84264  0.56691  1.0000
  Ti  Ti4       1.0  0.44975  0.40110  0.35092  1.0000
  Ti  Ti5       1.0  0.07637  0.76863  0.30726  1.0000
  Ti  Ti6       1.0  0.23055  0.05531  0.13557  1.0000
  Ti  Ti7       1.0  0.00291  0.90353  0.86295  1.0000
  Ti  Ti8       1.0  0.23122  0.65895  0.40425  1.0000
  Ti  Ti9       1.0  0.75543  0.27208  0.24310  1.0000
  Ti  Ti10      1.0  0.61255  0.16636  0.26665  1.0000
  Ti  Ti11      1.0  0.19811  0.56400  0.69973  1.0000
  Ti  Ti12      1.0  0.64493  0.76242  0.08137  1.0000
  Ti  Ti13      1.0  0.42942  0.17044  0.68898  1.0000
  Ti  Ti14      1.0  0.10205  0.33447  0.08817  1.0000
  Ti  Ti15      1.0  0.23615  0.91006  0.00391  1.0000
  Ti  Ti16      1.0  0.98283  0.09292  0.51545  1.0000
  Ti  Ti17      1.0  0.12874  0.48963  0.09958  1.0000
  Ti  Ti18      1.0  0.97518  0.41616  0.27389  1.0000
  Ti  Ti19      1.0  0.69232  0.72867  0.38707  1.0000
  Ti  Ti20      1.0  0.65693  0.92769  0.19674  1.0000
  Ti  Ti21      1.0  0.21226  0.55158  0.53356  1.0000
  Ti  Ti22      1.0  0.41375  0.97766  0.47077  1.0000
  Ti  Ti23      1.0  0.47619  0.86275  0.88276  1.0000
  Ti  Ti24      1.0  0.50744  0.01410  0.58417  1.0000
  Ti  Ti25      1.0  0.21809  0.21629  0.48998  1.0000
  Ti  Ti26      1.0  0.28872  0.35013  0.94893  1.0000
  Ti  Ti27      1.0  0.44719  0.47453  0.56709  1.0000
  Ti  Ti28      1.0  0.62618  0.63481  0.63674  1.0000
  Ti  Ti29      1.0  0.97833  0.23275  0.51378  1.0000
  Ti  Ti30      1.0  0.75885  0.54735  0.75733  1.0000
  Ti  Ti31      1.0  0.77673  0.42053  0.07817  1.0000
  Ti  Ti32      1.0  0.87828  0.01852  0.08696  1.0000
  Ti  Ti33      1.0  0.23972  0.99514  0.60332  1.0000
  Ti  Ti34      1.0  0.96145  0.74605  0.45864  1.0000
  Ti  Ti35      1.0  0.61524  0.51541  0.97137  1.0000
  Ti  Ti36      1.0  0.06875  0.41707  0.61282  1.0000
  Ti  Ti37      1.0  0.06417  0.27050  0.78861  1.0000
  Ti  Ti38      1.0  0.67094  0.27070  0.50688  1.0000
  Ti  Ti39      1.0  0.35970  0.23712  0.14136  1.0000
  Ti  Ti40      1.0  0.17129  0.59629  0.06410  1.0000
  Ti  Ti41      1.0  0.64850  0.53956  0.23375  1.0000
  Ti  Ti42      1.0  0.26465  0.84533  0.20573  1.0000
  Ti  Ti43      1.0  0.16327  0.91229  0.68647  1.0000
  Ti  Ti44      1.0  0.77006  0.70462  0.04697  1.0000
  Ti  Ti45      1.0  0.75079  0.36989  0.60822  1.0000
  Ti  Ti46      1.0  0.79798  0.10074  0.38252  1.0000
  Ti  Ti47      1.0  0.54917  0.30331  0.02273  1.0000
  Ti  Ti48      1.0  0.43181  0.50022  0.18726  1.0000
  Ti  Ti49      1.0  0.94927  0.78343  0.77497  1.0000
  Ti  Ti50      1.0  0.56004  0.10115  0.87109  1.0000
  Ti  Ti51      1.0  0.78615  0.02771  0.79674  1.0000
  Ti  Ti52      1.0  0.39318  0.39101  0.32371  1.0000
  Ti  Ti53      1.0  0.01662  0.80856  0.20011  1.0000
  Ti  Ti54      1.0  0.21499  0.12399  0.07360  1.0000
  Ti  Ti55      1.0  0.05088  0.84119  0.79715  1.0000
  Ti  Ti56      1.0  0.31568  0.64596  0.43514  1.0000
  Ti  Ti57      1.0  0.68548  0.30991  0.17271  1.0000
  Ti  Ti58      1.0  0.10466  0.95210  0.68649  1.0000
  Ti  Ti59      1.0  0.62527  0.09482  0.34031  1.0000
  Ti  Ti60      1.0  0.61813  0.71069  0.05654  1.0000
  Ti  Ti61      1.0  0.23314  0.85611  0.93906  1.0000
  Ti  Ti62      1.0  0.41256  0.14485  0.80811  1.0000
  Ti  Ti63      1.0  0.07656  0.36907  0.96279  1.0000
  Ti  Ti64      1.0  0.92981  0.44715  0.20205  1.0000
  Ti  Ti65      1.0  0.93212  0.11463  0.62080  1.0000
  Ti  Ti66      1.0  0.38595  0.40388  0.77426  1.0000
  Ti  Ti67      1.0  0.75520  0.68512  0.39291  1.0000
  Ti  Ti68      1.0  0.60060  0.95033  0.25667  1.0000
  Ti  Ti69      1.0  0.28718  0.52675  0.58053  1.0000
  Ti  Ti70      1.0  0.49112  0.95438  0.57916  1.0000
  Ti  Ti71      1.0  0.40020  0.87371  0.86899  1.0000
  Ti  Ti72      1.0  0.21070  0.76770  0.56525  1.0000
  Ti  Ti73      1.0  0.44847  0.53357  0.61326  1.0000
  Ti  Ti74      1.0  0.17092  0.25042  0.60317  1.0000
  Ti  Ti75      1.0  0.25874  0.33346  0.83142  1.0000
  Ti  Ti76      1.0  0.73244  0.54664  0.87197  1.0000
  Ti  Ti77      1.0  0.54654  0.65650  0.61185  1.0000
  Ti  Ti78      1.0  0.93777  0.27432  0.42249  1.0000
  Ti  Ti79      1.0  0.29751  0.97809  0.53196  1.0000
  Ti  Ti80      1.0  0.81193  0.45489  0.19443  1.0000
  Ti  Ti81      1.0  0.95417  0.97142  0.13283  1.0000
  Ti  Ti82      1.0  0.90383  0.74686  0.50346  1.0000
  Ti  Ti83      1.0  0.67763  0.44091  0.90977  1.0000
  Ti  Ti84      1.0  0.99814  0.41094  0.63587  1.0000
  Ti  Ti85      1.0  0.00385  0.28390  0.79890  1.0000
  Ti  Ti86      1.0  0.60948  0.29221  0.53257  1.0000
  Ti  Ti87      1.0  0.29388  0.24132  0.18759  1.0000
  Ti  Ti88      1.0  0.17849  0.54875  0.12882  1.0000
  Ti  Ti89      1.0  0.61452  0.52823  0.32518  1.0000
  Ti  Ti90      1.0  0.31057  0.76046  0.24202  1.0000
  Ti  Ti91      1.0  0.76093  0.33017  0.68050  1.0000
  Ti  Ti92      1.0  0.98498  0.05561  0.83373  1.0000
  Ti  Ti93      1.0  0.78351  0.64610  0.93524  1.0000
  Ti  Ti94      1.0  0.46962  0.50625  0.11329  1.0000
  Ti  Ti95      1.0  0.77933  0.04985  0.45178  1.0000
  Ti  Ti96      1.0  0.57211  0.32101  0.90182  1.0000
  I   I1        1.0  0.59027  0.05249  0.90030  1.0000
  I   I2        1.0  0.78054  0.07259  0.77849  1.0000
  I   I3        1.0  0.85324  0.86270  0.84665  1.0000
  I   I4        1.0  0.99283  0.79881  0.12740  1.0000
  I   I5        1.0  0.24294  0.01775  0.07478  1.0000
  I   I6        1.0  0.22121  0.14156  0.99549  1.0000
  I   I7        1.0  0.36176  0.60502  0.41833  1.0000
  I   I8        1.0  0.25284  0.67525  0.47485  1.0000
  I   I9        1.0  0.75914  0.28740  0.33124  1.0000
  I   I10       1.0  0.65429  0.14791  0.21686  1.0000
  I   I11       1.0  0.20737  0.57707  0.78415  1.0000
  I   I12       1.0  0.09291  0.71951  0.31314  1.0000
  I   I13       1.0  0.43481  0.16265  0.85620  1.0000
  I   I14       1.0  0.04473  0.37496  0.06104  1.0000
  I   I15       1.0  0.22328  0.86789  0.03130  1.0000
  I   I16       1.0  0.98776  0.08710  0.61174  1.0000
  I   I17       1.0  0.37481  0.43392  0.84511  1.0000
  I   I18       1.0  0.95273  0.47207  0.18275  1.0000
  I   I19       1.0  0.56463  0.97861  0.32370  1.0000
  I   I20       1.0  0.16141  0.58767  0.62949  1.0000
  I   I21       1.0  0.31623  0.49653  0.65420  1.0000
  I   I22       1.0  0.42105  0.90405  0.87194  1.0000
  I   I23       1.0  0.49218  0.86108  0.79968  1.0000
  I   I24       1.0  0.48687  0.98643  0.65050  1.0000
  I   I25       1.0  0.22641  0.23621  0.57180  1.0000
  I   I26       1.0  0.26372  0.38232  0.01593  1.0000
  I   I27       1.0  0.49398  0.43314  0.57477  1.0000
  I   I28       1.0  0.59033  0.62478  0.55631  1.0000
  I   I29       1.0  0.97235  0.21763  0.42830  1.0000
  I   I30       1.0  0.76255  0.54497  0.66754  1.0000
  I   I31       1.0  0.84776  0.41207  0.22996  1.0000
  I   I32       1.0  0.99506  0.97582  0.11347  1.0000
  I   I33       1.0  0.30024  0.97511  0.44275  1.0000
  I   I34       1.0  0.57718  0.52263  0.03051  1.0000
  I   I35       1.0  0.98771  0.37374  0.62411  1.0000
  I   I36       1.0  0.91870  0.78697  0.52060  1.0000
  I   I37       1.0  0.07805  0.27990  0.70659  1.0000
  I   I38       1.0  0.33495  0.24071  0.22904  1.0000
  I   I39       1.0  0.96898  0.27762  0.84705  1.0000
  I   I40       1.0  0.66288  0.53222  0.33270  1.0000
  I   I41       1.0  0.27133  0.79794  0.18674  1.0000
  I   I42       1.0  0.17756  0.55922  0.22006  1.0000
  I   I43       1.0  0.12443  0.90814  0.63209  1.0000
  I   I44       1.0  0.83222  0.62422  0.89204  1.0000
  I   I45       1.0  0.70361  0.39253  0.65445  1.0000
  I   I46       1.0  0.83842  0.07188  0.32415  1.0000
  I   I47       1.0  0.49981  0.31366  0.01992  1.0000
  I   I48       1.0  0.45901  0.49334  0.27082  1.0000
  I   I49       1.0  0.84336  0.83241  0.73881  1.0000
  I   I50       1.0  0.74038  0.00266  0.91866  1.0000
  I   I51       1.0  0.79387  0.98194  0.84966  1.0000
  I   I52       1.0  0.44378  0.38886  0.44430  1.0000
  I   I53       1.0  0.02606  0.78647  0.29417  1.0000
  I   I54       1.0  0.16140  0.15630  0.06542  1.0000
  I   I55       1.0  0.96465  0.93486  0.82330  1.0000
  I   I56       1.0  0.23379  0.62410  0.35589  1.0000
  I   I57       1.0  0.71305  0.26449  0.22683  1.0000
  I   I58       1.0  0.60712  0.11821  0.24853  1.0000
  I   I59       1.0  0.63867  0.13129  0.33241  1.0000
  I   I60       1.0  0.61407  0.67909  0.11563  1.0000
  I   I61       1.0  0.43565  0.09890  0.84398  1.0000
  I   I62       1.0  0.37294  0.15871  0.85527  1.0000
  I   I63       1.0  0.09371  0.31982  0.96390  1.0000
  I   I64       1.0  0.00437  0.04607  0.48182  1.0000
  I   I65       1.0  0.92410  0.14785  0.54681  1.0000
  I   I66       1.0  0.34148  0.41909  0.74116  1.0000
  I   I67       1.0  0.80126  0.67506  0.42149  1.0000
  I   I68       1.0  0.69716  0.88154  0.21804  1.0000
  I   I69       1.0  0.18578  0.52544  0.55022  1.0000
  I   I70       1.0  0.48156  0.93544  0.49960  1.0000
  I   I71       1.0  0.44780  0.83819  0.92156  1.0000
  I   I72       1.0  0.23370  0.76592  0.64550  1.0000
  I   I73       1.0  0.48972  0.52698  0.65487  1.0000
  I   I74       1.0  0.31153  0.31417  0.86986  1.0000
  I   I75       1.0  0.27162  0.36798  0.79457  1.0000
  I   I76       1.0  0.66101  0.62743  0.57355  1.0000
  I   I77       1.0  0.63606  0.59031  0.65727  1.0000
  I   I78       1.0  0.91658  0.31895  0.46288  1.0000
  I   I79       1.0  0.33102  0.99012  0.56714  1.0000
  I   I80       1.0  0.77503  0.38348  0.12770  1.0000
  I   I81       1.0  0.87318  0.05012  0.01617  1.0000
  I   I82       1.0  0.92090  0.72890  0.41898  1.0000
  I   I83       1.0  0.62674  0.54912  0.00870  1.0000
  I   I84       1.0  0.01504  0.44781  0.64060  1.0000
  I   I85       1.0  0.02449  0.32238  0.78284  1.0000
  I   I86       1.0  0.59991  0.25377  0.50706  1.0000
  I   I87       1.0  0.41252  0.20152  0.15795  1.0000
  I   I88       1.0  0.22162  0.57894  0.04549  1.0000
  I   I89       1.0  0.59738  0.55047  0.40745  1.0000
  I   I90       1.0  0.22176  0.87140  0.16494  1.0000
  I   I91       1.0  0.72186  0.32821  0.62972  1.0000
  I   I92       1.0  0.94921  0.10431  0.83053  1.0000
  I   I93       1.0  0.80703  0.66760  0.98967  1.0000
  I   I94       1.0  0.38519  0.53277  0.20924  1.0000
  I   I95       1.0  0.73312  0.06107  0.44274  1.0000
  I   I96       1.0  0.53010  0.31472  0.89506  1.0000
  I   I97       1.0  0.70575  0.87890  0.50449  1.0000
  I   I98       1.0  0.91136  0.79025  0.84076  1.0000
  I   I99       1.0  0.81953  0.02412  0.89754  1.0000
  I   I100      1.0  0.45878  0.44228  0.36436  1.0000
  I   I101      1.0  0.40854  0.34264  0.32114  1.0000
  I   I102      1.0  0.06380  0.77931  0.20147  1.0000
  I   I103      1.0  0.07410  0.79112  0.81255  1.0000
  I   I104      1.0  0.98001  0.88896  0.93036  1.0000
  I   I105      1.0  0.64648  0.35804  0.14718  1.0000
  I   I106      1.0  0.64478  0.79673  0.02138  1.0000
  I   I107      1.0  0.61962  0.20134  0.30995  1.0000
  I   I108      1.0  0.65119  0.71564  0.11669  1.0000
  I   I109      1.0  0.24649  0.94699  0.96572  1.0000
  I   I110      1.0  0.39112  0.14501  0.71828  1.0000
  I   I111      1.0  0.09829  0.29083  0.10068  1.0000
  I   I112      1.0  0.88054  0.48061  0.23044  1.0000
  I   I113      1.0  0.93830  0.08412  0.53855  1.0000
  I   I114      1.0  0.07948  0.52916  0.10322  1.0000
  I   I115      1.0  0.68538  0.69255  0.35533  1.0000
  I   I116      1.0  0.76602  0.63978  0.35997  1.0000
  I   I117      1.0  0.56397  0.97483  0.19704  1.0000
  I   I118      1.0  0.41374  0.00392  0.54104  1.0000
  I   I119      1.0  0.36822  0.00014  0.43254  1.0000
  I   I120      1.0  0.18148  0.74621  0.58139  1.0000
  I   I121      1.0  0.42365  0.47338  0.64082  1.0000
  I   I122      1.0  0.13146  0.24393  0.59101  1.0000
  I   I123      1.0  0.30892  0.37728  0.90697  1.0000
  I   I124      1.0  0.73319  0.59378  0.81664  1.0000
  I   I125      1.0  0.52019  0.68303  0.68758  1.0000
  I   I126      1.0  0.93043  0.28401  0.33733  1.0000
  I   I127      1.0  0.22008  0.97781  0.66574  1.0000
  I   I128      1.0  0.72934  0.45038  0.06900  1.0000
  I   I129      1.0  0.93518  0.98082  0.03989  1.0000
  I   I130      1.0  0.05372  0.45026  0.53785  1.0000
  I   I131      1.0  0.96203  0.77802  0.39691  1.0000
  I   I132      1.0  0.71830  0.39846  0.93104  1.0000
  I   I133      1.0  0.37267  0.22867  0.04992  1.0000
  I   I134      1.0  0.63951  0.28474  0.43648  1.0000
  I   I135      1.0  0.70558  0.29068  0.48967  1.0000
  I   I136      1.0  0.30135  0.85001  0.16214  1.0000
  I   I137      1.0  0.17433  0.55173  0.03443  1.0000
  I   I138      1.0  0.63348  0.56008  0.14899  1.0000
  I   I139      1.0  0.79086  0.32474  0.59890  1.0000
  I   I140      1.0  0.02718  0.04593  0.87277  1.0000
  I   I141      1.0  0.75251  0.67492  0.86887  1.0000
  I   I142      1.0  0.42409  0.50044  0.09675  1.0000
  I   I143      1.0  0.82297  0.05702  0.44811  1.0000
  I   I144      1.0  0.56056  0.30508  0.10514  1.0000
  I   I145      1.0  0.93057  0.83630  0.79041  1.0000
  I   I146      1.0  0.74191  0.06361  0.86187  1.0000
  I   I147      1.0  0.75554  0.84440  0.61797  1.0000
  I   I148      1.0  0.35405  0.40480  0.37342  1.0000
  I   I149      1.0  0.02304  0.84681  0.18111  1.0000
  I   I150      1.0  0.18675  0.07215  0.18020  1.0000
  I   I151      1.0  0.06660  0.83841  0.71538  1.0000
  I   I152      1.0  0.32343  0.63486  0.52437  1.0000
  I   I153      1.0  0.78657  0.28322  0.19578  1.0000
  I   I154      1.0  0.11874  0.93388  0.77005  1.0000
  I   I155      1.0  0.21253  0.60137  0.68130  1.0000
  I   I156      1.0  0.67611  0.76558  0.13565  1.0000
  I   I157      1.0  0.23012  0.84041  0.85199  1.0000
  I   I158      1.0  0.03397  0.38332  0.92487  1.0000
  I   I159      1.0  0.23799  0.80848  0.96477  1.0000
  I   I160      1.0  0.98371  0.40122  0.18658  1.0000
  I   I161      1.0  0.12158  0.46373  0.03577  1.0000
  I   I162      1.0  0.93720  0.45510  0.32695  1.0000
  I   I163      1.0  0.72337  0.68305  0.45780  1.0000
  I   I164      1.0  0.64343  0.93876  0.30430  1.0000
  I   I165      1.0  0.26256  0.50688  0.51953  1.0000
  I   I166      1.0  0.47349  0.93035  0.62683  1.0000
  I   I167      1.0  0.51846  0.81995  0.89871  1.0000
  I   I168      1.0  0.54072  0.01923  0.53280  1.0000
  I   I169      1.0  0.19659  0.19065  0.54961  1.0000
  I   I170      1.0  0.26162  0.17868  0.48873  1.0000
  I   I171      1.0  0.40931  0.52144  0.55419  1.0000
  I   I172      1.0  0.73940  0.50715  0.91995  1.0000
  I   I173      1.0  0.90893  0.25656  0.46260  1.0000
  I   I174      1.0  0.78145  0.49448  0.77038  1.0000
  I   I175      1.0  0.81096  0.48543  0.12787  1.0000
  I   I176      1.0  0.92140  0.01755  0.16061  1.0000
  I   I177      1.0  0.26346  0.03046  0.55896  1.0000
  I   I178      1.0  0.98479  0.75395  0.52836  1.0000
  I   I179      1.0  0.58663  0.54258  0.90632  1.0000
  I   I180      1.0  0.10944  0.37626  0.57638  1.0000
  I   I181      1.0  0.10932  0.22890  0.80345  1.0000
  I   I182      1.0  0.58945  0.31143  0.61669  1.0000
  I   I183      1.0  0.36086  0.28005  0.13781  1.0000
  I   I184      1.0  0.14578  0.62925  0.00136  1.0000
  I   I185      1.0  0.69868  0.52430  0.20717  1.0000
  I   I186      1.0  0.35117  0.74857  0.18642  1.0000
  I   I187      1.0  0.96824  0.03175  0.89480  1.0000
  I   I188      1.0  0.73989  0.68769  0.99587  1.0000
  I   I189      1.0  0.78265  0.36324  0.69477  1.0000
  I   I190      1.0  0.80512  0.12664  0.44098  1.0000
  I   I191      1.0  0.58597  0.30486  0.81247  1.0000
  I   I192      1.0  0.51631  0.50135  0.15101  1.0000
  I   I193      1.0  0.98214  0.73792  0.73514  1.0000
  I   I194      1.0  0.51694  0.10186  0.85355  1.0000
  I   I195      1.0  0.68992  0.83909  0.62827  1.0000
  I   I196      1.0  0.44460  0.37746  0.27438  1.0000
  I   I197      1.0  0.13631  0.96074  0.62804  1.0000
  I   I198      1.0  0.20137  0.08647  0.05308  1.0000
  I   I199      1.0  0.99728  0.94374  0.92004  1.0000
  I   I200      1.0  0.32409  0.68362  0.40948  1.0000
  I   I201      1.0  0.77974  0.22683  0.28244  1.0000
  I   I202      1.0  0.63655  0.04831  0.30961  1.0000
  I   I203      1.0  0.23110  0.53554  0.63038  1.0000
  I   I204      1.0  0.64587  0.66893  0.00522  1.0000
  I   I205      1.0  0.46701  0.18176  0.70103  1.0000
  I   I206      1.0  0.10484  0.37486  0.04110  1.0000
  I   I207      1.0  0.27464  0.86544  0.96116  1.0000
  I   I208      1.0  0.96090  0.12546  0.43877  1.0000
  I   I209      1.0  0.17797  0.46548  0.06466  1.0000
  I   I210      1.0  0.01384  0.42726  0.26836  1.0000
  I   I211      1.0  0.73167  0.73976  0.42518  1.0000
  I   I212      1.0  0.67817  0.94526  0.13313  1.0000
  I   I213      1.0  0.19186  0.57500  0.45341  1.0000
  I   I214      1.0  0.41193  0.93985  0.51156  1.0000
  I   I215      1.0  0.35582  0.91443  0.83427  1.0000
  I   I216      1.0  0.46681  0.05898  0.58263  1.0000
  I   I217      1.0  0.16940  0.25876  0.49810  1.0000
  I   I218      1.0  0.32382  0.31617  0.00446  1.0000
  I   I219      1.0  0.48300  0.49930  0.53867  1.0000
  I   I220      1.0  0.52765  0.62656  0.60252  1.0000
  I   I221      1.0  0.98566  0.27034  0.42609  1.0000
  I   I222      1.0  0.79982  0.55322  0.76482  1.0000
  I   I223      1.0  0.77175  0.44752  0.18391  1.0000
  I   I224      1.0  0.84306  0.04978  0.14210  1.0000
  I   I225      1.0  0.19371  0.03857  0.60121  1.0000
  I   I226      1.0  0.95482  0.70774  0.52093  1.0000
  I   I227      1.0  0.66282  0.49474  0.92487  1.0000
  I   I228      1.0  0.95306  0.45216  0.60800  1.0000
  I   I229      1.0  0.04009  0.26304  0.87516  1.0000
  I   I230      1.0  0.70404  0.22670  0.48425  1.0000
  I   I231      1.0  0.26274  0.28395  0.14484  1.0000
  I   I232      1.0  0.16527  0.62799  0.14027  1.0000
  I   I233      1.0  0.60478  0.57545  0.28469  1.0000
  I   I234      1.0  0.30090  0.72717  0.20425  1.0000
  I   I235      1.0  0.19776  0.90208  0.61861  1.0000
  I   I236      1.0  0.73362  0.75461  0.03212  1.0000
  I   I237      1.0  0.73523  0.37000  0.52144  1.0000
  I   I238      1.0  0.77866  0.05220  0.54097  1.0000
  I   I239      1.0  0.54879  0.34625  0.99607  1.0000
  I   I240      1.0  0.43847  0.54818  0.15542  1.0000
  I   I241      1.0  0.86471  0.88100  0.70437  1.0000
  I   I242      1.0  0.77117  0.05164  0.98570  1.0000
  I   I243      1.0  0.72471  0.80298  0.52367  1.0000
  I   I244      1.0  0.49979  0.37019  0.35916  1.0000
  I   I245      1.0  0.11587  0.77549  0.27457  1.0000
  I   I246      1.0  0.25268  0.02749  0.21024  1.0000
  I   I247      1.0  0.05044  0.85928  0.89220  1.0000
  I   I248      1.0  0.20487  0.64711  0.46854  1.0000
  I   I249      1.0  0.65546  0.28934  0.16503  1.0000
  I   I250      1.0  0.56339  0.18794  0.26654  1.0000
  I   I251      1.0  0.19055  0.52521  0.72656  1.0000
  I   I252      1.0  0.57722  0.73415  0.00949  1.0000
  I   I253      1.0  0.39503  0.21028  0.73451  1.0000
  I   I254      1.0  0.11521  0.32926  0.17574  1.0000
  I   I255      1.0  0.20059  0.90335  0.90671  1.0000
  I   I256      1.0  0.93190  0.13963  0.69332  1.0000
  I   I257      1.0  0.13959  0.46224  0.17152  1.0000
  I   I258      1.0  0.92224  0.44263  0.11158  1.0000
  I   I259      1.0  0.65501  0.75230  0.45158  1.0000
  I   I260      1.0  0.62856  0.92245  0.13242  1.0000
  I   I261      1.0  0.25033  0.57342  0.51104  1.0000
  I   I262      1.0  0.43277  0.97516  0.38533  1.0000
  I   I263      1.0  0.48947  0.89088  0.93480  1.0000
  I   I264      1.0  0.52596  0.02489  0.65657  1.0000
  I   I265      1.0  0.20701  0.21743  0.39947  1.0000
  I   I266      1.0  0.27446  0.29034  0.79468  1.0000
  I   I267      1.0  0.43745  0.45543  0.49697  1.0000
  I   I268      1.0  0.51688  0.69015  0.54915  1.0000
  I   I269      1.0  0.97005  0.20565  0.57667  1.0000
  I   I270      1.0  0.78744  0.52714  0.87535  1.0000
  I   I271      1.0  0.81942  0.42619  0.09829  1.0000
  I   I272      1.0  0.84540  0.00714  0.04902  1.0000
  I   I273      1.0  0.24092  0.97821  0.52255  1.0000
  I   I274      1.0  0.88734  0.74217  0.58849  1.0000
  I   I275      1.0  0.63762  0.46093  0.98494  1.0000
  I   I276      1.0  0.04311  0.38945  0.58345  1.0000
  I   I277      1.0  0.08830  0.29527  0.83874  1.0000
  I   I278      1.0  0.64147  0.32048  0.55167  1.0000
  I   I279      1.0  0.27369  0.21039  0.15264  1.0000
  I   I280      1.0  0.22640  0.51729  0.14753  1.0000
  I   I281      1.0  0.63270  0.50466  0.21294  1.0000
  I   I282      1.0  0.23952  0.85908  0.28931  1.0000
  I   I283      1.0  0.18327  0.87054  0.73961  1.0000
  I   I284      1.0  0.81007  0.70980  0.09172  1.0000
  I   I285      1.0  0.75741  0.40793  0.57989  1.0000
  I   I286      1.0  0.78306  0.13605  0.31335  1.0000
  I   I287      1.0  0.58087  0.35814  0.87859  1.0000
  I   I288      1.0  0.42840  0.45871  0.19101  1.0000
  I   I289      1.0  0.91520  0.80384  0.70524  1.0000
  I   I290      1.0  0.59045  0.09753  0.80586  1.0000
  I   I291      1.0  0.82452  0.99004  0.75413  1.0000
  I   I292      1.0  0.37424  0.39552  0.23666  1.0000
  I   I293      1.0  0.96800  0.83992  0.22379  1.0000
  I   I294      1.0  0.25988  0.08476  0.12039  1.0000
  I   I295      1.0  0.03874  0.89691  0.78526  1.0000
  I   I296      1.0  0.28407  0.65117  0.36615  1.0000
  I   I297      1.0  0.70188  0.29875  0.08492  1.0000
  I   I298      1.0  0.06106  0.95848  0.64986  1.0000
  I   I299      1.0  0.58047  0.10914  0.36951  1.0000
  I   I300      1.0  0.62761  0.74535  0.99820  1.0000
  I   I301      1.0  0.26532  0.91355  0.06628  1.0000
  I   I302      1.0  0.42536  0.16495  0.60197  1.0000
  I   I303      1.0  0.15057  0.30943  0.06193  1.0000
  I   I304      1.0  0.00072  0.37086  0.30967  1.0000
  I   I305      1.0  0.02042  0.10049  0.49001  1.0000
  I   I306      1.0  0.41048  0.35346  0.77040  1.0000
  I   I307      1.0  0.67224  0.76295  0.32552  1.0000
  I   I308      1.0  0.62513  0.97944  0.21549  1.0000
  I   I309      1.0  0.32949  0.50131  0.52926  1.0000
  I   I310      1.0  0.54101  0.92563  0.56798  1.0000
  I   I311      1.0  0.41242  0.85826  0.78375  1.0000
  I   I312      1.0  0.17620  0.81509  0.55549  1.0000
  I   I313      1.0  0.41520  0.54754  0.68133  1.0000
  I   I314      1.0  0.15258  0.29939  0.61279  1.0000
  I   I315      1.0  0.24912  0.34353  0.92829  1.0000
  I   I316      1.0  0.71340  0.54324  0.79274  1.0000
  I   I317      1.0  0.57741  0.68074  0.62870  1.0000
  I   I318      1.0  0.02388  0.22476  0.54904  1.0000
  I   I319      1.0  0.28642  0.97436  0.64896  1.0000
  I   I320      1.0  0.78100  0.39686  0.00343  1.0000
  I   I321      1.0  0.90643  0.97034  0.14740  1.0000
  I   I322      1.0  0.85501  0.77384  0.47527  1.0000
  I   I323      1.0  0.69291  0.45420  0.83111  1.0000
  I   I324      1.0  0.01513  0.40060  0.72207  1.0000
  I   I325      1.0  0.99573  0.28853  0.71263  1.0000
  I   I326      1.0  0.57515  0.32376  0.47164  1.0000
  I   I327      1.0  0.27564  0.24444  0.27232  1.0000
  I   I328      1.0  0.14649  0.52479  0.14018  1.0000
  I   I329      1.0  0.56968  0.53222  0.30587  1.0000
  I   I330      1.0  0.31912  0.80534  0.25496  1.0000
  I   I331      1.0  0.73299  0.33768  0.75636  1.0000
  I   I332      1.0  0.18005  0.93747  0.73037  1.0000
  I   I333      1.0  0.77384  0.61209  0.97708  1.0000
  I   I334      1.0  0.48338  0.51088  0.02557  1.0000
  I   I335      1.0  0.81040  0.00034  0.44538  1.0000
  I   I336      1.0  0.56318  0.25307  0.03126  1.0000
  I   I337      1.0  0.98422  0.77513  0.84592  1.0000
  I   I338      1.0  0.54965  0.14148  0.92787  1.0000
  I   I339      1.0  0.74253  0.04145  0.74847  1.0000
  I   I340      1.0  0.39721  0.43573  0.33695  1.0000
  I   I341      1.0  0.08065  0.77603  0.39194  1.0000
  I   I342      1.0  0.19535  0.13986  0.16204  1.0000
  I   I343      1.0  0.99760  0.86234  0.81371  1.0000
  I   I344      1.0  0.19757  0.69589  0.36171  1.0000
  I   I345      1.0  0.71288  0.32882  0.23549  1.0000
  I   I346      1.0  0.09079  0.99662  0.72945  1.0000
  I   I347      1.0  0.65820  0.07249  0.41294  1.0000
  I   I348      1.0  0.60024  0.78632  0.12433  1.0000
  I   I349      1.0  0.19514  0.94240  0.03621  1.0000
  I   I350      1.0  0.46099  0.12478  0.73938  1.0000
  I   I351      1.0  0.11094  0.36769  0.90129  1.0000
  I   I352      1.0  0.93270  0.40651  0.25428  1.0000
  I   I353      1.0  0.88259  0.11925  0.63473  1.0000
  I   I354      1.0  0.40913  0.42176  0.72034  1.0000
  I   I355      1.0  0.74635  0.71857  0.31357  1.0000
  I   I356      1.0  0.60107  0.90715  0.27667  1.0000
  I   I357      1.0  0.28757  0.56784  0.60285  1.0000
  I   I358      1.0  0.48643  0.99808  0.51378  1.0000
  I   I359      1.0  0.38237  0.84535  0.90828  1.0000
  I   I360      1.0  0.23301  0.75421  0.48301  1.0000
  I   I361      1.0  0.44307  0.57411  0.56396  1.0000
  I   I362      1.0  0.19018  0.22754  0.68124  1.0000
  I   I363      1.0  0.20805  0.36084  0.82051  1.0000
  I   I364      1.0  0.69578  0.58511  0.91091  1.0000
  I   I365      1.0  0.64308  0.64167  0.71660  1.0000
  I   I366      1.0  0.94937  0.27213  0.56332  1.0000
  I   I367      1.0  0.31879  0.92805  0.54852  1.0000
  I   I368      1.0  0.80852  0.48222  0.26500  1.0000
  I   I369      1.0  0.97480  0.92969  0.18308  1.0000
  I   I370      1.0  0.99527  0.70460  0.42678  1.0000
  I   I371      1.0  0.64728  0.42475  0.87039  1.0000
  I   I372      1.0  0.08922  0.44062  0.65105  1.0000
  I   I373      1.0  0.04135  0.23578  0.78069  1.0000
  I   I374      1.0  0.65169  0.24913  0.58028  1.0000
  I   I375      1.0  0.33552  0.20794  0.12836  1.0000
  I   I376      1.0  0.12813  0.59104  0.11910  1.0000
  I   I377      1.0  0.64051  0.48384  0.36019  1.0000
  I   I378      1.0  0.31594  0.75176  0.33453  1.0000
  I   I379      1.0  0.79304  0.28029  0.68385  1.0000
  I   I380      1.0  0.99204  0.03089  0.75263  1.0000
  I   I381      1.0  0.74907  0.69586  0.11917  1.0000
  I   I382      1.0  0.48079  0.45876  0.14950  1.0000
  I   I383      1.0  0.77335  0.07012  0.35539  1.0000
  I   I384      1.0  0.60356  0.28439  0.96345  1.0000
