data_image0
_chemical_formula_structural       Ti96I384
_chemical_formula_sum              "Ti96 I384"
_cell_length_a       48.4039
_cell_length_b       47.8743
_cell_length_c       23.355
_cell_angle_alpha    88.7757
_cell_angle_beta     88.7757
_cell_angle_gamma    62.1586

_space_group_name_H-M_alt    "P 1"
_space_group_IT_number       1

loop_
  _space_group_symop_operation_xyz
  'x, y, z'

loop_
  _atom_site_type_symbol
  _atom_site_label
  _atom_site_symmetry_multiplicity
  _atom_site_fract_x
  _atom_site_fract_y
  _atom_site_fract_z
  _atom_site_occupancy
  Ti  Ti1       1.0  0.44810  0.96408  0.37645  1.0000
  Ti  Ti2       1.0  0.16290  0.99412  0.98663  1.0000
  Ti  Ti3       1.0  0.33857  0.98633  0.07551  1.0000
  Ti  Ti4       1.0  0.19593  0.20738  0.36699  1.0000
  Ti  Ti5       1.0  0.14218  0.30179  0.84656  1.0000
  Ti  Ti6       1.0  0.19821  0.19245  0.02714  1.0000
  Ti  Ti7       1.0  0.95880  0.67659  0.43824  1.0000
  Ti  Ti8       1.0  0.86669  0.85755  0.59449  1.0000
  Ti  Ti9       1.0  0.89089  0.79916  0.17456  1.0000
  Ti  Ti10      1.0  0.03259  0.85735  0.16192  1.0000
  Ti  Ti11      1.0  0.08641  0.88352  0.73318  1.0000
  Ti  Ti12      1.0  0.10898  0.72007  0.73306  1.0000
  Ti  Ti13      1.0  0.38140  0.24144  0.28849  1.0000
  Ti  Ti14      1.0  0.36200  0.12086  0.69004  1.0000
  Ti  Ti15      1.0  0.38873  0.14711  0.02386  1.0000
  Ti  Ti16      1.0  0.28625  0.64945  0.97952  1.0000
  Ti  Ti17      1.0  0.20896  0.57787  0.16084  1.0000
  Ti  Ti18      1.0  0.30966  0.44291  0.69801  1.0000
  Ti  Ti19      1.0  0.32290  0.78174  0.13343  1.0000
  Ti  Ti20      1.0  0.48507  0.65163  0.78823  1.0000
  Ti  Ti21      1.0  0.27618  0.70562  0.39096  1.0000
  Ti  Ti22      1.0  0.34194  0.85450  0.74996  1.0000
  Ti  Ti23      1.0  0.51560  0.84689  0.91166  1.0000
  Ti  Ti24      1.0  0.44910  0.76708  0.49776  1.0000
  Ti  Ti25      1.0  0.59695  0.20565  0.62899  1.0000
  Ti  Ti26      1.0  0.49577  0.26465  0.88375  1.0000
  Ti  Ti27      1.0  0.61598  0.19300  0.29322  1.0000
  Ti  Ti28      1.0  0.67675  0.36441  0.31836  1.0000
  Ti  Ti29      1.0  0.71793  0.40694  0.68422  1.0000
  Ti  Ti30      1.0  0.62937  0.39167  0.96428  1.0000
  Ti  Ti31      1.0  0.70452  0.52440  0.30643  1.0000
  Ti  Ti32      1.0  0.77110  0.51750  0.67545  1.0000
  Ti  Ti33      1.0  0.69796  0.52137  0.99190  1.0000
  Ti  Ti34      1.0  0.78668  0.72841  0.01887  1.0000
  Ti  Ti35      1.0  0.67451  0.84252  0.32031  1.0000
  Ti  Ti36      1.0  0.75058  0.71801  0.67686  1.0000
  Ti  Ti37      1.0  0.87599  0.12212  0.94159  1.0000
  Ti  Ti38      1.0  0.90194  0.10046  0.24068  1.0000
  Ti  Ti39      1.0  0.80959  0.14488  0.62529  1.0000
  Ti  Ti40      1.0  0.96605  0.33019  0.06706  1.0000
  Ti  Ti41      1.0  0.95590  0.29039  0.58446  1.0000
  Ti  Ti42      1.0  0.04635  0.09804  0.61460  1.0000
  Ti  Ti43      1.0  0.93898  0.51853  0.29675  1.0000
  Ti  Ti44      1.0  0.00311  0.49797  0.59907  1.0000
  Ti  Ti45      1.0  0.07731  0.50412  0.83957  1.0000
  Ti  Ti46      1.0  0.75465  0.02250  0.42210  1.0000
  Ti  Ti47      1.0  0.71000  0.02740  0.74574  1.0000
  Ti  Ti48      1.0  0.65327  0.02871  0.03750  1.0000
  Ti  Ti49      1.0  0.36318  0.99941  0.30439  1.0000
  Ti  Ti50      1.0  0.08659  0.02520  0.92229  1.0000
  Ti  Ti51      1.0  0.22491  0.00235  0.12744  1.0000
  Ti  Ti52      1.0  0.12931  0.24211  0.26705  1.0000
  Ti  Ti53      1.0  0.12017  0.31592  0.67855  1.0000
  Ti  Ti54      1.0  0.18274  0.19335  0.85111  1.0000
  Ti  Ti55      1.0  0.94763  0.71114  0.28102  1.0000
  Ti  Ti56      1.0  0.92693  0.89885  0.65395  1.0000
  Ti  Ti57      1.0  0.91573  0.79618  0.99695  1.0000
  Ti  Ti58      1.0  0.98725  0.94658  0.09531  1.0000
  Ti  Ti59      1.0  0.06189  0.85416  0.30827  1.0000
  Ti  Ti60      1.0  0.11888  0.79045  0.76550  1.0000
  Ti  Ti61      1.0  0.34619  0.23324  0.11723  1.0000
  Ti  Ti62      1.0  0.35580  0.29211  0.41550  1.0000
  Ti  Ti63      1.0  0.30789  0.17265  0.64165  1.0000
  Ti  Ti64      1.0  0.36943  0.45998  0.63961  1.0000
  Ti  Ti65      1.0  0.26790  0.57658  0.99555  1.0000
  Ti  Ti66      1.0  0.20760  0.51679  0.27977  1.0000
  Ti  Ti67      1.0  0.27272  0.75676  0.21908  1.0000
  Ti  Ti68      1.0  0.50064  0.67373  0.93925  1.0000
  Ti  Ti69      1.0  0.21363  0.68535  0.49035  1.0000
  Ti  Ti70      1.0  0.36591  0.82316  0.59534  1.0000
  Ti  Ti71      1.0  0.55691  0.90603  0.86151  1.0000
  Ti  Ti72      1.0  0.47439  0.83029  0.06023  1.0000
  Ti  Ti73      1.0  0.57893  0.17521  0.46424  1.0000
  Ti  Ti74      1.0  0.51404  0.21255  0.72174  1.0000
  Ti  Ti75      1.0  0.49280  0.24942  0.03747  1.0000
  Ti  Ti76      1.0  0.53827  0.39916  0.01996  1.0000
  Ti  Ti77      1.0  0.60593  0.44091  0.43900  1.0000
  Ti  Ti78      1.0  0.65092  0.41317  0.76381  1.0000
  Ti  Ti79      1.0  0.72698  0.55302  0.14883  1.0000
  Ti  Ti80      1.0  0.77189  0.54939  0.37677  1.0000
  Ti  Ti81      1.0  0.74136  0.54503  0.82827  1.0000
  Ti  Ti82      1.0  0.75335  0.73494  0.87119  1.0000
  Ti  Ti83      1.0  0.63638  0.85360  0.17414  1.0000
  Ti  Ti84      1.0  0.68866  0.80455  0.57696  1.0000
  Ti  Ti85      1.0  0.79698  0.18892  0.79570  1.0000
  Ti  Ti86      1.0  0.84363  0.17321  0.10369  1.0000
  Ti  Ti87      1.0  0.78428  0.17462  0.47248  1.0000
  Ti  Ti88      1.0  0.89769  0.30084  0.12794  1.0000
  Ti  Ti89      1.0  0.88995  0.30451  0.64241  1.0000
  Ti  Ti90      1.0  0.09552  0.01813  0.51641  1.0000
  Ti  Ti91      1.0  0.10559  0.54663  0.97682  1.0000
  Ti  Ti92      1.0  0.93669  0.53475  0.45649  1.0000
  Ti  Ti93      1.0  0.01061  0.56625  0.72148  1.0000
  Ti  Ti94      1.0  0.62796  0.02037  0.18823  1.0000
  Ti  Ti95      1.0  0.73047  0.99967  0.56954  1.0000
  Ti  Ti96      1.0  0.67282  0.97252  0.86230  1.0000
  I   I1        1.0  0.08550  0.02999  0.80755  1.0000
  I   I2        1.0  0.18844  0.96861  0.09328  1.0000
  I   I3        1.0  0.32073  0.98253  0.30414  1.0000
  I   I4        1.0  0.12482  0.26866  0.62322  1.0000
  I   I5        1.0  0.18411  0.24688  0.78067  1.0000
  I   I6        1.0  0.15542  0.19968  0.09879  1.0000
  I   I7        1.0  0.95619  0.88324  0.75092  1.0000
  I   I8        1.0  0.83005  0.89217  0.67450  1.0000
  I   I9        1.0  0.93379  0.77695  0.27448  1.0000
  I   I10       1.0  0.09658  0.83226  0.17217  1.0000
  I   I11       1.0  0.16427  0.78481  0.83732  1.0000
  I   I12       1.0  0.92780  0.97653  0.12569  1.0000
  I   I13       1.0  0.32414  0.30540  0.30185  1.0000
  I   I14       1.0  0.40992  0.08718  0.61867  1.0000
  I   I15       1.0  0.33249  0.18633  0.07737  1.0000
  I   I16       1.0  0.32225  0.57910  0.95910  1.0000
  I   I17       1.0  0.24738  0.50599  0.17585  1.0000
  I   I18       1.0  0.34261  0.51452  0.68398  1.0000
  I   I19       1.0  0.45090  0.66730  0.89981  1.0000
  I   I20       1.0  0.15988  0.73500  0.49783  1.0000
  I   I21       1.0  0.24528  0.76093  0.32681  1.0000
  I   I22       1.0  0.53538  0.96122  0.91849  1.0000
  I   I23       1.0  0.55661  0.86785  0.95978  1.0000
  I   I24       1.0  0.34614  0.85142  0.49295  1.0000
  I   I25       1.0  0.56583  0.16638  0.66708  1.0000
  I   I26       1.0  0.45637  0.24012  0.93784  1.0000
  I   I27       1.0  0.62021  0.14293  0.37278  1.0000
  I   I28       1.0  0.64210  0.37212  0.43424  1.0000
  I   I29       1.0  0.71066  0.35879  0.73828  1.0000
  I   I30       1.0  0.58069  0.37529  0.92891  1.0000
  I   I31       1.0  0.70242  0.58309  0.34149  1.0000
  I   I32       1.0  0.70838  0.56102  0.73460  1.0000
  I   I33       1.0  0.69041  0.57552  0.03560  1.0000
  I   I34       1.0  0.66523  0.87042  0.09821  1.0000
  I   I35       1.0  0.71045  0.84316  0.54484  1.0000
  I   I36       1.0  0.72862  0.70936  0.79517  1.0000
  I   I37       1.0  0.82257  0.15145  0.01540  1.0000
  I   I38       1.0  0.77495  0.13903  0.40354  1.0000
  I   I39       1.0  0.76552  0.17095  0.71065  1.0000
  I   I40       1.0  0.83679  0.31495  0.59029  1.0000
  I   I41       1.0  0.10068  0.95892  0.52973  1.0000
  I   I42       1.0  0.90725  0.35437  0.10750  1.0000
  I   I43       1.0  0.92315  0.49187  0.40586  1.0000
  I   I44       1.0  0.96479  0.54987  0.68954  1.0000
  I   I45       1.0  0.05423  0.53139  0.95945  1.0000
  I   I46       1.0  0.78932  0.97773  0.51664  1.0000
  I   I47       1.0  0.72179  0.96086  0.79087  1.0000
  I   I48       1.0  0.63847  0.98419  0.08667  1.0000
  I   I49       1.0  0.40568  0.02446  0.30450  1.0000
  I   I50       1.0  0.10802  0.01048  0.05147  1.0000
  I   I51       1.0  0.26907  0.01847  0.11574  1.0000
  I   I52       1.0  0.11708  0.24915  0.37424  1.0000
  I   I53       1.0  0.09992  0.28806  0.77844  1.0000
  I   I54       1.0  0.17105  0.16281  0.95596  1.0000
  I   I55       1.0  0.94793  0.65626  0.31758  1.0000
  I   I56       1.0  0.88673  0.90785  0.55463  1.0000
  I   I57       1.0  0.93044  0.75672  0.09466  1.0000
  I   I58       1.0  0.03950  0.80912  0.09625  1.0000
  I   I59       1.0  0.10454  0.87298  0.30797  1.0000
  I   I60       1.0  0.07718  0.78619  0.69050  1.0000
  I   I61       1.0  0.37544  0.26441  0.16777  1.0000
  I   I62       1.0  0.38193  0.27647  0.51692  1.0000
  I   I63       1.0  0.30785  0.22473  0.65567  1.0000
  I   I64       1.0  0.25804  0.70791  0.01469  1.0000
  I   I65       1.0  0.20744  0.56941  0.05259  1.0000
  I   I66       1.0  0.19348  0.46989  0.29412  1.0000
  I   I67       1.0  0.28614  0.75026  0.09927  1.0000
  I   I68       1.0  0.42345  0.67054  0.75942  1.0000
  I   I69       1.0  0.21327  0.70909  0.37662  1.0000
  I   I70       1.0  0.38684  0.79450  0.69887  1.0000
  I   I71       1.0  0.56781  0.80113  0.86143  1.0000
  I   I72       1.0  0.42684  0.82827  0.02103  1.0000
  I   I73       1.0  0.54891  0.22703  0.53787  1.0000
  I   I74       1.0  0.46890  0.27536  0.78141  1.0000
  I   I75       1.0  0.51386  0.27502  0.11115  1.0000
  I   I76       1.0  0.65004  0.43070  0.34377  1.0000
  I   I77       1.0  0.56084  0.44621  0.50782  1.0000
  I   I78       1.0  0.60122  0.43505  0.83655  1.0000
  I   I79       1.0  0.76422  0.51875  0.25007  1.0000
  I   I80       1.0  0.82589  0.50612  0.40514  1.0000
  I   I81       1.0  0.75850  0.51469  0.93755  1.0000
  I   I82       1.0  0.77320  0.77407  0.93012  1.0000
  I   I83       1.0  0.64259  0.89449  0.25161  1.0000
  I   I84       1.0  0.68935  0.77689  0.68437  1.0000
  I   I85       1.0  0.84832  0.18881  0.86111  1.0000
  I   I86       1.0  0.89312  0.15576  0.18380  1.0000
  I   I87       1.0  0.79288  0.20660  0.57605  1.0000
  I   I88       1.0  0.85083  0.33310  0.06465  1.0000
  I   I89       1.0  0.94415  0.29133  0.70337  1.0000
  I   I90       1.0  0.10506  0.07051  0.53088  1.0000
  I   I91       1.0  0.14151  0.50672  0.05014  1.0000
  I   I92       1.0  0.97055  0.55291  0.53123  1.0000
  I   I93       1.0  0.05495  0.56689  0.78966  1.0000
  I   I94       1.0  0.57645  0.02466  0.22851  1.0000
  I   I95       1.0  0.67880  0.02190  0.63810  1.0000
  I   I96       1.0  0.62192  0.00601  0.93725  1.0000
  I   I97       1.0  0.34299  0.02417  0.16420  1.0000
  I   I98       1.0  0.46632  0.98716  0.45417  1.0000
  I   I99       1.0  0.18087  0.04482  0.05065  1.0000
  I   I100      1.0  0.18216  0.25190  0.26597  1.0000
  I   I101      1.0  0.19829  0.16583  0.44363  1.0000
  I   I102      1.0  0.13514  0.25418  0.91126  1.0000
  I   I103      1.0  0.89362  0.73809  0.22377  1.0000
  I   I104      1.0  0.01157  0.62514  0.46409  1.0000
  I   I105      1.0  0.94438  0.74618  0.93333  1.0000
  I   I106      1.0  0.05539  0.72450  0.77986  1.0000
  I   I107      1.0  0.02506  0.82415  0.25787  1.0000
  I   I108      1.0  0.07064  0.83822  0.81541  1.0000
  I   I109      1.0  0.40834  0.18865  0.08811  1.0000
  I   I110      1.0  0.41457  0.27308  0.31657  1.0000
  I   I111      1.0  0.32757  0.10138  0.62306  1.0000
  I   I112      1.0  0.37146  0.42824  0.74727  1.0000
  I   I113      1.0  0.23143  0.64434  0.02632  1.0000
  I   I114      1.0  0.16681  0.56165  0.19697  1.0000
  I   I115      1.0  0.29980  0.68832  0.26256  1.0000
  I   I116      1.0  0.28689  0.82243  0.05983  1.0000
  I   I117      1.0  0.50248  0.59226  0.77937  1.0000
  I   I118      1.0  0.39669  0.76298  0.54012  1.0000
  I   I119      1.0  0.38371  0.84170  0.82673  1.0000
  I   I120      1.0  0.53668  0.81066  0.03409  1.0000
  I   I121      1.0  0.60289  0.21550  0.41039  1.0000
  I   I122      1.0  0.56241  0.23888  0.71988  1.0000
  I   I123      1.0  0.46434  0.30824  0.96063  1.0000
  I   I124      1.0  0.57533  0.43359  0.02192  1.0000
  I   I125      1.0  0.73193  0.34502  0.35557  1.0000
  I   I126      1.0  0.69647  0.42646  0.79878  1.0000
  I   I127      1.0  0.72640  0.49855  0.10692  1.0000
  I   I128      1.0  0.75045  0.50167  0.39757  1.0000
  I   I129      1.0  0.76229  0.48011  0.77862  1.0000
  I   I130      1.0  0.77170  0.74955  0.75764  1.0000
  I   I131      1.0  0.75599  0.75766  0.10632  1.0000
  I   I132      1.0  0.62885  0.82511  0.27659  1.0000
  I   I133      1.0  0.84738  0.15864  0.69508  1.0000
  I   I134      1.0  0.90672  0.13472  0.01874  1.0000
  I   I135      1.0  0.94596  0.09502  0.30881  1.0000
  I   I136      1.0  0.08041  0.11131  0.68372  1.0000
  I   I137      1.0  0.98250  0.36724  0.11873  1.0000
  I   I138      1.0  0.00515  0.24811  0.52820  1.0000
  I   I139      1.0  0.12967  0.51503  0.87769  1.0000
  I   I140      1.0  0.98763  0.51162  0.36791  1.0000
  I   I141      1.0  0.04432  0.52109  0.62791  1.0000
  I   I142      1.0  0.59630  0.06567  0.09546  1.0000
  I   I143      1.0  0.71672  0.05662  0.53018  1.0000
  I   I144      1.0  0.66549  0.03823  0.83020  1.0000
  I   I145      1.0  0.41407  0.94129  0.27654  1.0000
  I   I146      1.0  0.15126  0.95183  0.93875  1.0000
  I   I147      1.0  0.31033  0.96306  0.00594  1.0000
  I   I148      1.0  0.18290  0.18046  0.26507  1.0000
  I   I149      1.0  0.13994  0.34493  0.77528  1.0000
  I   I150      1.0  0.23429  0.18849  0.91123  1.0000
  I   I151      1.0  0.90216  0.72526  0.39262  1.0000
  I   I152      1.0  0.84687  0.86052  0.49866  1.0000
  I   I153      1.0  0.90202  0.83879  0.09834  1.0000
  I   I154      1.0  0.04244  0.89610  0.06614  1.0000
  I   I155      1.0  0.05197  0.92532  0.80804  1.0000
  I   I156      1.0  0.10941  0.75155  0.83739  1.0000
  I   I157      1.0  0.35183  0.20828  0.24254  1.0000
  I   I158      1.0  0.38577  0.16049  0.70870  1.0000
  I   I159      1.0  0.35846  0.11544  0.98662  1.0000
  I   I160      1.0  0.43534  0.42912  0.65439  1.0000
  I   I161      1.0  0.27218  0.56956  0.11588  1.0000
  I   I162      1.0  0.25918  0.45856  0.64245  1.0000
  I   I163      1.0  0.34305  0.72695  0.20818  1.0000
  I   I164      1.0  0.51706  0.64019  0.03100  1.0000
  I   I165      1.0  0.25057  0.72077  0.49910  1.0000
  I   I166      1.0  0.32352  0.80671  0.61097  1.0000
  I   I167      1.0  0.50184  0.89507  0.82575  1.0000
  I   I168      1.0  0.47558  0.70617  0.46620  1.0000
  I   I169      1.0  0.62727  0.14796  0.55003  1.0000
  I   I170      1.0  0.53817  0.19999  0.83487  1.0000
  I   I171      1.0  0.61536  0.16570  0.20218  1.0000
  I   I172      1.0  0.56785  0.35863  0.09989  1.0000
  I   I173      1.0  0.77740  0.37792  0.69204  1.0000
  I   I174      1.0  0.66899  0.36820  0.88208  1.0000
  I   I175      1.0  0.67380  0.55331  0.21015  1.0000
  I   I176      1.0  0.77150  0.56660  0.63426  1.0000
  I   I177      1.0  0.68133  0.54938  0.87909  1.0000
  I   I178      1.0  0.81241  0.69526  0.88310  1.0000
  I   I179      1.0  0.70988  0.81347  0.23404  1.0000
  I   I180      1.0  0.73817  0.67869  0.63248  1.0000
  I   I181      1.0  0.81198  0.13699  0.85763  1.0000
  I   I182      1.0  0.84499  0.11896  0.17335  1.0000
  I   I183      1.0  0.76165  0.14201  0.56665  1.0000
  I   I184      1.0  0.95758  0.35326  0.96495  1.0000
  I   I185      1.0  0.91709  0.31352  0.50879  1.0000
  I   I186      1.0  0.06112  0.03696  0.62880  1.0000
  I   I187      1.0  0.88417  0.52984  0.26635  1.0000
  I   I188      1.0  0.94807  0.49166  0.56238  1.0000
  I   I189      1.0  0.02114  0.51198  0.80274  1.0000
  I   I190      1.0  0.78700  0.97831  0.34361  1.0000
  I   I191      1.0  0.76249  0.99935  0.67292  1.0000
  I   I192      1.0  0.70405  0.98731  0.98057  1.0000
  I   I193      1.0  0.49496  0.96021  0.30847  1.0000
  I   I194      1.0  0.13112  0.04561  0.90183  1.0000
  I   I195      1.0  0.37264  0.98387  0.98759  1.0000
  I   I196      1.0  0.19252  0.25543  0.43999  1.0000
  I   I197      1.0  0.10066  0.33576  0.92560  1.0000
  I   I198      1.0  0.21601  0.23388  0.06320  1.0000
  I   I199      1.0  0.93017  0.65416  0.50633  1.0000
  I   I200      1.0  0.92914  0.83848  0.63757  1.0000
  I   I201      1.0  0.84918  0.79967  0.09985  1.0000
  I   I202      1.0  0.97372  0.88770  0.13871  1.0000
  I   I203      1.0  0.13852  0.87590  0.77093  1.0000
  I   I204      1.0  0.14187  0.66114  0.77022  1.0000
  I   I205      1.0  0.42822  0.18975  0.24459  1.0000
  I   I206      1.0  0.30596  0.15633  0.75499  1.0000
  I   I207      1.0  0.41819  0.14143  0.92801  1.0000
  I   I208      1.0  0.32252  0.62786  0.06950  1.0000
  I   I209      1.0  0.16843  0.63503  0.14391  1.0000
  I   I210      1.0  0.32474  0.38693  0.73539  1.0000
  I   I211      1.0  0.36105  0.75339  0.04394  1.0000
  I   I212      1.0  0.53509  0.70241  0.92308  1.0000
  I   I213      1.0  0.29764  0.64654  0.41469  1.0000
  I   I214      1.0  0.31735  0.82360  0.80098  1.0000
  I   I215      1.0  0.47698  0.82980  0.86529  1.0000
  I   I216      1.0  0.43299  0.79052  0.39535  1.0000
  I   I217      1.0  0.61779  0.24102  0.58436  1.0000
  I   I218      1.0  0.53052  0.29240  0.85282  1.0000
  I   I219      1.0  0.58797  0.24851  0.25428  1.0000
  I   I220      1.0  0.67772  0.38393  0.21810  1.0000
  I   I221      1.0  0.70463  0.38905  0.58634  1.0000
  I   I222      1.0  0.65777  0.42590  0.97984  1.0000
  I   I223      1.0  0.71766  0.46903  0.28133  1.0000
  I   I224      1.0  0.83073  0.47181  0.67337  1.0000
  I   I225      1.0  0.72108  0.46809  0.94187  1.0000
  I   I226      1.0  0.83846  0.73166  0.00202  1.0000
  I   I227      1.0  0.63085  0.87356  0.39778  1.0000
  I   I228      1.0  0.75028  0.75462  0.57774  1.0000
  I   I229      1.0  0.91518  0.10016  0.85764  1.0000
  I   I230      1.0  0.93013  0.05535  0.17263  1.0000
  I   I231      1.0  0.84559  0.13141  0.51984  1.0000
  I   I232      1.0  0.02201  0.27964  0.04862  1.0000
  I   I233      1.0  0.87619  0.36561  0.63778  1.0000
  I   I234      1.0  0.99576  0.11851  0.67703  1.0000
  I   I235      1.0  0.95775  0.55420  0.22801  1.0000
  I   I236      1.0  0.03617  0.45814  0.51849  1.0000
  I   I237      1.0  0.10858  0.47734  0.74619  1.0000
  I   I238      1.0  0.70483  0.07149  0.37594  1.0000
  I   I239      1.0  0.68471  0.08873  0.73494  1.0000
  I   I240      1.0  0.64956  0.07936  0.99316  1.0000
  I   I241      1.0  0.46575  0.90800  0.42998  1.0000
  I   I242      1.0  0.21929  0.97996  0.95377  1.0000
  I   I243      1.0  0.37252  0.93264  0.11829  1.0000
  I   I244      1.0  0.25727  0.18668  0.35073  1.0000
  I   I245      1.0  0.18400  0.30356  0.91831  1.0000
  I   I246      1.0  0.24264  0.13860  0.05170  1.0000
  I   I247      1.0  0.95837  0.71274  0.51751  1.0000
  I   I248      1.0  0.87726  0.80137  0.63006  1.0000
  I   I249      1.0  0.84447  0.84394  0.22978  1.0000
  I   I250      1.0  0.01800  0.91631  0.22867  1.0000
  I   I251      1.0  0.06386  0.92374  0.64043  1.0000
  I   I252      1.0  0.10403  0.71230  0.62588  1.0000
  I   I253      1.0  0.39070  0.21955  0.39341  1.0000
  I   I254      1.0  0.38497  0.07623  0.77901  1.0000
  I   I255      1.0  0.42016  0.10319  0.09888  1.0000
  I   I256      1.0  0.28148  0.66075  0.87302  1.0000
  I   I257      1.0  0.22451  0.58070  0.27247  1.0000
  I   I258      1.0  0.27934  0.48526  0.78006  1.0000
  I   I259      1.0  0.34847  0.81668  0.14890  1.0000
  I   I260      1.0  0.51208  0.67397  0.71990  1.0000
  I   I261      1.0  0.32636  0.71198  0.40156  1.0000
  I   I262      1.0  0.29909  0.91384  0.76541  1.0000
  I   I263      1.0  0.46208  0.88473  0.99057  1.0000
  I   I264      1.0  0.50238  0.76608  0.50840  1.0000
  I   I265      1.0  0.65038  0.17317  0.68169  1.0000
  I   I266      1.0  0.54367  0.23639  0.97124  1.0000
  I   I267      1.0  0.67690  0.17127  0.30049  1.0000
  I   I268      1.0  0.66247  0.31886  0.30443  1.0000
  I   I269      1.0  0.71014  0.46027  0.63939  1.0000
  I   I270      1.0  0.65219  0.35345  0.05303  1.0000
  I   I271      1.0  0.65532  0.53994  0.36903  1.0000
  I   I272      1.0  0.74800  0.50184  0.58424  1.0000
  I   I273      1.0  0.64295  0.52766  0.02900  1.0000
  I   I274      1.0  0.80302  0.67553  0.07722  1.0000
  I   I275      1.0  0.72298  0.83364  0.38118  1.0000
  I   I276      1.0  0.81245  0.67818  0.69423  1.0000
  I   I277      1.0  0.88013  0.06939  0.96469  1.0000
  I   I278      1.0  0.87000  0.08566  0.32078  1.0000
  I   I279      1.0  0.83195  0.08130  0.63230  1.0000
  I   I280      1.0  0.96014  0.27786  0.12519  1.0000
  I   I281      1.0  0.97072  0.33595  0.57776  1.0000
  I   I282      1.0  0.02424  0.13947  0.53355  1.0000
  I   I283      1.0  0.98038  0.46631  0.24603  1.0000
  I   I284      1.0  0.01944  0.45374  0.67681  1.0000
  I   I285      1.0  0.10351  0.45174  0.90928  1.0000
  I   I286      1.0  0.79415  0.04537  0.40946  1.0000
  I   I287      1.0  0.75098  0.02489  0.82506  1.0000
  I   I288      1.0  0.68646  0.02014  0.13325  1.0000
  I   I289      1.0  0.38383  0.98368  0.41833  1.0000
  I   I290      1.0  0.05561  0.99489  0.94862  1.0000
  I   I291      1.0  0.26848  0.94529  0.14852  1.0000
  I   I292      1.0  0.09804  0.21249  0.23511  1.0000
  I   I293      1.0  0.06614  0.36166  0.69254  1.0000
  I   I294      1.0  0.22248  0.14029  0.80916  1.0000
  I   I295      1.0  0.99733  0.69564  0.35584  1.0000
  I   I296      1.0  0.95975  0.92050  0.60155  1.0000
  I   I297      1.0  0.86629  0.83544  0.94305  1.0000
  I   I298      1.0  0.01047  0.98261  0.12218  1.0000
  I   I299      1.0  0.10177  0.79741  0.34719  1.0000
  I   I300      1.0  0.16507  0.73366  0.72060  1.0000
  I   I301      1.0  0.29080  0.27736  0.15430  1.0000
  I   I302      1.0  0.30161  0.29675  0.44113  1.0000
  I   I303      1.0  0.24809  0.19503  0.62773  1.0000
  I   I304      1.0  0.38363  0.46545  0.53798  1.0000
  I   I305      1.0  0.28391  0.51830  0.97505  1.0000
  I   I306      1.0  0.17348  0.54496  0.36531  1.0000
  I   I307      1.0  0.27067  0.81324  0.22300  1.0000
  I   I308      1.0  0.54380  0.62886  0.85624  1.0000
  I   I309      1.0  0.20142  0.64241  0.45479  1.0000
  I   I310      1.0  0.34082  0.88225  0.64345  1.0000
  I   I311      1.0  0.61282  0.89469  0.88376  1.0000
  I   I312      1.0  0.46448  0.86000  0.15584  1.0000
  I   I313      1.0  0.57094  0.12526  0.50702  1.0000
  I   I314      1.0  0.49992  0.16822  0.74532  1.0000
  I   I315      1.0  0.50818  0.18988  0.05446  1.0000
  I   I316      1.0  0.51068  0.36929  0.97913  1.0000
  I   I317      1.0  0.56672  0.49218  0.38405  1.0000
  I   I318      1.0  0.62418  0.38116  0.71858  1.0000
  I   I319      1.0  0.71396  0.60726  0.18842  1.0000
  I   I320      1.0  0.75864  0.58576  0.46354  1.0000
  I   I321      1.0  0.71689  0.60747  0.83152  1.0000
  I   I322      1.0  0.74044  0.71209  0.96549  1.0000
  I   I323      1.0  0.64662  0.79778  0.13778  1.0000
  I   I324      1.0  0.68164  0.78874  0.47523  1.0000
  I   I325      1.0  0.75016  0.22086  0.85740  1.0000
  I   I326      1.0  0.80040  0.20564  0.17687  1.0000
  I   I327      1.0  0.72645  0.21555  0.47939  1.0000
  I   I328      1.0  0.87115  0.30966  0.23136  1.0000
  I   I329      1.0  0.92856  0.24567  0.60868  1.0000
  I   I330      1.0  0.06265  0.02963  0.42711  1.0000
  I   I331      1.0  0.06618  0.59613  0.03565  1.0000
  I   I332      1.0  0.88852  0.56050  0.52788  1.0000
  I   I333      1.0  0.96479  0.61338  0.77737  1.0000
  I   I334      1.0  0.61628  0.07584  0.24366  1.0000
  I   I335      1.0  0.73832  0.93926  0.57455  1.0000
  I   I336      1.0  0.69305  0.91722  0.90204  1.0000
  I   I337      1.0  0.32754  0.05180  0.35612  1.0000
  I   I338      1.0  0.03926  0.07926  0.93758  1.0000
  I   I339      1.0  0.20378  0.02064  0.22754  1.0000
  I   I340      1.0  0.08599  0.29321  0.21836  1.0000
  I   I341      1.0  0.15853  0.32882  0.61063  1.0000
  I   I342      1.0  0.13876  0.18987  0.79496  1.0000
  I   I343      1.0  0.98540  0.68623  0.18886  1.0000
  I   I344      1.0  0.87665  0.94747  0.68608  1.0000
  I   I345      1.0  0.96051  0.81076  0.97303  1.0000
  I   I346      1.0  0.96432  0.95366  0.99362  1.0000
  I   I347      1.0  0.03021  0.88299  0.39910  1.0000
  I   I348      1.0  0.12456  0.83136  0.65842  1.0000
  I   I349      1.0  0.33868  0.25604  0.01516  1.0000
  I   I350      1.0  0.33298  0.35097  0.41115  1.0000
  I   I351      1.0  0.33229  0.16478  0.53469  1.0000
  I   I352      1.0  0.35072  0.41688  0.60541  1.0000
  I   I353      1.0  0.24466  0.59989  0.89509  1.0000
  I   I354      1.0  0.26162  0.48044  0.33180  1.0000
  I   I355      1.0  0.21713  0.76893  0.19030  1.0000
  I   I356      1.0  0.45766  0.72987  0.97995  1.0000
  I   I357      1.0  0.23750  0.66892  0.59355  1.0000
  I   I358      1.0  0.42736  0.81646  0.58008  1.0000
  I   I359      1.0  0.56056  0.92024  0.75783  1.0000
  I   I360      1.0  0.49463  0.77632  0.10672  1.0000
  I   I361      1.0  0.53069  0.20908  0.39946  1.0000
  I   I362      1.0  0.47724  0.23822  0.64176  1.0000
  I   I363      1.0  0.44304  0.28163  0.10878  1.0000
  I   I364      1.0  0.48944  0.44875  0.05331  1.0000
  I   I365      1.0  0.63108  0.47046  0.49143  1.0000
  I   I366      1.0  0.62731  0.45703  0.67693  1.0000
  I   I367      1.0  0.77686  0.53995  0.08742  1.0000
  I   I368      1.0  0.78680  0.58260  0.30576  1.0000
  I   I369      1.0  0.80134  0.53076  0.80754  1.0000
  I   I370      1.0  0.69947  0.79066  0.86616  1.0000
  I   I371      1.0  0.57609  0.88173  0.14991  1.0000
  I   I372      1.0  0.63265  0.85463  0.58992  1.0000
  I   I373      1.0  0.79418  0.23893  0.74252  1.0000
  I   I374      1.0  0.83718  0.22487  0.05412  1.0000
  I   I375      1.0  0.80366  0.20181  0.38678  1.0000
  I   I376      1.0  0.90673  0.24643  0.08248  1.0000
  I   I377      1.0  0.86581  0.29218  0.73670  1.0000
  I   I378      1.0  0.15626  0.99160  0.48385  1.0000
  I   I379      1.0  0.13964  0.57439  0.94547  1.0000
  I   I380      1.0  0.89985  0.57748  0.37371  1.0000
  I   I381      1.0  0.01641  0.60730  0.64300  1.0000
  I   I382      1.0  0.67192  0.97917  0.25343  1.0000
  I   I383      1.0  0.70919  0.99444  0.45242  1.0000
  I   I384      1.0  0.63072  0.97267  0.79325  1.0000
