data_image0
_chemical_formula_structural       Ti96I384
_chemical_formula_sum              "Ti96 I384"
_cell_length_a       79.0375
_cell_length_b       78.7469
_cell_length_c       38.6117
_cell_angle_alpha    88.7757
_cell_angle_beta     88.7757
_cell_angle_gamma    62.1586

_space_group_name_H-M_alt    "P 1"
_space_group_IT_number       1

loop_
  _space_group_symop_operation_xyz
  'x, y, z'

loop_
  _atom_site_type_symbol
  _atom_site_label
  _atom_site_symmetry_multiplicity
  _atom_site_fract_x
  _atom_site_fract_y
  _atom_site_fract_z
  _atom_site_occupancy
  Ti  Ti1       1.0  0.55952  0.72762  0.14544  1.0000
  Ti  Ti2       1.0  0.62999  0.91490  0.54366  1.0000
  Ti  Ti3       1.0  0.11031  0.02005  0.43087  1.0000
  Ti  Ti4       1.0  0.40545  0.79533  0.03110  1.0000
  Ti  Ti5       1.0  0.87756  0.89616  0.79193  1.0000
  Ti  Ti6       1.0  0.20837  0.92619  0.35598  1.0000
  Ti  Ti7       1.0  0.48920  0.06643  0.71982  1.0000
  Ti  Ti8       1.0  0.77284  0.29001  0.55562  1.0000
  Ti  Ti9       1.0  0.10466  0.08143  0.68305  1.0000
  Ti  Ti10      1.0  0.92285  0.38065  0.30574  1.0000
  Ti  Ti11      1.0  0.00201  0.96369  0.84539  1.0000
  Ti  Ti12      1.0  0.23205  0.90370  0.09550  1.0000
  Ti  Ti13      1.0  0.48158  0.68536  0.36561  1.0000
  Ti  Ti14      1.0  0.44057  0.75711  0.08459  1.0000
  Ti  Ti15      1.0  0.92133  0.12670  0.93386  1.0000
  Ti  Ti16      1.0  0.89130  0.32643  0.45496  1.0000
  Ti  Ti17      1.0  0.22289  0.17439  0.45166  1.0000
  Ti  Ti18      1.0  0.63780  0.25571  0.45839  1.0000
  Ti  Ti19      1.0  0.25011  0.00882  0.26888  1.0000
  Ti  Ti20      1.0  0.02757  0.41041  0.68837  1.0000
  Ti  Ti21      1.0  0.72405  0.33007  0.54266  1.0000
  Ti  Ti22      1.0  0.56514  0.33825  0.20984  1.0000
  Ti  Ti23      1.0  0.39572  0.28606  0.31905  1.0000
  Ti  Ti24      1.0  0.62602  0.52414  0.46412  1.0000
  Ti  Ti25      1.0  0.83393  0.17955  0.72257  1.0000
  Ti  Ti26      1.0  0.15268  0.84354  0.84369  1.0000
  Ti  Ti27      1.0  0.80465  0.82206  0.90500  1.0000
  Ti  Ti28      1.0  0.37376  0.97371  0.32216  1.0000
  Ti  Ti29      1.0  0.06842  0.75539  0.63203  1.0000
  Ti  Ti30      1.0  0.27644  0.63843  0.49883  1.0000
  Ti  Ti31      1.0  0.93926  0.89279  0.57321  1.0000
  Ti  Ti32      1.0  0.23655  0.05882  0.69533  1.0000
  Ti  Ti33      1.0  0.66991  0.26893  0.05773  1.0000
  Ti  Ti34      1.0  0.81745  0.55887  0.67499  1.0000
  Ti  Ti35      1.0  0.63788  0.20820  0.86589  1.0000
  Ti  Ti36      1.0  0.88688  0.00354  0.93494  1.0000
  Ti  Ti37      1.0  0.52651  0.93610  0.52805  1.0000
  Ti  Ti38      1.0  0.57459  0.54509  0.63033  1.0000
  Ti  Ti39      1.0  0.92816  0.41872  0.34417  1.0000
  Ti  Ti40      1.0  0.67615  0.75758  0.04858  1.0000
  Ti  Ti41      1.0  0.59504  0.45126  0.09982  1.0000
  Ti  Ti42      1.0  0.21208  0.44825  0.19493  1.0000
  Ti  Ti43      1.0  0.47722  0.55820  0.98950  1.0000
  Ti  Ti44      1.0  0.04651  0.36504  0.48441  1.0000
  Ti  Ti45      1.0  0.95932  0.18145  0.60117  1.0000
  Ti  Ti46      1.0  0.77118  0.67387  0.86154  1.0000
  Ti  Ti47      1.0  0.50696  0.35548  0.69399  1.0000
  Ti  Ti48      1.0  0.67634  0.74773  0.47211  1.0000
  Ti  Ti49      1.0  0.86563  0.87627  0.15799  1.0000
  Ti  Ti50      1.0  0.03343  0.35613  0.83857  1.0000
  Ti  Ti51      1.0  0.62843  0.92256  0.42322  1.0000
  Ti  Ti52      1.0  0.38348  0.73017  0.22942  1.0000
  Ti  Ti53      1.0  0.70532  0.93669  0.34855  1.0000
  Ti  Ti54      1.0  0.66879  0.88341  0.90967  1.0000
  Ti  Ti55      1.0  0.74333  0.61068  0.25022  1.0000
  Ti  Ti56      1.0  0.68042  0.03820  0.58827  1.0000
  Ti  Ti57      1.0  0.06512  0.09279  0.66776  1.0000
  Ti  Ti58      1.0  0.71260  0.08874  0.41451  1.0000
  Ti  Ti59      1.0  0.93112  0.31595  0.48927  1.0000
  Ti  Ti60      1.0  0.13671  0.20606  0.57346  1.0000
  Ti  Ti61      1.0  0.49793  0.20335  0.48315  1.0000
  Ti  Ti62      1.0  0.51467  0.68752  0.40149  1.0000
  Ti  Ti63      1.0  0.02894  0.82818  0.92197  1.0000
  Ti  Ti64      1.0  0.65696  0.21832  0.45708  1.0000
  Ti  Ti65      1.0  0.84741  0.49412  0.06113  1.0000
  Ti  Ti66      1.0  0.36344  0.94257  0.38405  1.0000
  Ti  Ti67      1.0  0.24507  0.70071  0.74272  1.0000
  Ti  Ti68      1.0  0.76662  0.66931  0.74604  1.0000
  Ti  Ti69      1.0  0.19662  0.83826  0.83611  1.0000
  Ti  Ti70      1.0  0.33412  0.47858  0.76245  1.0000
  Ti  Ti71      1.0  0.56133  0.61739  0.08358  1.0000
  Ti  Ti72      1.0  0.55465  0.32516  0.63378  1.0000
  Ti  Ti73      1.0  0.45654  0.43461  0.51650  1.0000
  Ti  Ti74      1.0  0.82373  0.13099  0.67319  1.0000
  Ti  Ti75      1.0  0.79345  0.77207  0.30150  1.0000
  Ti  Ti76      1.0  0.14839  0.98908  0.82423  1.0000
  Ti  Ti77      1.0  0.88616  0.11987  0.97361  1.0000
  Ti  Ti78      1.0  0.04843  0.80505  0.68924  1.0000
  Ti  Ti79      1.0  0.64343  0.03949  0.83992  1.0000
  Ti  Ti80      1.0  0.92812  0.68150  0.38536  1.0000
  Ti  Ti81      1.0  0.36692  0.31317  0.22699  1.0000
  Ti  Ti82      1.0  0.66465  0.54420  0.75079  1.0000
  Ti  Ti83      1.0  0.90886  0.22274  0.63570  1.0000
  Ti  Ti84      1.0  0.86388  0.03853  0.98709  1.0000
  Ti  Ti85      1.0  0.49471  0.95242  0.57988  1.0000
  Ti  Ti86      1.0  0.51758  0.08649  0.65000  1.0000
  Ti  Ti87      1.0  0.46828  0.84578  0.66251  1.0000
  Ti  Ti88      1.0  0.71824  0.20006  0.91398  1.0000
  Ti  Ti89      1.0  0.98135  0.26214  0.00440  1.0000
  Ti  Ti90      1.0  0.22179  0.21149  0.40940  1.0000
  Ti  Ti91      1.0  0.55700  0.42933  0.97262  1.0000
  Ti  Ti92      1.0  0.69022  0.60033  0.75726  1.0000
  Ti  Ti93      1.0  0.37002  0.89087  0.84557  1.0000
  Ti  Ti94      1.0  0.69363  0.76727  0.52224  1.0000
  Ti  Ti95      1.0  0.08125  0.90805  0.95684  1.0000
  Ti  Ti96      1.0  0.28687  0.24910  0.92477  1.0000
  I   I1        1.0  0.48031  0.37567  0.74131  1.0000
  I   I2        1.0  0.62109  0.95670  0.40529  1.0000
  I   I3        1.0  0.89545  0.87480  0.18563  1.0000
  I   I4        1.0  0.68513  0.97332  0.32335  1.0000
  I   I5        1.0  0.21497  0.95250  0.32591  1.0000
  I   I6        1.0  0.64142  0.87646  0.88771  1.0000
  I   I7        1.0  0.72647  0.30714  0.58922  1.0000
  I   I8        1.0  0.71734  0.01842  0.59403  1.0000
  I   I9        1.0  0.07557  0.10932  0.72898  1.0000
  I   I10       1.0  0.66529  0.75942  0.98322  1.0000
  I   I11       1.0  0.01504  0.92929  0.80787  1.0000
  I   I12       1.0  0.88220  0.86656  0.82613  1.0000
  I   I13       1.0  0.55555  0.66509  0.41255  1.0000
  I   I14       1.0  0.01222  0.82987  0.86304  1.0000
  I   I15       1.0  0.95243  0.09922  0.91730  1.0000
  I   I16       1.0  0.70053  0.72227  0.05394  1.0000
  I   I17       1.0  0.38594  0.91274  0.41552  1.0000
  I   I18       1.0  0.69448  0.19239  0.47268  1.0000
  I   I19       1.0  0.06323  0.82387  0.89569  1.0000
  I   I20       1.0  0.98855  0.96974  0.77225  1.0000
  I   I21       1.0  0.77452  0.29152  0.62421  1.0000
  I   I22       1.0  0.38587  0.33396  0.21041  1.0000
  I   I23       1.0  0.70992  0.22724  0.86134  1.0000
  I   I24       1.0  0.32142  0.47443  0.81992  1.0000
  I   I25       1.0  0.81970  0.19531  0.78321  1.0000
  I   I26       1.0  0.80627  0.79699  0.30090  1.0000
  I   I27       1.0  0.67047  0.18034  0.84795  1.0000
  I   I28       1.0  0.36681  0.00765  0.29218  1.0000
  I   I29       1.0  0.01638  0.80730  0.72296  1.0000
  I   I30       1.0  0.24510  0.64434  0.53245  1.0000
  I   I31       1.0  0.93017  0.66554  0.44814  1.0000
  I   I32       1.0  0.42453  0.28977  0.29416  1.0000
  I   I33       1.0  0.61469  0.08074  0.83777  1.0000
  I   I34       1.0  0.61166  0.19928  0.85751  1.0000
  I   I35       1.0  0.85906  0.06048  0.03846  1.0000
  I   I36       1.0  0.82138  0.52339  0.67906  1.0000
  I   I37       1.0  0.56243  0.91937  0.52715  1.0000
  I   I38       1.0  0.94369  0.34927  0.28051  1.0000
  I   I39       1.0  0.51694  0.95019  0.46406  1.0000
  I   I40       1.0  0.06043  0.33672  0.44247  1.0000
  I   I41       1.0  0.01135  0.38923  0.86609  1.0000
  I   I42       1.0  0.64636  0.77794  0.09422  1.0000
  I   I43       1.0  0.73599  0.10140  0.43188  1.0000
  I   I44       1.0  0.97435  0.14357  0.59690  1.0000
  I   I45       1.0  0.89048  0.25709  0.65983  1.0000
  I   I46       1.0  0.04400  0.93094  0.95000  1.0000
  I   I47       1.0  0.50924  0.38778  0.67208  1.0000
  I   I48       1.0  0.67774  0.74509  0.55076  1.0000
  I   I49       1.0  0.83192  0.90048  0.18069  1.0000
  I   I50       1.0  0.65354  0.91157  0.58581  1.0000
  I   I51       1.0  0.60864  0.90939  0.59442  1.0000
  I   I52       1.0  0.93042  0.70912  0.42101  1.0000
  I   I53       1.0  0.72928  0.90112  0.32532  1.0000
  I   I54       1.0  0.70297  0.86428  0.88602  1.0000
  I   I55       1.0  0.48227  0.08657  0.65673  1.0000
  I   I56       1.0  0.75284  0.30491  0.48572  1.0000
  I   I57       1.0  0.08592  0.93127  0.99792  1.0000
  I   I58       1.0  0.94083  0.42481  0.40366  1.0000
  I   I59       1.0  0.90290  0.35488  0.46642  1.0000
  I   I60       1.0  0.14596  0.19606  0.63626  1.0000
  I   I61       1.0  0.51618  0.70939  0.44878  1.0000
  I   I62       1.0  0.47008  0.65883  0.35889  1.0000
  I   I63       1.0  0.00651  0.44897  0.68804  1.0000
  I   I64       1.0  0.94578  0.28929  0.53962  1.0000
  I   I65       1.0  0.69199  0.77922  0.04308  1.0000
  I   I66       1.0  0.38701  0.95793  0.26281  1.0000
  I   I67       1.0  0.22732  0.02736  0.32254  1.0000
  I   I68       1.0  0.01328  0.41599  0.75459  1.0000
  I   I69       1.0  0.13825  0.82519  0.80147  1.0000
  I   I70       1.0  0.37028  0.46728  0.77674  1.0000
  I   I71       1.0  0.38009  0.30929  0.36549  1.0000
  I   I72       1.0  0.56198  0.33507  0.57232  1.0000
  I   I73       1.0  0.79181  0.81255  0.96700  1.0000
  I   I74       1.0  0.12502  0.88054  0.84291  1.0000
  I   I75       1.0  0.16710  0.85504  0.89830  1.0000
  I   I76       1.0  0.84996  0.12394  0.94037  1.0000
  I   I77       1.0  0.93139  0.14576  0.97735  1.0000
  I   I78       1.0  0.91277  0.89194  0.54039  1.0000
  I   I79       1.0  0.64669  0.25536  0.07494  1.0000
  I   I80       1.0  0.54937  0.73582  0.21042  1.0000
  I   I81       1.0  0.24409  0.06550  0.63308  1.0000
  I   I82       1.0  0.69416  0.51965  0.79015  1.0000
  I   I83       1.0  0.88097  0.23832  0.59485  1.0000
  I   I84       1.0  0.87488  0.98240  0.90458  1.0000
  I   I85       1.0  0.52913  0.92504  0.60374  1.0000
  I   I86       1.0  0.36976  0.96287  0.43645  1.0000
  I   I87       1.0  0.92938  0.44833  0.31492  1.0000
  I   I88       1.0  0.96211  0.38552  0.32514  1.0000
  I   I89       1.0  0.81776  0.59027  0.65555  1.0000
  I   I90       1.0  0.03317  0.32524  0.86443  1.0000
  I   I91       1.0  0.57206  0.40279  0.92474  1.0000
  I   I92       1.0  0.68233  0.63673  0.76880  1.0000
  I   I93       1.0  0.06704  0.38326  0.46324  1.0000
  I   I94       1.0  0.65310  0.78559  0.49064  1.0000
  I   I95       1.0  0.79487  0.67487  0.90446  1.0000
  I   I96       1.0  0.59262  0.32270  0.16349  1.0000
  I   I97       1.0  0.07127  0.03738  0.40793  1.0000
  I   I98       1.0  0.55347  0.76133  0.12435  1.0000
  I   I99       1.0  0.60805  0.94189  0.49855  1.0000
  I   I100      1.0  0.41918  0.74103  0.09715  1.0000
  I   I101      1.0  0.75352  0.19303  0.90753  1.0000
  I   I102      1.0  0.85716  0.89855  0.73609  1.0000
  I   I103      1.0  0.54922  0.08453  0.66527  1.0000
  I   I104      1.0  0.74972  0.64142  0.23805  1.0000
  I   I105      1.0  0.09344  0.10158  0.62337  1.0000
  I   I106      1.0  0.22372  0.91780  0.15207  1.0000
  I   I107      1.0  0.88717  0.38470  0.30348  1.0000
  I   I108      1.0  0.22071  0.88646  0.05025  1.0000
  I   I109      1.0  0.92099  0.14951  0.88252  1.0000
  I   I110      1.0  0.51891  0.66978  0.33354  1.0000
  I   I111      1.0  0.00829  0.39663  0.65168  1.0000
  I   I112      1.0  0.64270  0.19685  0.43404  1.0000
  I   I113      1.0  0.81283  0.49990  0.06883  1.0000
  I   I114      1.0  0.19811  0.16094  0.43786  1.0000
  I   I115      1.0  0.25422  0.69511  0.80686  1.0000
  I   I116      1.0  0.26324  0.66642  0.71495  1.0000
  I   I117      1.0  0.80364  0.63807  0.73524  1.0000
  I   I118      1.0  0.27522  0.24721  0.98972  1.0000
  I   I119      1.0  0.21037  0.70568  0.72521  1.0000
  I   I120      1.0  0.51589  0.33950  0.62655  1.0000
  I   I121      1.0  0.48635  0.43968  0.50220  1.0000
  I   I122      1.0  0.86959  0.16869  0.74463  1.0000
  I   I123      1.0  0.76140  0.79157  0.27256  1.0000
  I   I124      1.0  0.30501  0.63362  0.54046  1.0000
  I   I125      1.0  0.17770  0.95933  0.79340  1.0000
  I   I126      1.0  0.05639  0.81073  0.75362  1.0000
  I   I127      1.0  0.67126  0.29758  0.09424  1.0000
  I   I128      1.0  0.47205  0.72476  0.08442  1.0000
  I   I129      1.0  0.37390  0.27737  0.27441  1.0000
  I   I130      1.0  0.88447  0.99125  0.99759  1.0000
  I   I131      1.0  0.64880  0.55734  0.69505  1.0000
  I   I132      1.0  0.64158  0.21049  0.93099  1.0000
  I   I133      1.0  0.88829  0.43215  0.36665  1.0000
  I   I134      1.0  0.58748  0.56221  0.58956  1.0000
  I   I135      1.0  0.33573  0.93701  0.39470  1.0000
  I   I136      1.0  0.21292  0.46333  0.24961  1.0000
  I   I137      1.0  0.38328  0.71397  0.28769  1.0000
  I   I138      1.0  0.99925  0.26604  0.94228  1.0000
  I   I139      1.0  0.52210  0.43496  0.96938  1.0000
  I   I140      1.0  0.65517  0.61426  0.73288  1.0000
  I   I141      1.0  0.36610  0.92502  0.83348  1.0000
  I   I142      1.0  0.68257  0.79815  0.56082  1.0000
  I   I143      1.0  0.08930  0.06062  0.43527  1.0000
  I   I144      1.0  0.53687  0.34812  0.16140  1.0000
  I   I145      1.0  0.58481  0.69617  0.13328  1.0000
  I   I146      1.0  0.60464  0.91346  0.39242  1.0000
  I   I147      1.0  0.14140  0.02118  0.45313  1.0000
  I   I148      1.0  0.36907  0.76073  0.18664  1.0000
  I   I149      1.0  0.90872  0.88229  0.75182  1.0000
  I   I150      1.0  0.17557  0.94688  0.38226  1.0000
  I   I151      1.0  0.70641  0.62105  0.26851  1.0000
  I   I152      1.0  0.76862  0.25380  0.56298  1.0000
  I   I153      1.0  0.04897  0.12732  0.63792  1.0000
  I   I154      1.0  0.49711  0.52900  0.94679  1.0000
  I   I155      1.0  0.99231  0.94807  0.89195  1.0000
  I   I156      1.0  0.16530  0.21027  0.54838  1.0000
  I   I157      1.0  0.86592  0.12720  0.02806  1.0000
  I   I158      1.0  0.02717  0.80368  0.96319  1.0000
  I   I159      1.0  0.50670  0.23197  0.48549  1.0000
  I   I160      1.0  0.64226  0.23361  0.51924  1.0000
  I   I161      1.0  0.23194  0.15662  0.51179  1.0000
  I   I162      1.0  0.66840  0.25963  0.46246  1.0000
  I   I163      1.0  0.23008  0.01015  0.22059  1.0000
  I   I164      1.0  0.76230  0.71176  0.85418  1.0000
  I   I165      1.0  0.70289  0.36455  0.56637  1.0000
  I   I166      1.0  0.29432  0.21398  0.90547  1.0000
  I   I167      1.0  0.39910  0.28814  0.18924  1.0000
  I   I168      1.0  0.59650  0.53695  0.42040  1.0000
  I   I169      1.0  0.78697  0.14369  0.66795  1.0000
  I   I170      1.0  0.80691  0.17506  0.69228  1.0000
  I   I171      1.0  0.83983  0.80176  0.91382  1.0000
  I   I172      1.0  0.14783  0.96283  0.86623  1.0000
  I   I173      1.0  0.03851  0.79997  0.61163  1.0000
  I   I174      1.0  0.27806  0.60554  0.48640  1.0000
  I   I175      1.0  0.97846  0.87487  0.55613  1.0000
  I   I176      1.0  0.25958  0.02235  0.70295  1.0000
  I   I177      1.0  0.66296  0.05686  0.86846  1.0000
  I   I178      1.0  0.64461  0.56615  0.80399  1.0000
  I   I179      1.0  0.93463  0.22686  0.58831  1.0000
  I   I180      1.0  0.85351  0.05957  0.93000  1.0000
  I   I181      1.0  0.48413  0.93523  0.53912  1.0000
  I   I182      1.0  0.48841  0.09660  0.75885  1.0000
  I   I183      1.0  0.50702  0.81892  0.66622  1.0000
  I   I184      1.0  0.71074  0.21081  0.98029  1.0000
  I   I185      1.0  0.01191  0.23261  0.03140  1.0000
  I   I186      1.0  0.21280  0.46520  0.13678  1.0000
  I   I187      1.0  0.71056  0.58838  0.70093  1.0000
  I   I188      1.0  0.01109  0.39280  0.48630  1.0000
  I   I189      1.0  0.44058  0.85842  0.70699  1.0000
  I   I190      1.0  0.75237  0.65998  0.90199  1.0000
  I   I191      1.0  0.18216  0.23100  0.42903  1.0000
  I   I192      1.0  0.12708  0.98108  0.43960  1.0000
  I   I193      1.0  0.08297  0.77170  0.68548  1.0000
  I   I194      1.0  0.06035  0.37958  0.70721  1.0000
  I   I195      1.0  0.10669  0.01484  0.36590  1.0000
  I   I196      1.0  0.42575  0.80882  0.99402  1.0000
  I   I197      1.0  0.67695  0.11104  0.45332  1.0000
  I   I198      1.0  0.20268  0.91131  0.30585  1.0000
  I   I199      1.0  0.22806  0.08761  0.74605  1.0000
  I   I200      1.0  0.64380  0.04659  0.59030  1.0000
  I   I201      1.0  0.13136  0.04544  0.68258  1.0000
  I   I202      1.0  0.89074  0.31704  0.39280  1.0000
  I   I203      1.0  0.18910  0.80566  0.82426  1.0000
  I   I204      1.0  0.23963  0.93025  0.05768  1.0000
  I   I205      1.0  0.49281  0.67213  0.43759  1.0000
  I   I206      1.0  0.37645  0.82999  0.03859  1.0000
  I   I207      1.0  0.89927  0.10661  0.91528  1.0000
  I   I208      1.0  0.90287  0.28791  0.47727  1.0000
  I   I209      1.0  0.26152  0.15158  0.42221  1.0000
  I   I210      1.0  0.64036  0.05597  0.77284  1.0000
  I   I211      1.0  0.32175  0.51573  0.76001  1.0000
  I   I212      1.0  0.01468  0.86728  0.91136  1.0000
  I   I213      1.0  0.17262  0.85803  0.78582  1.0000
  I   I214      1.0  0.58321  0.34617  0.25305  1.0000
  I   I215      1.0  0.41844  0.25467  0.35099  1.0000
  I   I216      1.0  0.36170  0.86596  0.81560  1.0000
  I   I217      1.0  0.83330  0.20895  0.69016  1.0000
  I   I218      1.0  0.78421  0.75971  0.35855  1.0000
  I   I219      1.0  0.44199  0.45432  0.57077  1.0000
  I   I220      1.0  0.92215  0.09802  0.99643  1.0000
  I   I221      1.0  0.09172  0.71961  0.63348  1.0000
  I   I222      1.0  0.14819  0.01388  0.87628  1.0000
  I   I223      1.0  0.92693  0.92908  0.57234  1.0000
  I   I224      1.0  0.20093  0.06512  0.69444  1.0000
  I   I225      1.0  0.69886  0.24100  0.08590  1.0000
  I   I226      1.0  0.64132  0.52650  0.75624  1.0000
  I   I227      1.0  0.63331  0.22660  0.80132  1.0000
  I   I228      1.0  0.92309  0.98025  0.91495  1.0000
  I   I229      1.0  0.70111  0.11200  0.36156  1.0000
  I   I230      1.0  0.54384  0.55196  0.58618  1.0000
  I   I231      1.0  0.92134  0.40376  0.24212  1.0000
  I   I232      1.0  0.39748  0.79605  0.10577  1.0000
  I   I233      1.0  0.62850  0.44523  0.08980  1.0000
  I   I234      1.0  0.21744  0.18189  0.37354  1.0000
  I   I235      1.0  0.48162  0.53125  0.03764  1.0000
  I   I236      1.0  0.35338  0.90320  0.90985  1.0000
  I   I237      1.0  0.55497  0.45713  0.93803  1.0000
  I   I238      1.0  0.08185  0.87874  0.98550  1.0000
  I   I239      1.0  0.31408  0.25889  0.90745  1.0000
  I   I240      1.0  0.69139  0.71172  0.45687  1.0000
  I   I241      1.0  0.53088  0.71961  0.13111  1.0000
  I   I242      1.0  0.64139  0.88429  0.49848  1.0000
  I   I243      1.0  0.75421  0.70176  0.70339  1.0000
  I   I244      1.0  0.71434  0.16940  0.91022  1.0000
  I   I245      1.0  0.71110  0.94903  0.40426  1.0000
  I   I246      1.0  0.23555  0.90056  0.39350  1.0000
  I   I247      1.0  0.50128  0.02909  0.71188  1.0000
  I   I248      1.0  0.75731  0.33198  0.54540  1.0000
  I   I249      1.0  0.03476  0.08831  0.66603  1.0000
  I   I250      1.0  0.95718  0.32532  0.51156  1.0000
  I   I251      1.0  0.99843  0.99662  0.84965  1.0000
  I   I252      1.0  0.10582  0.23122  0.54268  1.0000
  I   I253      1.0  0.44982  0.71929  0.38919  1.0000
  I   I254      1.0  0.45686  0.78097  0.08564  1.0000
  I   I255      1.0  0.47466  0.21714  0.53624  1.0000
  I   I256      1.0  0.85497  0.52209  0.08675  1.0000
  I   I257      1.0  0.46117  0.98955  0.59142  1.0000
  I   I258      1.0  0.66833  0.23134  0.39765  1.0000
  I   I259      1.0  0.23480  0.73689  0.72871  1.0000
  I   I260      1.0  0.79111  0.64538  0.81350  1.0000
  I   I261      1.0  0.69323  0.32784  0.52131  1.0000
  I   I262      1.0  0.56778  0.30531  0.22721  1.0000
  I   I263      1.0  0.57490  0.63022  0.13352  1.0000
  I   I264      1.0  0.89999  0.02108  0.97931  1.0000
  I   I265      1.0  0.83310  0.10077  0.63409  1.0000
  I   I266      1.0  0.13500  0.83034  0.88712  1.0000
  I   I267      1.0  0.46949  0.40022  0.54047  1.0000
  I   I268      1.0  0.39197  0.92403  0.33771  1.0000
  I   I269      1.0  0.03725  0.84226  0.66538  1.0000
  I   I270      1.0  0.40880  0.96019  0.34045  1.0000
  I   I271      1.0  0.95022  0.86041  0.61412  1.0000
  I   I272      1.0  0.33645  0.32592  0.18962  1.0000
  I   I273      1.0  0.66618  0.26638  0.98755  1.0000
  I   I274      1.0  0.58623  0.45944  0.02998  1.0000
  I   I275      1.0  0.80045  0.80483  0.85496  1.0000
  I   I276      1.0  0.82900  0.03882  0.97164  1.0000
  I   I277      1.0  0.68250  0.56993  0.73316  1.0000
  I   I278      1.0  0.56877  0.56188  0.70251  1.0000
  I   I279      1.0  0.05902  0.35183  0.54473  1.0000
  I   I280      1.0  0.41763  0.72544  0.24685  1.0000
  I   I281      1.0  0.59044  0.43980  0.16297  1.0000
  I   I282      1.0  0.17486  0.45962  0.20685  1.0000
  I   I283      1.0  0.49777  0.57479  0.99585  1.0000
  I   I284      1.0  0.63233  0.54869  0.49340  1.0000
  I   I285      1.0  0.47601  0.86763  0.61675  1.0000
  I   I286      1.0  0.08763  0.91746  0.89608  1.0000
  I   I287      1.0  0.55801  0.28837  0.61555  1.0000
  I   I288      1.0  0.69973  0.76244  0.44755  1.0000
  I   I289      1.0  0.44209  0.58227  0.98855  1.0000
  I   I290      1.0  0.25484  0.21056  0.41146  1.0000
  I   I291      1.0  0.65432  0.91917  0.48560  1.0000
  I   I292      1.0  0.39200  0.70021  0.19243  1.0000
  I   I293      1.0  0.67363  0.93728  0.37320  1.0000
  I   I294      1.0  0.66390  0.89681  0.97399  1.0000
  I   I295      1.0  0.53086  0.04934  0.69661  1.0000
  I   I296      1.0  0.67397  0.07237  0.61255  1.0000
  I   I297      1.0  0.08235  0.05855  0.70373  1.0000
  I   I298      1.0  0.73620  0.05823  0.38318  1.0000
  I   I299      1.0  0.85708  0.34819  0.46368  1.0000
  I   I300      1.0  0.40038  0.86668  0.87898  1.0000
  I   I301      1.0  0.51629  0.16598  0.50296  1.0000
  I   I302      1.0  0.46932  0.70095  0.29952  1.0000
  I   I303      1.0  0.85537  0.49785  0.99555  1.0000
  I   I304      1.0  0.61022  0.29192  0.46612  1.0000
  I   I305      1.0  0.89687  0.33067  0.53148  1.0000
  I   I306      1.0  0.45948  0.07864  0.75534  1.0000
  I   I307      1.0  0.27217  0.02421  0.25023  1.0000
  I   I308      1.0  0.01547  0.35968  0.77782  1.0000
  I   I309      1.0  0.80530  0.27980  0.52863  1.0000
  I   I310      1.0  0.85986  0.85116  0.13072  1.0000
  I   I311      1.0  0.54022  0.64270  0.03865  1.0000
  I   I312      1.0  0.54543  0.34527  0.70756  1.0000
  I   I313      1.0  0.43489  0.43828  0.46692  1.0000
  I   I314      1.0  0.82931  0.11061  0.72925  1.0000
  I   I315      1.0  0.81727  0.73884  0.28061  1.0000
  I   I316      1.0  0.11667  0.99954  0.80269  1.0000
  I   I317      1.0  0.34002  0.96801  0.33502  1.0000
  I   I318      1.0  0.04066  0.75440  0.66094  1.0000
  I   I319      1.0  0.67839  0.01243  0.83117  1.0000
  I   I320      1.0  0.38474  0.78559  0.99628  1.0000
  I   I321      1.0  0.76539  0.58538  0.29218  1.0000
  I   I322      1.0  0.78945  0.57898  0.71445  1.0000
  I   I323      1.0  0.92295  0.18762  0.57504  1.0000
  I   I324      1.0  0.89148  0.01942  0.87053  1.0000
  I   I325      1.0  0.51000  0.97614  0.55391  1.0000
  I   I326      1.0  0.52820  0.06844  0.58857  1.0000
  I   I327      1.0  0.99244  0.18639  0.60799  1.0000
  I   I328      1.0  0.92615  0.38291  0.37144  1.0000
  I   I329      1.0  0.94825  0.26562  0.02458  1.0000
  I   I330      1.0  0.23333  0.19964  0.47867  1.0000
  I   I331      1.0  0.45022  0.82934  0.63255  1.0000
  I   I332      1.0  0.21997  0.22747  0.34639  1.0000
  I   I333      1.0  0.85011  0.54567  0.71078  1.0000
  I   I334      1.0  0.72857  0.74667  0.53655  1.0000
  I   I335      1.0  0.74414  0.65302  0.74414  1.0000
  I   I336      1.0  0.26597  0.26500  0.87207  1.0000
  I   I337      1.0  0.86549  0.90014  0.11075  1.0000
  I   I338      1.0  0.06756  0.34964  0.82926  1.0000
  I   I339      1.0  0.65715  0.89379  0.38938  1.0000
  I   I340      1.0  0.95714  0.65274  0.35457  1.0000
  I   I341      1.0  0.86916  0.92459  0.83161  1.0000
  I   I342      1.0  0.65155  0.91634  0.87817  1.0000
  I   I343      1.0  0.73978  0.59715  0.18915  1.0000
  I   I344      1.0  0.67976  0.03672  0.52061  1.0000
  I   I345      1.0  0.13060  0.09391  0.69231  1.0000
  I   I346      1.0  0.34397  0.44412  0.73342  1.0000
  I   I347      1.0  0.95385  0.29207  0.43802  1.0000
  I   I348      1.0  0.14482  0.17561  0.53090  1.0000
  I   I349      1.0  0.47125  0.21347  0.43853  1.0000
  I   I350      1.0  0.51306  0.71432  0.35421  1.0000
  I   I351      1.0  0.43403  0.76188  0.01393  1.0000
  I   I352      1.0  0.61363  0.24990  0.41451  1.0000
  I   I353      1.0  0.88099  0.46662  0.07362  1.0000
  I   I354      1.0  0.50324  0.12371  0.62835  1.0000
  I   I355      1.0  0.27535  0.97128  0.26451  1.0000
  I   I356      1.0  0.74183  0.68720  0.81089  1.0000
  I   I357      1.0  0.21136  0.85920  0.86216  1.0000
  I   I358      1.0  0.61508  0.50984  0.51615  1.0000
  I   I359      1.0  0.54921  0.59121  0.09796  1.0000
  I   I360      1.0  0.58731  0.31439  0.65736  1.0000
  I   I361      1.0  0.79928  0.85405  0.88240  1.0000
  I   I362      1.0  0.84670  0.14694  0.66139  1.0000
  I   I363      1.0  0.22725  0.81331  0.80807  1.0000
  I   I364      1.0  0.28701  0.65448  0.44886  1.0000
  I   I365      1.0  0.88142  0.15481  0.95792  1.0000
  I   I366      1.0  0.07432  0.76510  0.56940  1.0000
  I   I367      1.0  0.63415  0.02689  0.89443  1.0000
  I   I368      1.0  0.89376  0.70375  0.36728  1.0000
  I   I369      1.0  0.35011  0.33177  0.28293  1.0000
  I   I370      1.0  0.57978  0.48827  0.11211  1.0000
  I   I371      1.0  0.89556  0.20181  0.66931  1.0000
  I   I372      1.0  0.66010  0.50736  0.42772  1.0000
  I   I373      1.0  0.47767  0.94576  0.63999  1.0000
  I   I374      1.0  0.61247  0.51602  0.63124  1.0000
  I   I375      1.0  0.94548  0.20142  0.67178  1.0000
  I   I376      1.0  0.59537  0.60440  0.05329  1.0000
  I   I377      1.0  0.99448  0.28542  0.02841  1.0000
  I   I378      1.0  0.21798  0.41669  0.15001  1.0000
  I   I379      1.0  0.57503  0.41358  0.02676  1.0000
  I   I380      1.0  0.70372  0.57804  0.81388  1.0000
  I   I381      1.0  0.26652  0.87677  0.10666  1.0000
  I   I382      1.0  0.64917  0.75691  0.42696  1.0000
  I   I383      1.0  0.03807  0.95350  0.85814  1.0000
  I   I384      1.0  0.49842  0.32902  0.71250  1.0000
