data_image0
_chemical_formula_structural       Ti96I384
_chemical_formula_sum              "Ti96 I384"
_cell_length_a       55.6405
_cell_length_b       55.9675
_cell_length_c       27.0725
_cell_angle_alpha    88.7757
_cell_angle_beta     88.7757
_cell_angle_gamma    62.1586

_space_group_name_H-M_alt    "P 1"
_space_group_IT_number       1

loop_
  _space_group_symop_operation_xyz
  'x, y, z'

loop_
  _atom_site_type_symbol
  _atom_site_label
  _atom_site_symmetry_multiplicity
  _atom_site_fract_x
  _atom_site_fract_y
  _atom_site_fract_z
  _atom_site_occupancy
  Ti  Ti1       1.0  0.89658  0.58482  0.07937  1.0000
  Ti  Ti2       1.0  0.89040  0.99098  0.10194  1.0000
  Ti  Ti3       1.0  0.81010  0.69164  0.28342  1.0000
  Ti  Ti4       1.0  0.31856  0.15068  0.54038  1.0000
  Ti  Ti5       1.0  0.92638  0.25531  0.10397  1.0000
  Ti  Ti6       1.0  0.05927  0.28579  0.63872  1.0000
  Ti  Ti7       1.0  0.94072  0.91492  0.43202  1.0000
  Ti  Ti8       1.0  0.98030  0.06792  0.60495  1.0000
  Ti  Ti9       1.0  0.85242  0.90597  0.71274  1.0000
  Ti  Ti10      1.0  0.39915  0.88514  0.13046  1.0000
  Ti  Ti11      1.0  0.18999  0.57086  0.88926  1.0000
  Ti  Ti12      1.0  0.82921  0.78022  0.75013  1.0000
  Ti  Ti13      1.0  0.38023  0.33045  0.44494  1.0000
  Ti  Ti14      1.0  0.31938  0.23926  0.32731  1.0000
  Ti  Ti15      1.0  0.28387  0.06733  0.97413  1.0000
  Ti  Ti16      1.0  0.21550  0.65646  0.24518  1.0000
  Ti  Ti17      1.0  0.21806  0.72585  0.99590  1.0000
  Ti  Ti18      1.0  0.15995  0.38046  0.01948  1.0000
  Ti  Ti19      1.0  0.65274  0.67171  0.47028  1.0000
  Ti  Ti20      1.0  0.76030  0.79030  0.99329  1.0000
  Ti  Ti21      1.0  0.31198  0.46084  0.13809  1.0000
  Ti  Ti22      1.0  0.50194  0.02186  0.51947  1.0000
  Ti  Ti23      1.0  0.61118  0.96393  0.82886  1.0000
  Ti  Ti24      1.0  0.50293  0.88667  0.49435  1.0000
  Ti  Ti25      1.0  0.30633  0.20920  0.94178  1.0000
  Ti  Ti26      1.0  0.22226  0.32698  0.71969  1.0000
  Ti  Ti27      1.0  0.27645  0.51183  0.63641  1.0000
  Ti  Ti28      1.0  0.53116  0.60107  0.64138  1.0000
  Ti  Ti29      1.0  0.72782  0.40787  0.57421  1.0000
  Ti  Ti30      1.0  0.83354  0.44955  0.63474  1.0000
  Ti  Ti31      1.0  0.60374  0.49116  0.06168  1.0000
  Ti  Ti32      1.0  0.80107  0.22723  0.51400  1.0000
  Ti  Ti33      1.0  0.92363  0.39797  0.99065  1.0000
  Ti  Ti34      1.0  0.05401  0.74828  0.17762  1.0000
  Ti  Ti35      1.0  0.67241  0.58879  0.87947  1.0000
  Ti  Ti36      1.0  0.03557  0.54064  0.93212  1.0000
  Ti  Ti37      1.0  0.67008  0.27301  0.12452  1.0000
  Ti  Ti38      1.0  0.51474  0.35590  0.28873  1.0000
  Ti  Ti39      1.0  0.42394  0.55435  0.13161  1.0000
  Ti  Ti40      1.0  0.21592  0.98674  0.59399  1.0000
  Ti  Ti41      1.0  0.62416  0.32460  0.74679  1.0000
  Ti  Ti42      1.0  0.44031  0.77043  0.86469  1.0000
  Ti  Ti43      1.0  0.82333  0.17275  0.82022  1.0000
  Ti  Ti44      1.0  0.89439  0.46327  0.40570  1.0000
  Ti  Ti45      1.0  0.03697  0.45627  0.38346  1.0000
  Ti  Ti46      1.0  0.59559  0.12869  0.45837  1.0000
  Ti  Ti47      1.0  0.50163  0.08872  0.16931  1.0000
  Ti  Ti48      1.0  0.45268  0.30782  0.86640  1.0000
  Ti  Ti49      1.0  0.85153  0.64817  0.17648  1.0000
  Ti  Ti50      1.0  0.82184  0.99306  0.05969  1.0000
  Ti  Ti51      1.0  0.88711  0.07086  0.16118  1.0000
  Ti  Ti52      1.0  0.35217  0.08751  0.58637  1.0000
  Ti  Ti53      1.0  0.93647  0.20555  0.05337  1.0000
  Ti  Ti54      1.0  0.05256  0.24016  0.71632  1.0000
  Ti  Ti55      1.0  0.98142  0.91513  0.54308  1.0000
  Ti  Ti56      1.0  0.94983  0.03321  0.68180  1.0000
  Ti  Ti57      1.0  0.79907  0.99095  0.76821  1.0000
  Ti  Ti58      1.0  0.31036  0.82322  0.14491  1.0000
  Ti  Ti59      1.0  0.43202  0.89042  0.25867  1.0000
  Ti  Ti60      1.0  0.87720  0.76564  0.61231  1.0000
  Ti  Ti61      1.0  0.26575  0.09125  0.11314  1.0000
  Ti  Ti62      1.0  0.43582  0.28985  0.51518  1.0000
  Ti  Ti63      1.0  0.37033  0.19701  0.27962  1.0000
  Ti  Ti64      1.0  0.22417  0.33054  0.04607  1.0000
  Ti  Ti65      1.0  0.24682  0.66868  0.12361  1.0000
  Ti  Ti66      1.0  0.21970  0.80250  0.62525  1.0000
  Ti  Ti67      1.0  0.61452  0.72818  0.57152  1.0000
  Ti  Ti68      1.0  0.81441  0.78811  0.02546  1.0000
  Ti  Ti69      1.0  0.32116  0.42979  0.02677  1.0000
  Ti  Ti70      1.0  0.49763  0.95172  0.53022  1.0000
  Ti  Ti71      1.0  0.64970  0.95497  0.72397  1.0000
  Ti  Ti72      1.0  0.57264  0.03162  0.90223  1.0000
  Ti  Ti73      1.0  0.32031  0.48034  0.52945  1.0000
  Ti  Ti74      1.0  0.27061  0.24198  0.77334  1.0000
  Ti  Ti75      1.0  0.15775  0.37195  0.65623  1.0000
  Ti  Ti76      1.0  0.91156  0.44003  0.63713  1.0000
  Ti  Ti77      1.0  0.49203  0.55278  0.70371  1.0000
  Ti  Ti78      1.0  0.79072  0.39405  0.65641  1.0000
  Ti  Ti79      1.0  0.86398  0.44695  0.98602  1.0000
  Ti  Ti80      1.0  0.67406  0.46611  0.16207  1.0000
  Ti  Ti81      1.0  0.82262  0.23749  0.36856  1.0000
  Ti  Ti82      1.0  0.05386  0.67483  0.12182  1.0000
  Ti  Ti83      1.0  0.69863  0.59557  0.96810  1.0000
  Ti  Ti84      1.0  0.01868  0.60543  0.87716  1.0000
  Ti  Ti85      1.0  0.68300  0.30827  0.21002  1.0000
  Ti  Ti86      1.0  0.52145  0.31112  0.24380  1.0000
  Ti  Ti87      1.0  0.40754  0.62748  0.17324  1.0000
  Ti  Ti88      1.0  0.26521  0.93857  0.62162  1.0000
  Ti  Ti89      1.0  0.60203  0.29764  0.64254  1.0000
  Ti  Ti90      1.0  0.41689  0.72157  0.94787  1.0000
  Ti  Ti91      1.0  0.03112  0.52195  0.34270  1.0000
  Ti  Ti92      1.0  0.78824  0.22648  0.95480  1.0000
  Ti  Ti93      1.0  0.97558  0.42542  0.37787  1.0000
  Ti  Ti94      1.0  0.48802  0.34216  0.92346  1.0000
  Ti  Ti95      1.0  0.62324  0.07965  0.53322  1.0000
  Ti  Ti96      1.0  0.46040  0.12688  0.07152  1.0000
  I   I1        1.0  0.80220  0.03383  0.99164  1.0000
  I   I2        1.0  0.92735  0.99680  0.04764  1.0000
  I   I3        1.0  0.84699  0.60027  0.13955  1.0000
  I   I4        1.0  0.88011  0.24394  0.05099  1.0000
  I   I5        1.0  0.08716  0.19588  0.76916  1.0000
  I   I6        1.0  0.01023  0.29402  0.67874  1.0000
  I   I7        1.0  0.96634  0.98636  0.72783  1.0000
  I   I8        1.0  0.92581  0.07690  0.61515  1.0000
  I   I9        1.0  0.82876  0.89750  0.79299  1.0000
  I   I10       1.0  0.43098  0.83649  0.10982  1.0000
  I   I11       1.0  0.15867  0.60136  0.81721  1.0000
  I   I12       1.0  0.35213  0.78241  0.18057  1.0000
  I   I13       1.0  0.41335  0.27700  0.42039  1.0000
  I   I14       1.0  0.39394  0.19649  0.19239  1.0000
  I   I15       1.0  0.28975  0.02029  0.95805  1.0000
  I   I16       1.0  0.26706  0.65442  0.21252  1.0000
  I   I17       1.0  0.24599  0.75252  0.65154  1.0000
  I   I18       1.0  0.22063  0.28692  0.02288  1.0000
  I   I19       1.0  0.86141  0.77306  0.97767  1.0000
  I   I20       1.0  0.29160  0.43312  0.18676  1.0000
  I   I21       1.0  0.35872  0.40855  0.10845  1.0000
  I   I22       1.0  0.60997  0.97779  0.65170  1.0000
  I   I23       1.0  0.61654  0.00321  0.76739  1.0000
  I   I24       1.0  0.53028  0.89893  0.57240  1.0000
  I   I25       1.0  0.26099  0.22074  0.87618  1.0000
  I   I26       1.0  0.17868  0.31806  0.66765  1.0000
  I   I27       1.0  0.29963  0.54476  0.59891  1.0000
  I   I28       1.0  0.52498  0.58196  0.73561  1.0000
  I   I29       1.0  0.78734  0.36228  0.58611  1.0000
  I   I30       1.0  0.87859  0.42012  0.69050  1.0000
  I   I31       1.0  0.56308  0.53866  0.04215  1.0000
  I   I32       1.0  0.78355  0.21715  0.42503  1.0000
  I   I33       1.0  0.97822  0.38063  0.98042  1.0000
  I   I34       1.0  0.65087  0.64163  0.91931  1.0000
  I   I35       1.0  0.07063  0.58828  0.87193  1.0000
  I   I36       1.0  0.08741  0.64133  0.06218  1.0000
  I   I37       1.0  0.66569  0.22784  0.14195  1.0000
  I   I38       1.0  0.37602  0.62078  0.23673  1.0000
  I   I39       1.0  0.67071  0.31075  0.30525  1.0000
  I   I40       1.0  0.57912  0.34750  0.68193  1.0000
  I   I41       1.0  0.43178  0.67749  0.00168  1.0000
  I   I42       1.0  0.22528  0.97786  0.69333  1.0000
  I   I43       1.0  0.87178  0.14117  0.79648  1.0000
  I   I44       1.0  0.94374  0.42138  0.30989  1.0000
  I   I45       1.0  0.06939  0.40841  0.36932  1.0000
  I   I46       1.0  0.58394  0.14199  0.36761  1.0000
  I   I47       1.0  0.51490  0.03894  0.17176  1.0000
  I   I48       1.0  0.49143  0.29385  0.96219  1.0000
  I   I49       1.0  0.87169  0.59384  0.00184  1.0000
  I   I50       1.0  0.92517  0.94351  0.13383  1.0000
  I   I51       1.0  0.86522  0.11283  0.10185  1.0000
  I   I52       1.0  0.39643  0.05429  0.53435  1.0000
  I   I53       1.0  0.91499  0.23853  0.19167  1.0000
  I   I54       1.0  0.07257  0.22497  0.62647  1.0000
  I   I55       1.0  0.92184  0.88762  0.47815  1.0000
  I   I56       1.0  0.95374  0.05781  0.75343  1.0000
  I   I57       1.0  0.85967  0.94865  0.72432  1.0000
  I   I58       1.0  0.44028  0.89531  0.15924  1.0000
  I   I59       1.0  0.42881  0.84127  0.25208  1.0000
  I   I60       1.0  0.79525  0.82966  0.76892  1.0000
  I   I61       1.0  0.45081  0.23700  0.52958  1.0000
  I   I62       1.0  0.44305  0.29913  0.60676  1.0000
  I   I63       1.0  0.35381  0.19987  0.38580  1.0000
  I   I64       1.0  0.16967  0.65405  0.24998  1.0000
  I   I65       1.0  0.22312  0.67622  0.01367  1.0000
  I   I66       1.0  0.23049  0.80756  0.53288  1.0000
  I   I67       1.0  0.56543  0.76250  0.59483  1.0000
  I   I68       1.0  0.75422  0.74831  0.00156  1.0000
  I   I69       1.0  0.27078  0.45673  0.01062  1.0000
  I   I70       1.0  0.47077  0.99688  0.46740  1.0000
  I   I71       1.0  0.67380  0.93421  0.81154  1.0000
  I   I72       1.0  0.59440  0.04777  0.96958  1.0000
  I   I73       1.0  0.22802  0.55329  0.63357  1.0000
  I   I74       1.0  0.27698  0.27723  0.71072  1.0000
  I   I75       1.0  0.15482  0.37274  0.55221  1.0000
  I   I76       1.0  0.49277  0.62625  0.57625  1.0000
  I   I77       1.0  0.44528  0.58762  0.74433  1.0000
  I   I78       1.0  0.79460  0.45162  0.69417  1.0000
  I   I79       1.0  0.84676  0.44679  0.89840  1.0000
  I   I80       1.0  0.69458  0.49816  0.17890  1.0000
  I   I81       1.0  0.81045  0.17797  0.53289  1.0000
  I   I82       1.0  0.02036  0.76629  0.25357  1.0000
  I   I83       1.0  0.62867  0.58088  0.86299  1.0000
  I   I84       1.0  0.00527  0.61152  0.78741  1.0000
  I   I85       1.0  0.70077  0.25448  0.21773  1.0000
  I   I86       1.0  0.47674  0.30741  0.24499  1.0000
  I   I87       1.0  0.37713  0.54696  0.13007  1.0000
  I   I88       1.0  0.17347  0.98206  0.61327  1.0000
  I   I89       1.0  0.60327  0.29211  0.77465  1.0000
  I   I90       1.0  0.43028  0.79049  0.77342  1.0000
  I   I91       1.0  0.00710  0.54724  0.25660  1.0000
  I   I92       1.0  0.84165  0.17321  0.92161  1.0000
  I   I93       1.0  0.00284  0.44304  0.44298  1.0000
  I   I94       1.0  0.53547  0.33145  0.92361  1.0000
  I   I95       1.0  0.66228  0.02916  0.54392  1.0000
  I   I96       1.0  0.43882  0.11018  0.00154  1.0000
  I   I97       1.0  0.82122  0.70291  0.37079  1.0000
  I   I98       1.0  0.94030  0.58127  0.03880  1.0000
  I   I99       1.0  0.90367  0.01782  0.19252  1.0000
  I   I100      1.0  0.37681  0.12144  0.58815  1.0000
  I   I101      1.0  0.27150  0.17740  0.48983  1.0000
  I   I102      1.0  0.94082  0.24694  0.00365  1.0000
  I   I103      1.0  0.00870  0.86593  0.58873  1.0000
  I   I104      1.0  0.89423  0.95646  0.41291  1.0000
  I   I105      1.0  0.75675  0.99023  0.78807  1.0000
  I   I106      1.0  0.79892  0.75465  0.74819  1.0000
  I   I107      1.0  0.37708  0.90981  0.22848  1.0000
  I   I108      1.0  0.86377  0.79657  0.70024  1.0000
  I   I109      1.0  0.29666  0.07773  0.19078  1.0000
  I   I110      1.0  0.37469  0.30839  0.53572  1.0000
  I   I111      1.0  0.32868  0.27862  0.35470  1.0000
  I   I112      1.0  0.20438  0.38672  0.04950  1.0000
  I   I113      1.0  0.24797  0.62216  0.11423  1.0000
  I   I114      1.0  0.18948  0.73257  0.91242  1.0000
  I   I115      1.0  0.59804  0.71247  0.47986  1.0000
  I   I116      1.0  0.64130  0.72654  0.64869  1.0000
  I   I117      1.0  0.77872  0.82548  0.95335  1.0000
  I   I118      1.0  0.54026  0.96053  0.51860  1.0000
  I   I119      1.0  0.52383  0.02104  0.42990  1.0000
  I   I120      1.0  0.62661  0.98847  0.90945  1.0000
  I   I121      1.0  0.27269  0.49538  0.72688  1.0000
  I   I122      1.0  0.30135  0.24878  0.86215  1.0000
  I   I123      1.0  0.21219  0.35646  0.62897  1.0000
  I   I124      1.0  0.83427  0.49186  0.68092  1.0000
  I   I125      1.0  0.47314  0.52690  0.65071  1.0000
  I   I126      1.0  0.74129  0.43913  0.63608  1.0000
  I   I127      1.0  0.90160  0.43355  0.07977  1.0000
  I   I128      1.0  0.71705  0.41825  0.16515  1.0000
  I   I129      1.0  0.81448  0.26024  0.46158  1.0000
  I   I130      1.0  0.03828  0.51041  0.85794  1.0000
  I   I131      1.0  0.06794  0.71464  0.09831  1.0000
  I   I132      1.0  0.70048  0.62219  0.04558  1.0000
  I   I133      1.0  0.45782  0.57651  0.16497  1.0000
  I   I134      1.0  0.50821  0.35642  0.18279  1.0000
  I   I135      1.0  0.53204  0.39220  0.26864  1.0000
  I   I136      1.0  0.49164  0.75298  0.86301  1.0000
  I   I137      1.0  0.24342  0.90649  0.64004  1.0000
  I   I138      1.0  0.60904  0.36851  0.81134  1.0000
  I   I139      1.0  0.06196  0.47429  0.44601  1.0000
  I   I140      1.0  0.81867  0.24341  0.99963  1.0000
  I   I141      1.0  0.92867  0.48201  0.38743  1.0000
  I   I142      1.0  0.41855  0.31072  0.79786  1.0000
  I   I143      1.0  0.54552  0.15441  0.49702  1.0000
  I   I144      1.0  0.42609  0.17624  0.05846  1.0000
  I   I145      1.0  0.79986  0.67294  0.17650  1.0000
  I   I146      1.0  0.87625  0.96889  0.02433  1.0000
  I   I147      1.0  0.80301  0.73285  0.22366  1.0000
  I   I148      1.0  0.32312  0.06973  0.52851  1.0000
  I   I149      1.0  0.94535  0.17790  0.97742  1.0000
  I   I150      1.0  0.11207  0.26676  0.63149  1.0000
  I   I151      1.0  0.99820  0.89099  0.45694  1.0000
  I   I152      1.0  0.98964  0.07160  0.51159  1.0000
  I   I153      1.0  0.80044  0.95554  0.69502  1.0000
  I   I154      1.0  0.29385  0.86206  0.20619  1.0000
  I   I155      1.0  0.16196  0.59011  0.96929  1.0000
  I   I156      1.0  0.86804  0.73660  0.68358  1.0000
  I   I157      1.0  0.23321  0.13501  0.14740  1.0000
  I   I158      1.0  0.32902  0.18763  0.27983  1.0000
  I   I159      1.0  0.28570  0.11044  0.03732  1.0000
  I   I160      1.0  0.12410  0.42505  0.96527  1.0000
  I   I161      1.0  0.29768  0.64789  0.09142  1.0000
  I   I162      1.0  0.13338  0.40209  0.09517  1.0000
  I   I163      1.0  0.63845  0.66844  0.57730  1.0000
  I   I164      1.0  0.81256  0.74938  0.95937  1.0000
  I   I165      1.0  0.27785  0.51187  0.14138  1.0000
  I   I166      1.0  0.48828  0.99913  0.59577  1.0000
  I   I167      1.0  0.59331  0.94192  0.75945  1.0000
  I   I168      1.0  0.46046  0.88416  0.44706  1.0000
  I   I169      1.0  0.31580  0.23866  0.00438  1.0000
  I   I170      1.0  0.22141  0.29571  0.79478  1.0000
  I   I171      1.0  0.32878  0.46554  0.62520  1.0000
  I   I172      1.0  0.95715  0.40072  0.59810  1.0000
  I   I173      1.0  0.75449  0.41996  0.49985  1.0000
  I   I174      1.0  0.83290  0.39698  0.60324  1.0000
  I   I175      1.0  0.62061  0.51065  0.13808  1.0000
  I   I176      1.0  0.78813  0.26381  0.30053  1.0000
  I   I177      1.0  0.91730  0.36959  0.92211  1.0000
  I   I178      1.0  0.07362  0.69059  0.21318  1.0000
  I   I179      1.0  0.71964  0.60644  0.89361  1.0000
  I   I180      1.0  0.08738  0.50735  0.93920  1.0000
  I   I181      1.0  0.63259  0.31261  0.17697  1.0000
  I   I182      1.0  0.53678  0.30270  0.34251  1.0000
  I   I183      1.0  0.44842  0.52702  0.05151  1.0000
  I   I184      1.0  0.19318  0.04033  0.61120  1.0000
  I   I185      1.0  0.66835  0.29843  0.80245  1.0000
  I   I186      1.0  0.45892  0.69550  0.87869  1.0000
  I   I187      1.0  0.74518  0.27278  0.93003  1.0000
  I   I188      1.0  0.87243  0.47499  0.31648  1.0000
  I   I189      1.0  0.00329  0.43575  0.30562  1.0000
  I   I190      1.0  0.64685  0.08978  0.44543  1.0000
  I   I191      1.0  0.47633  0.11408  0.25204  1.0000
  I   I192      1.0  0.41653  0.32436  0.93393  1.0000
  I   I193      1.0  0.91585  0.53315  0.06959  1.0000
  I   I194      1.0  0.84062  0.00144  0.14647  1.0000
  I   I195      1.0  0.86872  0.67931  0.22307  1.0000
  I   I196      1.0  0.31988  0.19815  0.54797  1.0000
  I   I197      1.0  0.89373  0.30846  0.09905  1.0000
  I   I198      1.0  0.04552  0.29524  0.55116  1.0000
  I   I199      1.0  0.94958  0.90743  0.33181  1.0000
  I   I200      1.0  0.89839  0.05080  0.70245  1.0000
  I   I201      1.0  0.90604  0.87055  0.71386  1.0000
  I   I202      1.0  0.36151  0.87153  0.13656  1.0000
  I   I203      1.0  0.19474  0.52259  0.91413  1.0000
  I   I204      1.0  0.84557  0.75902  0.55085  1.0000
  I   I205      1.0  0.32674  0.35397  0.43783  1.0000
  I   I206      1.0  0.26631  0.25602  0.33428  1.0000
  I   I207      1.0  0.23220  0.09936  0.95620  1.0000
  I   I208      1.0  0.24099  0.60310  0.27381  1.0000
  I   I209      1.0  0.26456  0.71964  0.97165  1.0000
  I   I210      1.0  0.20404  0.34315  0.94665  1.0000
  I   I211      1.0  0.64258  0.70003  0.38769  1.0000
  I   I212      1.0  0.71099  0.81692  0.95980  1.0000
  I   I213      1.0  0.35472  0.43575  0.96181  1.0000
  I   I214      1.0  0.53567  0.03207  0.55762  1.0000
  I   I215      1.0  0.59319  0.94542  0.91095  1.0000
  I   I216      1.0  0.55028  0.84165  0.48793  1.0000
  I   I217      1.0  0.30071  0.17646  0.00196  1.0000
  I   I218      1.0  0.24413  0.35848  0.74387  1.0000
  I   I219      1.0  0.36128  0.48472  0.50034  1.0000
  I   I220      1.0  0.51919  0.64655  0.68423  1.0000
  I   I221      1.0  0.71981  0.36415  0.55670  1.0000
  I   I222      1.0  0.80202  0.47821  0.56372  1.0000
  I   I223      1.0  0.58965  0.46023  0.11891  1.0000
  I   I224      1.0  0.75044  0.26126  0.54323  1.0000
  I   I225      1.0  0.93793  0.35672  0.05384  1.0000
  I   I226      1.0  0.04253  0.79149  0.12747  1.0000
  I   I227      1.0  0.66888  0.61231  0.79287  1.0000
  I   I228      1.0  0.03167  0.58809  0.98513  1.0000
  I   I229      1.0  0.70708  0.23983  0.06305  1.0000
  I   I230      1.0  0.51589  0.37610  0.38015  1.0000
  I   I231      1.0  0.43683  0.64077  0.22988  1.0000
  I   I232      1.0  0.23299  0.96985  0.49721  1.0000
  I   I233      1.0  0.58610  0.31507  0.55453  1.0000
  I   I234      1.0  0.37208  0.75406  0.98819  1.0000
  I   I235      1.0  0.79886  0.16379  0.74524  1.0000
  I   I236      1.0  0.86992  0.43169  0.42507  1.0000
  I   I237      1.0  0.98494  0.50457  0.36728  1.0000
  I   I238      1.0  0.60709  0.16898  0.46399  1.0000
  I   I239      1.0  0.54828  0.08490  0.19080  1.0000
  I   I240      1.0  0.48908  0.25904  0.85679  1.0000
  I   I241      1.0  0.87455  0.64805  0.08049  1.0000
  I   I242      1.0  0.86148  0.04986  0.08617  1.0000
  I   I243      1.0  0.77749  0.66887  0.31023  1.0000
  I   I244      1.0  0.35331  0.12721  0.46200  1.0000
  I   I245      1.0  0.98952  0.19227  0.09165  1.0000
  I   I246      1.0  0.04036  0.33830  0.66033  1.0000
  I   I247      1.0  0.94998  0.95865  0.47831  1.0000
  I   I248      1.0  0.02649  0.04314  0.64618  1.0000
  I   I249      1.0  0.83664  0.88026  0.65176  1.0000
  I   I250      1.0  0.37977  0.93064  0.07436  1.0000
  I   I251      1.0  0.24145  0.55153  0.91763  1.0000
  I   I252      1.0  0.86404  0.74977  0.81456  1.0000
  I   I253      1.0  0.39246  0.35212  0.36636  1.0000
  I   I254      1.0  0.39489  0.22150  0.31917  1.0000
  I   I255      1.0  0.24149  0.06069  0.10374  1.0000
  I   I256      1.0  0.21102  0.67751  0.33325  1.0000
  I   I257      1.0  0.19433  0.78256  0.00617  1.0000
  I   I258      1.0  0.19053  0.33996  0.12182  1.0000
  I   I259      1.0  0.70428  0.64739  0.49170  1.0000
  I   I260      1.0  0.82470  0.75058  0.09064  1.0000
  I   I261      1.0  0.34406  0.45899  0.20680  1.0000
  I   I262      1.0  0.46184  0.07033  0.54035  1.0000
  I   I263      1.0  0.56254  0.00442  0.82661  1.0000
  I   I264      1.0  0.49000  0.85991  0.56270  1.0000
  I   I265      1.0  0.34525  0.17230  0.89069  1.0000
  I   I266      1.0  0.17200  0.36896  0.75102  1.0000
  I   I267      1.0  0.26862  0.48054  0.56652  1.0000
  I   I268      1.0  0.52131  0.55428  0.61707  1.0000
  I   I269      1.0  0.67999  0.44480  0.56198  1.0000
  I   I270      1.0  0.88192  0.42998  0.55860  1.0000
  I   I271      1.0  0.60997  0.45639  0.98463  1.0000
  I   I272      1.0  0.84054  0.21513  0.58155  1.0000
  I   I273      1.0  0.91644  0.44215  0.94667  1.0000
  I   I274      1.0  0.09795  0.75213  0.21459  1.0000
  I   I275      1.0  0.70838  0.53369  0.88455  1.0000
  I   I276      1.0  0.02242  0.52213  0.00769  1.0000
  I   I277      1.0  0.63678  0.29409  0.05176  1.0000
  I   I278      1.0  0.46315  0.37208  0.30829  1.0000
  I   I279      1.0  0.39175  0.60509  0.08746  1.0000
  I   I280      1.0  0.30208  0.90833  0.55729  1.0000
  I   I281      1.0  0.55834  0.29492  0.66386  1.0000
  I   I282      1.0  0.41106  0.81741  0.89837  1.0000
  I   I283      1.0  0.81084  0.22045  0.78674  1.0000
  I   I284      1.0  0.86257  0.50422  0.45533  1.0000
  I   I285      1.0  0.05747  0.47542  0.30888  1.0000
  I   I286      1.0  0.64211  0.10937  0.57424  1.0000
  I   I287      1.0  0.48189  0.14516  0.14076  1.0000
  I   I288      1.0  0.48190  0.33061  0.81773  1.0000
  I   I289      1.0  0.90487  0.60747  0.18948  1.0000
  I   I290      1.0  0.80722  0.95821  0.02473  1.0000
  I   I291      1.0  0.91729  0.07788  0.22502  1.0000
  I   I292      1.0  0.30295  0.13018  0.61904  1.0000
  I   I293      1.0  0.92251  0.17590  0.11076  1.0000
  I   I294      1.0  0.01902  0.21968  0.71857  1.0000
  I   I295      1.0  0.02121  0.92135  0.58042  1.0000
  I   I296      1.0  0.98212  0.01122  0.58610  1.0000
  I   I297      1.0  0.79746  0.03080  0.71766  1.0000
  I   I298      1.0  0.26408  0.81896  0.11469  1.0000
  I   I299      1.0  0.41173  0.94006  0.28989  1.0000
  I   I300      1.0  0.92800  0.73570  0.58618  1.0000
  I   I301      1.0  0.31805  0.06841  0.90368  1.0000
  I   I302      1.0  0.41067  0.34650  0.51197  1.0000
  I   I303      1.0  0.31752  0.25283  0.23228  1.0000
  I   I304      1.0  0.14184  0.34454  0.01295  1.0000
  I   I305      1.0  0.23539  0.72011  0.09901  1.0000
  I   I306      1.0  0.23809  0.82866  0.67794  1.0000
  I   I307      1.0  0.64248  0.63212  0.44705  1.0000
  I   I308      1.0  0.74944  0.80625  0.08962  1.0000
  I   I309      1.0  0.33402  0.38119  0.00780  1.0000
  I   I310      1.0  0.45536  0.94145  0.55226  1.0000
  I   I311      1.0  0.67599  0.97250  0.66133  1.0000
  I   I312      1.0  0.53889  0.02558  0.95923  1.0000
  I   I313      1.0  0.28688  0.51070  0.45074  1.0000
  I   I314      1.0  0.23350  0.23004  0.75143  1.0000
  I   I315      1.0  0.15603  0.42255  0.63168  1.0000
  I   I316      1.0  0.92750  0.44996  0.72094  1.0000
  I   I317      1.0  0.51688  0.51016  0.76680  1.0000
  I   I318      1.0  0.82470  0.36412  0.72158  1.0000
  I   I319      1.0  0.83727  0.42763  0.03043  1.0000
  I   I320      1.0  0.65276  0.45205  0.23958  1.0000
  I   I321      1.0  0.85710  0.25510  0.35235  1.0000
  I   I322      1.0  0.05455  0.64082  0.19008  1.0000
  I   I323      1.0  0.73995  0.55258  0.00930  1.0000
  I   I324      1.0  0.00080  0.65130  0.91896  1.0000
  I   I325      1.0  0.72335  0.31974  0.21268  1.0000
  I   I326      1.0  0.56691  0.32010  0.26177  1.0000
  I   I327      1.0  0.38391  0.67548  0.12768  1.0000
  I   I328      1.0  0.30483  0.91135  0.68904  1.0000
  I   I329      1.0  0.65839  0.30005  0.66340  1.0000
  I   I330      1.0  0.45144  0.73994  0.97708  1.0000
  I   I331      1.0  0.06449  0.54232  0.32982  1.0000
  I   I332      1.0  0.77416  0.19885  0.88444  1.0000
  I   I333      1.0  0.00722  0.37153  0.39450  1.0000
  I   I334      1.0  0.48225  0.36458  0.01341  1.0000
  I   I335      1.0  0.58879  0.08114  0.44186  1.0000
  I   I336      1.0  0.44280  0.10497  0.14819  1.0000
  I   I337      1.0  0.83697  0.63462  0.27459  1.0000
  I   I338      1.0  0.77157  0.02300  0.09171  1.0000
  I   I339      1.0  0.84356  0.08694  0.23149  1.0000
  I   I340      1.0  0.36002  0.05653  0.66289  1.0000
  I   I341      1.0  0.96888  0.25655  0.13203  1.0000
  I   I342      1.0  0.04414  0.27768  0.78218  1.0000
  I   I343      1.0  0.94027  0.92520  0.60410  1.0000
  I   I344      1.0  0.96771  0.11368  0.64287  1.0000
  I   I345      1.0  0.82518  0.97554  0.85962  1.0000
  I   I346      1.0  0.33177  0.82431  0.05843  1.0000
  I   I347      1.0  0.48057  0.86145  0.29038  1.0000
  I   I348      1.0  0.86482  0.81267  0.57088  1.0000
  I   I349      1.0  0.31116  0.04306  0.06991  1.0000
  I   I350      1.0  0.47646  0.29108  0.46836  1.0000
  I   I351      1.0  0.40169  0.14544  0.28802  1.0000
  I   I352      1.0  0.27242  0.32124  0.06702  1.0000
  I   I353      1.0  0.19039  0.69530  0.17513  1.0000
  I   I354      1.0  0.16889  0.82004  0.64922  1.0000
  I   I355      1.0  0.63367  0.75353  0.51641  1.0000
  I   I356      1.0  0.81941  0.82461  0.08060  1.0000
  I   I357      1.0  0.31981  0.48074  0.05194  1.0000
  I   I358      1.0  0.50474  0.92865  0.43650  1.0000
  I   I359      1.0  0.66326  0.91068  0.67441  1.0000
  I   I360      1.0  0.54103  0.08251  0.87454  1.0000
  I   I361      1.0  0.33986  0.43179  0.48994  1.0000
  I   I362      1.0  0.31511  0.20127  0.74632  1.0000
  I   I363      1.0  0.11090  0.37875  0.68549  1.0000
  I   I364      1.0  0.89774  0.48815  0.60259  1.0000
  I   I365      1.0  0.57233  0.59614  0.58410  1.0000
  I   I366      1.0  0.75199  0.38679  0.70846  1.0000
  I   I367      1.0  0.83662  0.50029  0.98730  1.0000
  I   I368      1.0  0.66337  0.46377  0.04744  1.0000
  I   I369      1.0  0.85346  0.18686  0.36175  1.0000
  I   I370      1.0  0.01133  0.69177  0.06596  1.0000
  I   I371      1.0  0.65794  0.58017  0.98229  1.0000
  I   I372      1.0  0.98512  0.58038  0.90199  1.0000
  I   I373      1.0  0.68328  0.31556  0.10733  1.0000
  I   I374      1.0  0.54865  0.26654  0.19247  1.0000
  I   I375      1.0  0.43556  0.52904  0.21597  1.0000
  I   I376      1.0  0.26836  0.98958  0.59433  1.0000
  I   I377      1.0  0.63153  0.24907  0.62146  1.0000
  I   I378      1.0  0.39534  0.76573  0.86524  1.0000
  I   I379      1.0  0.00779  0.55585  0.41571  1.0000
  I   I380      1.0  0.78800  0.19942  0.03810  1.0000
  I   I381      1.0  0.93544  0.42914  0.45655  1.0000
  I   I382      1.0  0.46812  0.39371  0.90582  1.0000
  I   I383      1.0  0.58351  0.08771  0.59713  1.0000
  I   I384      1.0  0.50965  0.10142  0.03222  1.0000
