data_image0
_chemical_formula_structural       Ti96I384
_chemical_formula_sum              "Ti96 I384"
_cell_length_a       42.4
_cell_length_b       42.1903
_cell_length_c       22.3814
_cell_angle_alpha    88.7757
_cell_angle_beta     88.7757
_cell_angle_gamma    62.1586

_space_group_name_H-M_alt    "P 1"
_space_group_IT_number       1

loop_
  _space_group_symop_operation_xyz
  'x, y, z'

loop_
  _atom_site_type_symbol
  _atom_site_label
  _atom_site_symmetry_multiplicity
  _atom_site_fract_x
  _atom_site_fract_y
  _atom_site_fract_z
  _atom_site_occupancy
  Ti  Ti1       1.0  0.23854  0.12187  0.99183  1.0000
  Ti  Ti2       1.0  0.13020  0.10126  0.37023  1.0000
  Ti  Ti3       1.0  0.19415  0.13043  0.65675  1.0000
  Ti  Ti4       1.0  0.19911  0.31930  0.12989  1.0000
  Ti  Ti5       1.0  0.20292  0.34702  0.49165  1.0000
  Ti  Ti6       1.0  0.19115  0.35147  0.84104  1.0000
  Ti  Ti7       1.0  0.11414  0.64350  0.42487  1.0000
  Ti  Ti8       1.0  0.09211  0.63366  0.74944  1.0000
  Ti  Ti9       1.0  0.08837  0.65268  0.09982  1.0000
  Ti  Ti10      1.0  0.11897  0.87157  0.23949  1.0000
  Ti  Ti11      1.0  0.12488  0.89452  0.58292  1.0000
  Ti  Ti12      1.0  0.12150  0.88212  0.91634  1.0000
  Ti  Ti13      1.0  0.52069  0.04113  0.26392  1.0000
  Ti  Ti14      1.0  0.50955  0.01440  0.62521  1.0000
  Ti  Ti15      1.0  0.48388  0.04167  0.95391  1.0000
  Ti  Ti16      1.0  0.34628  0.43513  0.39708  1.0000
  Ti  Ti17      1.0  0.34537  0.43695  0.77381  1.0000
  Ti  Ti18      1.0  0.32753  0.44285  0.08162  1.0000
  Ti  Ti19      1.0  0.42544  0.61264  0.52185  1.0000
  Ti  Ti20      1.0  0.37206  0.66538  0.90087  1.0000
  Ti  Ti21      1.0  0.37068  0.61986  0.24203  1.0000
  Ti  Ti22      1.0  0.37287  0.86010  0.95716  1.0000
  Ti  Ti23      1.0  0.39069  0.82207  0.40901  1.0000
  Ti  Ti24      1.0  0.50712  0.71855  0.72272  1.0000
  Ti  Ti25      1.0  0.61311  0.20789  0.36152  1.0000
  Ti  Ti26      1.0  0.58735  0.20535  0.70288  1.0000
  Ti  Ti27      1.0  0.61489  0.20037  0.02452  1.0000
  Ti  Ti28      1.0  0.64095  0.40628  0.16488  1.0000
  Ti  Ti29      1.0  0.63839  0.39875  0.50153  1.0000
  Ti  Ti30      1.0  0.65002  0.37966  0.82042  1.0000
  Ti  Ti31      1.0  0.69322  0.56322  0.07875  1.0000
  Ti  Ti32      1.0  0.69413  0.55671  0.38599  1.0000
  Ti  Ti33      1.0  0.72805  0.51835  0.72144  1.0000
  Ti  Ti34      1.0  0.71325  0.75663  0.34822  1.0000
  Ti  Ti35      1.0  0.73097  0.75180  0.65536  1.0000
  Ti  Ti36      1.0  0.70438  0.77971  0.98593  1.0000
  Ti  Ti37      1.0  0.86217  0.07388  0.27893  1.0000
  Ti  Ti38      1.0  0.87041  0.09357  0.60439  1.0000
  Ti  Ti39      1.0  0.88068  0.07140  0.92577  1.0000
  Ti  Ti40      1.0  0.89878  0.29876  0.09798  1.0000
  Ti  Ti41      1.0  0.90090  0.30029  0.43981  1.0000
  Ti  Ti42      1.0  0.90942  0.31929  0.75578  1.0000
  Ti  Ti43      1.0  0.90728  0.53439  0.29413  1.0000
  Ti  Ti44      1.0  0.92477  0.52714  0.64762  1.0000
  Ti  Ti45      1.0  0.91942  0.53030  0.98450  1.0000
  Ti  Ti46      1.0  0.83471  0.88032  0.25815  1.0000
  Ti  Ti47      1.0  0.82589  0.87677  0.59425  1.0000
  Ti  Ti48      1.0  0.84620  0.86373  0.92445  1.0000
  Ti  Ti49      1.0  0.17693  0.15950  0.84759  1.0000
  Ti  Ti50      1.0  0.09970  0.11592  0.20226  1.0000
  Ti  Ti51      1.0  0.10238  0.13629  0.55469  1.0000
  Ti  Ti52      1.0  0.12870  0.38674  0.99990  1.0000
  Ti  Ti53      1.0  0.14735  0.37009  0.31151  1.0000
  Ti  Ti54      1.0  0.14379  0.39485  0.66166  1.0000
  Ti  Ti55      1.0  0.04201  0.70927  0.26488  1.0000
  Ti  Ti56      1.0  0.04650  0.70415  0.57983  1.0000
  Ti  Ti57      1.0  0.05349  0.70127  0.92032  1.0000
  Ti  Ti58      1.0  0.04430  0.92818  0.07565  1.0000
  Ti  Ti59      1.0  0.06714  0.93221  0.39646  1.0000
  Ti  Ti60      1.0  0.06330  0.93044  0.74692  1.0000
  Ti  Ti61      1.0  0.43998  0.08961  0.13554  1.0000
  Ti  Ti62      1.0  0.43899  0.06712  0.48047  1.0000
  Ti  Ti63      1.0  0.43215  0.07291  0.78199  1.0000
  Ti  Ti64      1.0  0.27029  0.49347  0.24979  1.0000
  Ti  Ti65      1.0  0.30296  0.47868  0.58927  1.0000
  Ti  Ti66      1.0  0.26716  0.49140  0.90983  1.0000
  Ti  Ti67      1.0  0.32471  0.66518  0.41788  1.0000
  Ti  Ti68      1.0  0.28621  0.70564  0.78494  1.0000
  Ti  Ti69      1.0  0.30696  0.69237  0.07274  1.0000
  Ti  Ti70      1.0  0.43737  0.78580  0.85629  1.0000
  Ti  Ti71      1.0  0.29483  0.91204  0.33287  1.0000
  Ti  Ti72      1.0  0.42529  0.88358  0.52946  1.0000
  Ti  Ti73      1.0  0.54836  0.23395  0.19917  1.0000
  Ti  Ti74      1.0  0.52714  0.25554  0.51477  1.0000
  Ti  Ti75      1.0  0.53393  0.26431  0.87606  1.0000
  Ti  Ti76      1.0  0.57960  0.43303  0.99193  1.0000
  Ti  Ti77      1.0  0.57455  0.45122  0.33388  1.0000
  Ti  Ti78      1.0  0.57599  0.43948  0.66773  1.0000
  Ti  Ti79      1.0  0.66844  0.60281  0.86437  1.0000
  Ti  Ti80      1.0  0.60851  0.67027  0.18399  1.0000
  Ti  Ti81      1.0  0.67222  0.55313  0.54146  1.0000
  Ti  Ti82      1.0  0.64738  0.80102  0.14246  1.0000
  Ti  Ti83      1.0  0.66987  0.81720  0.50782  1.0000
  Ti  Ti84      1.0  0.66118  0.81363  0.80517  1.0000
  Ti  Ti85      1.0  0.84762  0.12881  0.10447  1.0000
  Ti  Ti86      1.0  0.85338  0.15166  0.43536  1.0000
  Ti  Ti87      1.0  0.84917  0.15809  0.77515  1.0000
  Ti  Ti88      1.0  0.83595  0.36586  0.93137  1.0000
  Ti  Ti89      1.0  0.83596  0.34191  0.26619  1.0000
  Ti  Ti90      1.0  0.84046  0.35558  0.59465  1.0000
  Ti  Ti91      1.0  0.87659  0.60069  0.12702  1.0000
  Ti  Ti92      1.0  0.86559  0.58989  0.48110  1.0000
  Ti  Ti93      1.0  0.88984  0.59969  0.81357  1.0000
  Ti  Ti94      1.0  0.77365  0.93749  0.08104  1.0000
  Ti  Ti95      1.0  0.77049  0.94154  0.42952  1.0000
  Ti  Ti96      1.0  0.78003  0.93631  0.76960  1.0000
  I   I1        1.0  0.13182  0.06558  0.12635  1.0000
  I   I2        1.0  0.08712  0.09539  0.47208  1.0000
  I   I3        1.0  0.17636  0.11081  0.77034  1.0000
  I   I4        1.0  0.13923  0.33383  0.21956  1.0000
  I   I5        1.0  0.14256  0.35111  0.56984  1.0000
  I   I6        1.0  0.12113  0.36379  0.89579  1.0000
  I   I7        1.0  0.04296  0.66361  0.48317  1.0000
  I   I8        1.0  0.02749  0.67517  0.81256  1.0000
  I   I9        1.0  0.01482  0.69426  0.16510  1.0000
  I   I10       1.0  0.04867  0.90035  0.31242  1.0000
  I   I11       1.0  0.06933  0.88459  0.65013  1.0000
  I   I12       1.0  0.05447  0.89201  0.96060  1.0000
  I   I13       1.0  0.44090  0.03651  0.37985  1.0000
  I   I14       1.0  0.43361  0.04086  0.67713  1.0000
  I   I15       1.0  0.41873  0.05918  0.04323  1.0000
  I   I16       1.0  0.29146  0.44878  0.49313  1.0000
  I   I17       1.0  0.27456  0.44980  0.81070  1.0000
  I   I18       1.0  0.26030  0.46588  0.14694  1.0000
  I   I19       1.0  0.24528  0.67218  0.79925  1.0000
  I   I20       1.0  0.29893  0.67987  0.95771  1.0000
  I   I21       1.0  0.31107  0.62864  0.31716  1.0000
  I   I22       1.0  0.24671  0.93698  0.42116  1.0000
  I   I23       1.0  0.36289  0.88475  0.47692  1.0000
  I   I24       1.0  0.43224  0.74579  0.76619  1.0000
  I   I25       1.0  0.54558  0.21567  0.40975  1.0000
  I   I26       1.0  0.51811  0.23426  0.76474  1.0000
  I   I27       1.0  0.55356  0.19697  0.08753  1.0000
  I   I28       1.0  0.57003  0.42989  0.21789  1.0000
  I   I29       1.0  0.57489  0.41046  0.56271  1.0000
  I   I30       1.0  0.58404  0.39636  0.87995  1.0000
  I   I31       1.0  0.61186  0.61068  0.10814  1.0000
  I   I32       1.0  0.64675  0.52520  0.47356  1.0000
  I   I33       1.0  0.64690  0.56258  0.79450  1.0000
  I   I34       1.0  0.64711  0.78952  0.40158  1.0000
  I   I35       1.0  0.65259  0.77930  0.71216  1.0000
  I   I36       1.0  0.63060  0.80289  0.03089  1.0000
  I   I37       1.0  0.81645  0.14676  0.31120  1.0000
  I   I38       1.0  0.81342  0.16545  0.68050  1.0000
  I   I39       1.0  0.82076  0.12403  0.98656  1.0000
  I   I40       1.0  0.83220  0.31956  0.15589  1.0000
  I   I41       1.0  0.82738  0.32166  0.50103  1.0000
  I   I42       1.0  0.84003  0.33620  0.81894  1.0000
  I   I43       1.0  0.84482  0.58340  0.36747  1.0000
  I   I44       1.0  0.86317  0.57884  0.70268  1.0000
  I   I45       1.0  0.84694  0.58624  0.03643  1.0000
  I   I46       1.0  0.76483  0.91655  0.31420  1.0000
  I   I47       1.0  0.75965  0.91597  0.65721  1.0000
  I   I48       1.0  0.77602  0.89171  0.98903  1.0000
  I   I49       1.0  0.18470  0.19938  0.93246  1.0000
  I   I50       1.0  0.06879  0.15813  0.32219  1.0000
  I   I51       1.0  0.11832  0.17657  0.62894  1.0000
  I   I52       1.0  0.15306  0.40030  0.09870  1.0000
  I   I53       1.0  0.15781  0.40997  0.42128  1.0000
  I   I54       1.0  0.13750  0.41787  0.77533  1.0000
  I   I55       1.0  0.08179  0.71127  0.36753  1.0000
  I   I56       1.0  0.07559  0.70689  0.67735  1.0000
  I   I57       1.0  0.06317  0.72475  0.03320  1.0000
  I   I58       1.0  0.07122  0.93901  0.17517  1.0000
  I   I59       1.0  0.09057  0.95503  0.50632  1.0000
  I   I60       1.0  0.08091  0.95734  0.83659  1.0000
  I   I61       1.0  0.46463  0.11862  0.22268  1.0000
  I   I62       1.0  0.47291  0.08426  0.56417  1.0000
  I   I63       1.0  0.44398  0.10628  0.88557  1.0000
  I   I64       1.0  0.30055  0.50698  0.36296  1.0000
  I   I65       1.0  0.31739  0.50601  0.69699  1.0000
  I   I66       1.0  0.28176  0.51242  0.01441  1.0000
  I   I67       1.0  0.35449  0.68607  0.51070  1.0000
  I   I68       1.0  0.33032  0.73059  0.84862  1.0000
  I   I69       1.0  0.31661  0.69483  0.19765  1.0000
  I   I70       1.0  0.44688  0.83547  0.91971  1.0000
  I   I71       1.0  0.37261  0.86816  0.31110  1.0000
  I   I72       1.0  0.48690  0.85861  0.59420  1.0000
  I   I73       1.0  0.55507  0.27184  0.28829  1.0000
  I   I74       1.0  0.55634  0.26726  0.61799  1.0000
  I   I75       1.0  0.55802  0.28364  0.97829  1.0000
  I   I76       1.0  0.60142  0.45869  0.08442  1.0000
  I   I77       1.0  0.58331  0.47005  0.44955  1.0000
  I   I78       1.0  0.60117  0.45195  0.76958  1.0000
  I   I79       1.0  0.69039  0.61718  0.96945  1.0000
  I   I80       1.0  0.59972  0.71329  0.27306  1.0000
  I   I81       1.0  0.69620  0.58189  0.64607  1.0000
  I   I82       1.0  0.69375  0.81727  0.27949  1.0000
  I   I83       1.0  0.71343  0.82533  0.58760  1.0000
  I   I84       1.0  0.67719  0.84534  0.90154  1.0000
  I   I85       1.0  0.89880  0.10502  0.18874  1.0000
  I   I86       1.0  0.89277  0.13959  0.53063  1.0000
  I   I87       1.0  0.88979  0.14120  0.88581  1.0000
  I   I88       1.0  0.85503  0.38116  0.04033  1.0000
  I   I89       1.0  0.85953  0.36338  0.37018  1.0000
  I   I90       1.0  0.86533  0.37885  0.68692  1.0000
  I   I91       1.0  0.89717  0.60110  0.24487  1.0000
  I   I92       1.0  0.91747  0.58351  0.56651  1.0000
  I   I93       1.0  0.92699  0.58655  0.91187  1.0000
  I   I94       1.0  0.80581  0.95191  0.17430  1.0000
  I   I95       1.0  0.79697  0.95082  0.52806  1.0000
  I   I96       1.0  0.82043  0.93607  0.86158  1.0000
  I   I97       1.0  0.19279  0.18345  0.73617  1.0000
  I   I98       1.0  0.21067  0.14245  0.10200  1.0000
  I   I99       1.0  0.14296  0.14260  0.44765  1.0000
  I   I100      1.0  0.19562  0.38249  0.94548  1.0000
  I   I101      1.0  0.21158  0.35425  0.24620  1.0000
  I   I102      1.0  0.21720  0.36839  0.60568  1.0000
  I   I103      1.0  0.11273  0.66873  0.19947  1.0000
  I   I104      1.0  0.12314  0.67199  0.52640  1.0000
  I   I105      1.0  0.11681  0.64635  0.87009  1.0000
  I   I106      1.0  0.11287  0.91438  0.02818  1.0000
  I   I107      1.0  0.13454  0.90414  0.33140  1.0000
  I   I108      1.0  0.13134  0.91965  0.69238  1.0000
  I   I109      1.0  0.50393  0.07253  0.04377  1.0000
  I   I110      1.0  0.52399  0.06683  0.37200  1.0000
  I   I111      1.0  0.50708  0.04103  0.73111  1.0000
  I   I112      1.0  0.33703  0.48054  0.18431  1.0000
  I   I113      1.0  0.35597  0.47351  0.51853  1.0000
  I   I114      1.0  0.34095  0.47295  0.87630  1.0000
  I   I115      1.0  0.38903  0.64279  0.34663  1.0000
  I   I116      1.0  0.41709  0.60930  0.63613  1.0000
  I   I117      1.0  0.38236  0.66844  0.01571  1.0000
  I   I118      1.0  0.50096  0.72237  0.86452  1.0000
  I   I119      1.0  0.34943  0.92762  0.92693  1.0000
  I   I120      1.0  0.45313  0.83377  0.43890  1.0000
  I   I121      1.0  0.60933  0.23330  0.13124  1.0000
  I   I122      1.0  0.59714  0.24584  0.46229  1.0000
  I   I123      1.0  0.59768  0.23732  0.79856  1.0000
  I   I124      1.0  0.64846  0.41634  0.92584  1.0000
  I   I125      1.0  0.64343  0.44260  0.26053  1.0000
  I   I126      1.0  0.64029  0.42900  0.60536  1.0000
  I   I127      1.0  0.73827  0.55741  0.80703  1.0000
  I   I128      1.0  0.68083  0.61832  0.15794  1.0000
  I   I129      1.0  0.73963  0.52602  0.47757  1.0000
  I   I130      1.0  0.70973  0.80507  0.09732  1.0000
  I   I131      1.0  0.73462  0.78242  0.43991  1.0000
  I   I132      1.0  0.73944  0.78500  0.74929  1.0000
  I   I133      1.0  0.90902  0.07378  0.03536  1.0000
  I   I134      1.0  0.90096  0.08188  0.39784  1.0000
  I   I135      1.0  0.90997  0.09876  0.69632  1.0000
  I   I136      1.0  0.91026  0.34359  0.88913  1.0000
  I   I137      1.0  0.91261  0.31702  0.21816  1.0000
  I   I138      1.0  0.90599  0.33893  0.53019  1.0000
  I   I139      1.0  0.94115  0.54653  0.07916  1.0000
  I   I140      1.0  0.93620  0.54931  0.41373  1.0000
  I   I141      1.0  0.94481  0.53369  0.76145  1.0000
  I   I142      1.0  0.84644  0.90283  0.03246  1.0000
  I   I143      1.0  0.84774  0.90232  0.36046  1.0000
  I   I144      1.0  0.84553  0.90064  0.69614  1.0000
  I   I145      1.0  0.25499  0.12182  0.86214  1.0000
  I   I146      1.0  0.10555  0.06920  0.28967  1.0000
  I   I147      1.0  0.17487  0.08788  0.59958  1.0000
  I   I148      1.0  0.17163  0.30757  0.03678  1.0000
  I   I149      1.0  0.18510  0.31692  0.38818  1.0000
  I   I150      1.0  0.17991  0.33139  0.72486  1.0000
  I   I151      1.0  0.06858  0.64492  0.32510  1.0000
  I   I152      1.0  0.06456  0.62859  0.64795  1.0000
  I   I153      1.0  0.05832  0.64499  0.00175  1.0000
  I   I154      1.0  0.08793  0.85645  0.13995  1.0000
  I   I155      1.0  0.11672  0.86984  0.46248  1.0000
  I   I156      1.0  0.11294  0.85901  0.81061  1.0000
  I   I157      1.0  0.48624  0.02261  0.18032  1.0000
  I   I158      1.0  0.47869  0.99583  0.52801  1.0000
  I   I159      1.0  0.45532  0.00989  0.86167  1.0000
  I   I160      1.0  0.30825  0.42160  0.32410  1.0000
  I   I161      1.0  0.35479  0.41240  0.66142  1.0000
  I   I162      1.0  0.30388  0.41472  0.99200  1.0000
  I   I163      1.0  0.37718  0.59195  0.47459  1.0000
  I   I164      1.0  0.34960  0.64385  0.78450  1.0000
  I   I165      1.0  0.33027  0.62352  0.13100  1.0000
  I   I166      1.0  0.41527  0.77679  0.97574  1.0000
  I   I167      1.0  0.31898  0.84591  0.38865  1.0000
  I   I168      1.0  0.47859  0.72821  0.61957  1.0000
  I   I169      1.0  0.60930  0.17079  0.26689  1.0000
  I   I170      1.0  0.56635  0.18255  0.58974  1.0000
  I   I171      1.0  0.58432  0.19022  0.92615  1.0000
  I   I172      1.0  0.62384  0.36880  0.06042  1.0000
  I   I173      1.0  0.61383  0.38225  0.39961  1.0000
  I   I174      1.0  0.62671  0.36636  0.71263  1.0000
  I   I175      1.0  0.67476  0.54538  0.96463  1.0000
  I   I176      1.0  0.64341  0.59576  0.30518  1.0000
  I   I177      1.0  0.70321  0.49437  0.62075  1.0000
  I   I178      1.0  0.68917  0.74065  0.20244  1.0000
  I   I179      1.0  0.69314  0.74616  0.56153  1.0000
  I   I180      1.0  0.69106  0.74877  0.88801  1.0000
  I   I181      1.0  0.83629  0.06853  0.16695  1.0000
  I   I182      1.0  0.81935  0.11808  0.51624  1.0000
  I   I183      1.0  0.83622  0.10316  0.82173  1.0000
  I   I184      1.0  0.87253  0.28730  0.99906  1.0000
  I   I185      1.0  0.88044  0.27892  0.33080  1.0000
  I   I186      1.0  0.88815  0.29029  0.66740  1.0000
  I   I187      1.0  0.86818  0.53983  0.19707  1.0000
  I   I188      1.0  0.88188  0.52167  0.54872  1.0000
  I   I189      1.0  0.87721  0.54034  0.88955  1.0000
  I   I190      1.0  0.78881  0.87728  0.17090  1.0000
  I   I191      1.0  0.80571  0.86421  0.48184  1.0000
  I   I192      1.0  0.81255  0.85410  0.83200  1.0000
  I   I193      1.0  0.28932  0.14133  0.00545  1.0000
  I   I194      1.0  0.16400  0.11614  0.27659  1.0000
  I   I195      1.0  0.20798  0.15729  0.56051  1.0000
  I   I196      1.0  0.25475  0.32566  0.08391  1.0000
  I   I197      1.0  0.25515  0.35416  0.44976  1.0000
  I   I198      1.0  0.24523  0.35579  0.79236  1.0000
  I   I199      1.0  0.17970  0.61582  0.38321  1.0000
  I   I200      1.0  0.15728  0.60079  0.71132  1.0000
  I   I201      1.0  0.15300  0.62689  0.04714  1.0000
  I   I202      1.0  0.17957  0.85939  0.19085  1.0000
  I   I203      1.0  0.18317  0.89442  0.54490  1.0000
  I   I204      1.0  0.17897  0.88585  0.88573  1.0000
  I   I205      1.0  0.57103  0.05155  0.21620  1.0000
  I   I206      1.0  0.56589  0.99512  0.56152  1.0000
  I   I207      1.0  0.54163  0.02773  0.89478  1.0000
  I   I208      1.0  0.40289  0.43541  0.34846  1.0000
  I   I209      1.0  0.41110  0.43416  0.76524  1.0000
  I   I210      1.0  0.38792  0.43234  0.02839  1.0000
  I   I211      1.0  0.47234  0.63718  0.50376  1.0000
  I   I212      1.0  0.43652  0.65573  0.85712  1.0000
  I   I213      1.0  0.42650  0.61427  0.18596  1.0000
  I   I214      1.0  0.38712  0.85677  0.07440  1.0000
  I   I215      1.0  0.41818  0.76528  0.34389  1.0000
  I   I216      1.0  0.56608  0.71868  0.69760  1.0000
  I   I217      1.0  0.66398  0.22373  0.33556  1.0000
  I   I218      1.0  0.64588  0.20216  0.66171  1.0000
  I   I219      1.0  0.66455  0.21115  0.97900  1.0000
  I   I220      1.0  0.70526  0.39355  0.12161  1.0000
  I   I221      1.0  0.69295  0.40274  0.45310  1.0000
  I   I222      1.0  0.70749  0.38093  0.76565  1.0000
  I   I223      1.0  0.76207  0.54039  0.07690  1.0000
  I   I224      1.0  0.73215  0.58261  0.33439  1.0000
  I   I225      1.0  0.79415  0.49532  0.68327  1.0000
  I   I226      1.0  0.77808  0.72558  0.30310  1.0000
  I   I227      1.0  0.79465  0.72800  0.60397  1.0000
  I   I228      1.0  0.76933  0.75621  0.93791  1.0000
  I   I229      1.0  0.91647  0.00748  0.26855  1.0000
  I   I230      1.0  0.92797  0.03127  0.57034  1.0000
  I   I231      1.0  0.94730  0.03632  0.89113  1.0000
  I   I232      1.0  0.95457  0.30136  0.06351  1.0000
  I   I233      1.0  0.96298  0.28941  0.39424  1.0000
  I   I234      1.0  0.96474  0.32696  0.74216  1.0000
  I   I235      1.0  0.96555  0.49551  0.23403  1.0000
  I   I236      1.0  0.98382  0.48475  0.59628  1.0000
  I   I237      1.0  0.98197  0.48596  0.94104  1.0000
  I   I238      1.0  0.89092  0.86182  0.19103  1.0000
  I   I239      1.0  0.88995  0.86413  0.56254  1.0000
  I   I240      1.0  0.90765  0.85964  0.90465  1.0000
  I   I241      1.0  0.27801  0.05304  0.01414  1.0000
  I   I242      1.0  0.18230  0.03373  0.40870  1.0000
  I   I243      1.0  0.25963  0.08206  0.66002  1.0000
  I   I244      1.0  0.24065  0.25175  0.15608  1.0000
  I   I245      1.0  0.23742  0.27914  0.52091  1.0000
  I   I246      1.0  0.23021  0.28631  0.87653  1.0000
  I   I247      1.0  0.12945  0.57737  0.44689  1.0000
  I   I248      1.0  0.09006  0.57670  0.78441  1.0000
  I   I249      1.0  0.10283  0.58684  0.13956  1.0000
  I   I250      1.0  0.14045  0.81136  0.29169  1.0000
  I   I251      1.0  0.16222  0.82771  0.61249  1.0000
  I   I252      1.0  0.15529  0.81393  0.95206  1.0000
  I   I253      1.0  0.55686  0.97351  0.29888  1.0000
  I   I254      1.0  0.52870  0.95076  0.67565  1.0000
  I   I255      1.0  0.51065  0.98099  0.00811  1.0000
  I   I256      1.0  0.38161  0.37226  0.44748  1.0000
  I   I257      1.0  0.36740  0.37544  0.82859  1.0000
  I   I258      1.0  0.36169  0.38439  0.14474  1.0000
  I   I259      1.0  0.46847  0.54766  0.47497  1.0000
  I   I260      1.0  0.38269  0.59737  0.91770  1.0000
  I   I261      1.0  0.39861  0.55083  0.25064  1.0000
  I   I262      1.0  0.31145  0.85942  0.95447  1.0000
  I   I263      1.0  0.39758  0.79705  0.52272  1.0000
  I   I264      1.0  0.53403  0.65062  0.71820  1.0000
  I   I265      1.0  0.65174  0.14690  0.42439  1.0000
  I   I266      1.0  0.60168  0.14167  0.74975  1.0000
  I   I267      1.0  0.64988  0.13607  0.06096  1.0000
  I   I268      1.0  0.66481  0.34304  0.21426  1.0000
  I   I269      1.0  0.68121  0.32744  0.52088  1.0000
  I   I270      1.0  0.68683  0.31332  0.86763  1.0000
  I   I271      1.0  0.69828  0.51267  0.15757  1.0000
  I   I272      1.0  0.70846  0.49299  0.33982  1.0000
  I   I273      1.0  0.73440  0.46184  0.78090  1.0000
  I   I274      1.0  0.71031  0.69676  0.37920  1.0000
  I   I275      1.0  0.74101  0.69279  0.71359  1.0000
  I   I276      1.0  0.73109  0.71069  0.02344  1.0000
  I   I277      1.0  0.81818  0.05720  0.33431  1.0000
  I   I278      1.0  0.84247  0.05624  0.65386  1.0000
  I   I279      1.0  0.87470  0.01433  0.93733  1.0000
  I   I280      1.0  0.93385  0.23061  0.13473  1.0000
  I   I281      1.0  0.92987  0.23458  0.49019  1.0000
  I   I282      1.0  0.93896  0.24996  0.78674  1.0000
  I   I283      1.0  0.91164  0.47783  0.35408  1.0000
  I   I284      1.0  0.90167  0.48186  0.68758  1.0000
  I   I285      1.0  0.90453  0.48068  0.02281  1.0000
  I   I286      1.0  0.85163  0.81437  0.30617  1.0000
  I   I287      1.0  0.84801  0.81062  0.63319  1.0000
  I   I288      1.0  0.85919  0.80188  0.97371  1.0000
  I   I289      1.0  0.18300  0.11462  0.94335  1.0000
  I   I290      1.0  0.03647  0.12827  0.17151  1.0000
  I   I291      1.0  0.08253  0.11116  0.64889  1.0000
  I   I292      1.0  0.07484  0.37660  0.03537  1.0000
  I   I293      1.0  0.09319  0.36864  0.36127  1.0000
  I   I294      1.0  0.07910  0.40049  0.69692  1.0000
  I   I295      1.0  0.98613  0.73827  0.33205  1.0000
  I   I296      1.0  0.97809  0.73438  0.59930  1.0000
  I   I297      1.0  0.98489  0.74883  0.92113  1.0000
  I   I298      1.0  0.99333  0.91581  0.11181  1.0000
  I   I299      1.0  0.01452  0.94186  0.46239  1.0000
  I   I300      1.0  0.00302  0.94039  0.79607  1.0000
  I   I301      1.0  0.38495  0.10361  0.20217  1.0000
  I   I302      1.0  0.37624  0.08148  0.52481  1.0000
  I   I303      1.0  0.36634  0.08772  0.81322  1.0000
  I   I304      1.0  0.21663  0.49494  0.30289  1.0000
  I   I305      1.0  0.24748  0.46565  0.63060  1.0000
  I   I306      1.0  0.20881  0.49269  0.94768  1.0000
  I   I307      1.0  0.27795  0.66686  0.49285  1.0000
  I   I308      1.0  0.24072  0.77159  0.82154  1.0000
  I   I309      1.0  0.24129  0.70719  0.10604  1.0000
  I   I310      1.0  0.36797  0.84611  0.82327  1.0000
  I   I311      1.0  0.28684  0.97276  0.29836  1.0000
  I   I312      1.0  0.38510  0.89650  0.62468  1.0000
  I   I313      1.0  0.51694  0.19723  0.24065  1.0000
  I   I314      1.0  0.47012  0.25502  0.54814  1.0000
  I   I315      1.0  0.47514  0.26431  0.92474  1.0000
  I   I316      1.0  0.52409  0.42603  0.02181  1.0000
  I   I317      1.0  0.51689  0.44718  0.35656  1.0000
  I   I318      1.0  0.51933  0.43425  0.71019  1.0000
  I   I319      1.0  0.60281  0.64054  0.89634  1.0000
  I   I320      1.0  0.54265  0.68364  0.19016  1.0000
  I   I321      1.0  0.61453  0.58608  0.60844  1.0000
  I   I322      1.0  0.58985  0.81113  0.20438  1.0000
  I   I323      1.0  0.61365  0.83357  0.57132  1.0000
  I   I324      1.0  0.59109  0.84720  0.84122  1.0000
  I   I325      1.0  0.78482  0.17625  0.14085  1.0000
  I   I326      1.0  0.80093  0.21079  0.47185  1.0000
  I   I327      1.0  0.79111  0.20659  0.82794  1.0000
  I   I328      1.0  0.78030  0.36723  0.97709  1.0000
  I   I329      1.0  0.77520  0.34778  0.31680  1.0000
  I   I330      1.0  0.77392  0.38018  0.63426  1.0000
  I   I331      1.0  0.80808  0.63163  0.15826  1.0000
  I   I332      1.0  0.80155  0.61585  0.52541  1.0000
  I   I333      1.0  0.82606  0.64594  0.84346  1.0000
  I   I334      1.0  0.70433  0.95831  0.10885  1.0000
  I   I335      1.0  0.70837  0.94694  0.46884  1.0000
  I   I336      1.0  0.72284  0.94654  0.82651  1.0000
  I   I337      1.0  0.10544  0.19967  0.83985  1.0000
  I   I338      1.0  0.10810  0.17032  0.15207  1.0000
  I   I339      1.0  0.04201  0.18553  0.51549  1.0000
  I   I340      1.0  0.09793  0.45672  0.98054  1.0000
  I   I341      1.0  0.10061  0.43144  0.25848  1.0000
  I   I342      1.0  0.11901  0.45102  0.60248  1.0000
  I   I343      1.0  0.04147  0.76643  0.20764  1.0000
  I   I344      1.0  0.04524  0.75739  0.51954  1.0000
  I   I345      1.0  0.07438  0.74046  0.85742  1.0000
  I   I346      1.0  0.01645  0.99834  0.05831  1.0000
  I   I347      1.0  0.04781  0.99187  0.34197  1.0000
  I   I348      1.0  0.02275  0.98735  0.67624  1.0000
  I   I349      1.0  0.41378  0.14910  0.05717  1.0000
  I   I350      1.0  0.42374  0.13129  0.42539  1.0000
  I   I351      1.0  0.40942  0.13590  0.73084  1.0000
  I   I352      1.0  0.24796  0.55880  0.20677  1.0000
  I   I353      1.0  0.25783  0.54492  0.55698  1.0000
  I   I354      1.0  0.24457  0.55096  0.84617  1.0000
  I   I355      1.0  0.28287  0.72654  0.35772  1.0000
  I   I356      1.0  0.29323  0.71561  0.67470  1.0000
  I   I357      1.0  0.29071  0.76281  0.05885  1.0000
  I   I358      1.0  0.47531  0.80064  0.77361  1.0000
  I   I359      1.0  0.26373  0.89894  0.24916  1.0000
  I   I360      1.0  0.41817  0.94589  0.49676  1.0000
  I   I361      1.0  0.49887  0.28797  0.14517  1.0000
  I   I362      1.0  0.49301  0.31765  0.45894  1.0000
  I   I363      1.0  0.51396  0.32811  0.83510  1.0000
  I   I364      1.0  0.55215  0.49626  0.93752  1.0000
  I   I365      1.0  0.54935  0.51700  0.30541  1.0000
  I   I366      1.0  0.54019  0.50583  0.63515  1.0000
  I   I367      1.0  0.66603  0.65719  0.80601  1.0000
  I   I368      1.0  0.60571  0.70968  0.09404  1.0000
  I   I369      1.0  0.66479  0.60980  0.47159  1.0000
  I   I370      1.0  0.62059  0.87290  0.13739  1.0000
  I   I371      1.0  0.64662  0.88521  0.47255  1.0000
  I   I372      1.0  0.65019  0.87129  0.74214  1.0000
  I   I373      1.0  0.86492  0.17867  0.07550  1.0000
  I   I374      1.0  0.87559  0.18826  0.36299  1.0000
  I   I375      1.0  0.86058  0.21227  0.74204  1.0000
  I   I376      1.0  0.81609  0.43172  0.89426  1.0000
  I   I377      1.0  0.80467  0.41391  0.24785  1.0000
  I   I378      1.0  0.82561  0.41605  0.52928  1.0000
  I   I379      1.0  0.89303  0.64986  0.08294  1.0000
  I   I380      1.0  0.86554  0.65177  0.43831  1.0000
  I   I381      1.0  0.91922  0.63951  0.76905  1.0000
  I   I382      1.0  0.76227  0.99519  0.02492  1.0000
  I   I383      1.0  0.75350  0.00218  0.38189  1.0000
  I   I384      1.0  0.76420  0.99653  0.71964  1.0000
