data_image0
_chemical_formula_structural       Ti96I384
_chemical_formula_sum              "Ti96 I384"
_cell_length_a       42.058
_cell_length_b       41.7531
_cell_length_c       22.3953
_cell_angle_alpha    88.7757
_cell_angle_beta     88.7757
_cell_angle_gamma    62.1586

_space_group_name_H-M_alt    "P 1"
_space_group_IT_number       1

loop_
  _space_group_symop_operation_xyz
  'x, y, z'

loop_
  _atom_site_type_symbol
  _atom_site_label
  _atom_site_symmetry_multiplicity
  _atom_site_fract_x
  _atom_site_fract_y
  _atom_site_fract_z
  _atom_site_occupancy
  Ti  Ti1       1.0  0.22000  0.12859  0.00820  1.0000
  Ti  Ti2       1.0  0.10416  0.13510  0.38022  1.0000
  Ti  Ti3       1.0  0.16269  0.15195  0.70047  1.0000
  Ti  Ti4       1.0  0.22875  0.32341  0.14443  1.0000
  Ti  Ti5       1.0  0.22277  0.29317  0.48475  1.0000
  Ti  Ti6       1.0  0.23015  0.30261  0.83199  1.0000
  Ti  Ti7       1.0  0.10122  0.63981  0.38857  1.0000
  Ti  Ti8       1.0  0.10271  0.64306  0.71326  1.0000
  Ti  Ti9       1.0  0.09517  0.64889  0.05798  1.0000
  Ti  Ti10      1.0  0.13858  0.88966  0.25509  1.0000
  Ti  Ti11      1.0  0.14389  0.86240  0.57789  1.0000
  Ti  Ti12      1.0  0.15776  0.89186  0.92621  1.0000
  Ti  Ti13      1.0  0.47935  0.03322  0.30671  1.0000
  Ti  Ti14      1.0  0.47571  0.04057  0.61671  1.0000
  Ti  Ti15      1.0  0.48104  0.02709  0.95210  1.0000
  Ti  Ti16      1.0  0.33748  0.44600  0.40507  1.0000
  Ti  Ti17      1.0  0.33632  0.46103  0.73366  1.0000
  Ti  Ti18      1.0  0.35732  0.44669  0.08140  1.0000
  Ti  Ti19      1.0  0.43062  0.59770  0.49502  1.0000
  Ti  Ti20      1.0  0.36876  0.62463  0.88659  1.0000
  Ti  Ti21      1.0  0.40421  0.60503  0.23719  1.0000
  Ti  Ti22      1.0  0.39757  0.87876  0.04486  1.0000
  Ti  Ti23      1.0  0.37438  0.83893  0.34875  1.0000
  Ti  Ti24      1.0  0.47186  0.74910  0.76601  1.0000
  Ti  Ti25      1.0  0.57556  0.20112  0.33890  1.0000
  Ti  Ti26      1.0  0.59799  0.19337  0.65642  1.0000
  Ti  Ti27      1.0  0.60320  0.19623  0.01691  1.0000
  Ti  Ti28      1.0  0.65789  0.36643  0.16815  1.0000
  Ti  Ti29      1.0  0.65811  0.35942  0.52410  1.0000
  Ti  Ti30      1.0  0.64884  0.38282  0.85707  1.0000
  Ti  Ti31      1.0  0.70806  0.54748  0.03420  1.0000
  Ti  Ti32      1.0  0.70302  0.54418  0.36943  1.0000
  Ti  Ti33      1.0  0.70707  0.55990  0.70215  1.0000
  Ti  Ti34      1.0  0.69712  0.80266  0.36254  1.0000
  Ti  Ti35      1.0  0.68816  0.78736  0.66446  1.0000
  Ti  Ti36      1.0  0.70447  0.79360  0.01262  1.0000
  Ti  Ti37      1.0  0.87859  0.09573  0.25761  1.0000
  Ti  Ti38      1.0  0.87749  0.05371  0.59530  1.0000
  Ti  Ti39      1.0  0.86247  0.08011  0.94763  1.0000
  Ti  Ti40      1.0  0.91410  0.31614  0.09642  1.0000
  Ti  Ti41      1.0  0.90101  0.31637  0.43474  1.0000
  Ti  Ti42      1.0  0.92544  0.29449  0.76658  1.0000
  Ti  Ti43      1.0  0.92040  0.51577  0.31754  1.0000
  Ti  Ti44      1.0  0.91693  0.51438  0.65258  1.0000
  Ti  Ti45      1.0  0.90756  0.51771  0.98301  1.0000
  Ti  Ti46      1.0  0.84693  0.87257  0.27203  1.0000
  Ti  Ti47      1.0  0.82429  0.87552  0.61939  1.0000
  Ti  Ti48      1.0  0.82922  0.87443  0.94132  1.0000
  Ti  Ti49      1.0  0.12434  0.17395  0.88716  1.0000
  Ti  Ti50      1.0  0.07221  0.14158  0.21172  1.0000
  Ti  Ti51      1.0  0.07724  0.16461  0.57330  1.0000
  Ti  Ti52      1.0  0.16172  0.34477  0.97765  1.0000
  Ti  Ti53      1.0  0.15197  0.35151  0.31324  1.0000
  Ti  Ti54      1.0  0.15806  0.33692  0.65567  1.0000
  Ti  Ti55      1.0  0.05724  0.70529  0.23618  1.0000
  Ti  Ti56      1.0  0.05113  0.70762  0.55102  1.0000
  Ti  Ti57      1.0  0.04595  0.70054  0.88204  1.0000
  Ti  Ti58      1.0  0.08000  0.94891  0.08807  1.0000
  Ti  Ti59      1.0  0.06781  0.92611  0.41854  1.0000
  Ti  Ti60      1.0  0.09458  0.92741  0.74205  1.0000
  Ti  Ti61      1.0  0.41817  0.05825  0.12444  1.0000
  Ti  Ti62      1.0  0.41017  0.08509  0.46630  1.0000
  Ti  Ti63      1.0  0.40587  0.07152  0.77740  1.0000
  Ti  Ti64      1.0  0.27746  0.47959  0.23350  1.0000
  Ti  Ti65      1.0  0.26330  0.48194  0.56786  1.0000
  Ti  Ti66      1.0  0.28218  0.47969  0.90347  1.0000
  Ti  Ti67      1.0  0.34078  0.65699  0.39709  1.0000
  Ti  Ti68      1.0  0.32484  0.69852  0.73606  1.0000
  Ti  Ti69      1.0  0.35895  0.68180  0.06612  1.0000
  Ti  Ti70      1.0  0.42522  0.85221  0.86034  1.0000
  Ti  Ti71      1.0  0.30143  0.92998  0.33224  1.0000
  Ti  Ti72      1.0  0.40770  0.87938  0.51590  1.0000
  Ti  Ti73      1.0  0.53806  0.25537  0.16875  1.0000
  Ti  Ti74      1.0  0.52146  0.25920  0.50915  1.0000
  Ti  Ti75      1.0  0.54896  0.23140  0.83289  1.0000
  Ti  Ti76      1.0  0.58290  0.42593  0.01005  1.0000
  Ti  Ti77      1.0  0.59424  0.39414  0.33036  1.0000
  Ti  Ti78      1.0  0.57675  0.41819  0.68044  1.0000
  Ti  Ti79      1.0  0.64778  0.62115  0.86819  1.0000
  Ti  Ti80      1.0  0.64328  0.62625  0.17708  1.0000
  Ti  Ti81      1.0  0.64851  0.61308  0.53515  1.0000
  Ti  Ti82      1.0  0.64740  0.85182  0.18508  1.0000
  Ti  Ti83      1.0  0.62443  0.85527  0.52894  1.0000
  Ti  Ti84      1.0  0.64562  0.83906  0.83187  1.0000
  Ti  Ti85      1.0  0.84912  0.16216  0.08434  1.0000
  Ti  Ti86      1.0  0.85599  0.14271  0.43716  1.0000
  Ti  Ti87      1.0  0.84384  0.13518  0.76603  1.0000
  Ti  Ti88      1.0  0.86477  0.34555  0.93257  1.0000
  Ti  Ti89      1.0  0.84934  0.36982  0.27340  1.0000
  Ti  Ti90      1.0  0.85517  0.34767  0.60904  1.0000
  Ti  Ti91      1.0  0.89072  0.58598  0.14846  1.0000
  Ti  Ti92      1.0  0.89858  0.58359  0.48122  1.0000
  Ti  Ti93      1.0  0.88047  0.59433  0.81326  1.0000
  Ti  Ti94      1.0  0.77123  0.93076  0.11835  1.0000
  Ti  Ti95      1.0  0.77798  0.92717  0.43775  1.0000
  Ti  Ti96      1.0  0.76441  0.93375  0.78423  1.0000
  I   I1        1.0  0.12412  0.09306  0.14713  1.0000
  I   I2        1.0  0.06957  0.12445  0.48466  1.0000
  I   I3        1.0  0.12303  0.12883  0.79559  1.0000
  I   I4        1.0  0.17046  0.31142  0.20749  1.0000
  I   I5        1.0  0.17023  0.28525  0.57042  1.0000
  I   I6        1.0  0.16647  0.29236  0.89226  1.0000
  I   I7        1.0  0.02871  0.68086  0.45851  1.0000
  I   I8        1.0  0.03069  0.68770  0.76810  1.0000
  I   I9        1.0  0.03252  0.67211  0.14887  1.0000
  I   I10       1.0  0.08897  0.87578  0.32991  1.0000
  I   I11       1.0  0.08214  0.88876  0.65467  1.0000
  I   I12       1.0  0.08563  0.90632  0.99412  1.0000
  I   I13       1.0  0.41486  0.04001  0.37402  1.0000
  I   I14       1.0  0.40725  0.03478  0.67036  1.0000
  I   I15       1.0  0.42211  0.02239  0.02415  1.0000
  I   I16       1.0  0.27602  0.44675  0.47139  1.0000
  I   I17       1.0  0.29208  0.43880  0.80543  1.0000
  I   I18       1.0  0.30584  0.42771  0.14156  1.0000
  I   I19       1.0  0.29467  0.68271  0.64830  1.0000
  I   I20       1.0  0.31564  0.68141  0.97010  1.0000
  I   I21       1.0  0.33730  0.61337  0.28551  1.0000
  I   I22       1.0  0.25239  0.92010  0.38705  1.0000
  I   I23       1.0  0.34162  0.88680  0.44726  1.0000
  I   I24       1.0  0.40280  0.79747  0.83671  1.0000
  I   I25       1.0  0.50716  0.24459  0.39468  1.0000
  I   I26       1.0  0.54234  0.19006  0.73959  1.0000
  I   I27       1.0  0.52549  0.23120  0.07002  1.0000
  I   I28       1.0  0.59378  0.35993  0.22871  1.0000
  I   I29       1.0  0.58364  0.38048  0.56857  1.0000
  I   I30       1.0  0.58431  0.38487  0.90576  1.0000
  I   I31       1.0  0.64055  0.58040  0.09228  1.0000
  I   I32       1.0  0.63747  0.59055  0.41456  1.0000
  I   I33       1.0  0.63430  0.60052  0.75641  1.0000
  I   I34       1.0  0.62565  0.82862  0.40971  1.0000
  I   I35       1.0  0.62113  0.81405  0.73367  1.0000
  I   I36       1.0  0.63675  0.82568  0.07540  1.0000
  I   I37       1.0  0.81980  0.15071  0.32512  1.0000
  I   I38       1.0  0.81766  0.10867  0.66830  1.0000
  I   I39       1.0  0.81438  0.15507  0.97830  1.0000
  I   I40       1.0  0.84179  0.35390  0.15164  1.0000
  I   I41       1.0  0.83191  0.34225  0.48591  1.0000
  I   I42       1.0  0.85547  0.31591  0.82665  1.0000
  I   I43       1.0  0.86098  0.58092  0.38977  1.0000
  I   I44       1.0  0.85176  0.58572  0.69670  1.0000
  I   I45       1.0  0.84747  0.57223  0.06159  1.0000
  I   I46       1.0  0.77145  0.88737  0.34254  1.0000
  I   I47       1.0  0.75649  0.91641  0.66771  1.0000
  I   I48       1.0  0.75463  0.89589  0.02751  1.0000
  I   I49       1.0  0.15265  0.19857  0.96946  1.0000
  I   I50       1.0  0.03516  0.17986  0.31084  1.0000
  I   I51       1.0  0.09241  0.20625  0.64739  1.0000
  I   I52       1.0  0.17707  0.38097  0.07303  1.0000
  I   I53       1.0  0.16004  0.36868  0.42862  1.0000
  I   I54       1.0  0.17636  0.36393  0.76144  1.0000
  I   I55       1.0  0.08425  0.70810  0.34058  1.0000
  I   I56       1.0  0.07943  0.72006  0.65711  1.0000
  I   I57       1.0  0.06602  0.71838  0.01503  1.0000
  I   I58       1.0  0.08737  0.96361  0.21366  1.0000
  I   I59       1.0  0.09862  0.93418  0.51993  1.0000
  I   I60       1.0  0.11644  0.95404  0.84400  1.0000
  I   I61       1.0  0.43288  0.09640  0.23964  1.0000
  I   I62       1.0  0.41953  0.11212  0.57623  1.0000
  I   I63       1.0  0.41974  0.09378  0.89070  1.0000
  I   I64       1.0  0.27875  0.50470  0.34066  1.0000
  I   I65       1.0  0.27922  0.51467  0.67340  1.0000
  I   I66       1.0  0.29717  0.50784  0.00362  1.0000
  I   I67       1.0  0.37151  0.66668  0.49302  1.0000
  I   I68       1.0  0.37595  0.68367  0.83230  1.0000
  I   I69       1.0  0.38939  0.67796  0.17811  1.0000
  I   I70       1.0  0.45310  0.89551  0.89100  1.0000
  I   I71       1.0  0.37469  0.90065  0.29569  1.0000
  I   I72       1.0  0.46117  0.85340  0.58540  1.0000
  I   I73       1.0  0.56204  0.27068  0.27269  1.0000
  I   I74       1.0  0.56227  0.26619  0.60072  1.0000
  I   I75       1.0  0.56923  0.25880  0.93690  1.0000
  I   I76       1.0  0.60075  0.43984  0.12199  1.0000
  I   I77       1.0  0.60635  0.42837  0.43512  1.0000
  I   I78       1.0  0.59394  0.44405  0.77471  1.0000
  I   I79       1.0  0.68489  0.62207  0.98227  1.0000
  I   I80       1.0  0.66862  0.63989  0.27505  1.0000
  I   I81       1.0  0.67626  0.62652  0.63290  1.0000
  I   I82       1.0  0.66938  0.86772  0.28679  1.0000
  I   I83       1.0  0.64577  0.86597  0.63145  1.0000
  I   I84       1.0  0.67069  0.85753  0.94683  1.0000
  I   I85       1.0  0.89011  0.14639  0.18605  1.0000
  I   I86       1.0  0.89676  0.11070  0.53171  1.0000
  I   I87       1.0  0.88167  0.13077  0.85852  1.0000
  I   I88       1.0  0.88696  0.38032  0.01959  1.0000
  I   I89       1.0  0.86762  0.38966  0.37273  1.0000
  I   I90       1.0  0.89233  0.36661  0.70057  1.0000
  I   I91       1.0  0.93416  0.57374  0.23871  1.0000
  I   I92       1.0  0.94783  0.56036  0.58049  1.0000
  I   I93       1.0  0.90658  0.58232  0.92344  1.0000
  I   I94       1.0  0.80775  0.94046  0.21386  1.0000
  I   I95       1.0  0.81745  0.93227  0.54101  1.0000
  I   I96       1.0  0.78016  0.94622  0.90130  1.0000
  I   I97       1.0  0.16096  0.19271  0.79448  1.0000
  I   I98       1.0  0.19911  0.14397  0.12046  1.0000
  I   I99       1.0  0.10569  0.18186  0.46408  1.0000
  I   I100      1.0  0.22667  0.34828  0.92281  1.0000
  I   I101      1.0  0.20717  0.35829  0.25103  1.0000
  I   I102      1.0  0.21415  0.34079  0.58605  1.0000
  I   I103      1.0  0.11973  0.65600  0.17169  1.0000
  I   I104      1.0  0.12022  0.66588  0.49344  1.0000
  I   I105      1.0  0.12108  0.65721  0.83329  1.0000
  I   I106      1.0  0.15175  0.93601  0.01841  1.0000
  I   I107      1.0  0.13644  0.91376  0.37301  1.0000
  I   I108      1.0  0.15932  0.89586  0.67938  1.0000
  I   I109      1.0  0.48436  0.04880  0.06489  1.0000
  I   I110      1.0  0.47960  0.08482  0.40034  1.0000
  I   I111      1.0  0.46528  0.07427  0.71932  1.0000
  I   I112      1.0  0.33912  0.48902  0.19014  1.0000
  I   I113      1.0  0.32717  0.49156  0.49893  1.0000
  I   I114      1.0  0.33593  0.49615  0.83374  1.0000
  I   I115      1.0  0.41152  0.63008  0.34097  1.0000
  I   I116      1.0  0.44112  0.58141  0.60811  1.0000
  I   I117      1.0  0.41260  0.62765  0.96835  1.0000
  I   I118      1.0  0.49129  0.80286  0.79638  1.0000
  I   I119      1.0  0.36207  0.94631  0.07102  1.0000
  I   I120      1.0  0.43642  0.83432  0.42526  1.0000
  I   I121      1.0  0.61838  0.22227  0.11848  1.0000
  I   I122      1.0  0.59580  0.23220  0.43734  1.0000
  I   I123      1.0  0.60626  0.23196  0.74691  1.0000
  I   I124      1.0  0.64308  0.42875  0.94566  1.0000
  I   I125      1.0  0.65704  0.39233  0.28392  1.0000
  I   I126      1.0  0.63914  0.40877  0.61457  1.0000
  I   I127      1.0  0.71689  0.58747  0.80667  1.0000
  I   I128      1.0  0.71918  0.57730  0.13995  1.0000
  I   I129      1.0  0.72187  0.55985  0.48636  1.0000
  I   I130      1.0  0.71568  0.82645  0.12583  1.0000
  I   I131      1.0  0.69039  0.84645  0.45488  1.0000
  I   I132      1.0  0.70583  0.83215  0.77114  1.0000
  I   I133      1.0  0.90632  0.10201  0.02751  1.0000
  I   I134      1.0  0.91307  0.10269  0.35399  1.0000
  I   I135      1.0  0.90455  0.07431  0.71103  1.0000
  I   I136      1.0  0.93234  0.33067  0.87642  1.0000
  I   I137      1.0  0.92248  0.35825  0.19313  1.0000
  I   I138      1.0  0.92231  0.33234  0.54050  1.0000
  I   I139      1.0  0.94378  0.52182  0.08533  1.0000
  I   I140      1.0  0.96016  0.52264  0.40621  1.0000
  I   I141      1.0  0.93915  0.53572  0.74907  1.0000
  I   I142      1.0  0.84846  0.89109  0.03985  1.0000
  I   I143      1.0  0.85469  0.89128  0.37700  1.0000
  I   I144      1.0  0.84257  0.90501  0.71807  1.0000
  I   I145      1.0  0.20191  0.10795  0.90596  1.0000
  I   I146      1.0  0.10173  0.07852  0.32280  1.0000
  I   I147      1.0  0.14323  0.10897  0.62038  1.0000
  I   I148      1.0  0.21411  0.28698  0.05318  1.0000
  I   I149      1.0  0.20534  0.27191  0.38572  1.0000
  I   I150      1.0  0.21325  0.27353  0.72778  1.0000
  I   I151      1.0  0.05852  0.63657  0.30494  1.0000
  I   I152      1.0  0.07087  0.63431  0.61759  1.0000
  I   I153      1.0  0.06258  0.63678  0.95539  1.0000
  I   I154      1.0  0.11401  0.87848  0.14108  1.0000
  I   I155      1.0  0.11126  0.84606  0.48829  1.0000
  I   I156      1.0  0.13742  0.86533  0.82379  1.0000
  I   I157      1.0  0.46820  0.99673  0.20359  1.0000
  I   I158      1.0  0.45720  0.01736  0.51519  1.0000
  I   I159      1.0  0.45832  0.00565  0.84876  1.0000
  I   I160      1.0  0.32422  0.41418  0.30130  1.0000
  I   I161      1.0  0.31563  0.42804  0.64831  1.0000
  I   I162      1.0  0.35238  0.41358  0.97962  1.0000
  I   I163      1.0  0.37496  0.58075  0.43718  1.0000
  I   I164      1.0  0.30909  0.64745  0.80308  1.0000
  I   I165      1.0  0.36524  0.61817  0.12706  1.0000
  I   I166      1.0  0.45129  0.81921  0.97198  1.0000
  I   I167      1.0  0.32183  0.85809  0.25356  1.0000
  I   I168      1.0  0.43142  0.76976  0.67021  1.0000
  I   I169      1.0  0.55011  0.19234  0.23206  1.0000
  I   I170      1.0  0.55128  0.19288  0.57095  1.0000
  I   I171      1.0  0.59554  0.16860  0.89948  1.0000
  I   I172      1.0  0.63770  0.34511  0.07521  1.0000
  I   I173      1.0  0.64399  0.33838  0.42612  1.0000
  I   I174      1.0  0.62918  0.35093  0.76073  1.0000
  I   I175      1.0  0.66947  0.54774  0.92550  1.0000
  I   I176      1.0  0.67403  0.53219  0.27359  1.0000
  I   I177      1.0  0.66054  0.55106  0.61046  1.0000
  I   I178      1.0  0.67611  0.77770  0.26110  1.0000
  I   I179      1.0  0.66160  0.77340  0.57028  1.0000
  I   I180      1.0  0.68741  0.77764  0.89127  1.0000
  I   I181      1.0  0.84242  0.10467  0.14503  1.0000
  I   I182      1.0  0.85425  0.06185  0.48478  1.0000
  I   I183      1.0  0.83008  0.07777  0.84701  1.0000
  I   I184      1.0  0.90718  0.27853  0.00459  1.0000
  I   I185      1.0  0.87404  0.29746  0.31678  1.0000
  I   I186      1.0  0.89187  0.28249  0.67734  1.0000
  I   I187      1.0  0.87618  0.52853  0.23203  1.0000
  I   I188      1.0  0.88269  0.53481  0.55061  1.0000
  I   I189      1.0  0.86626  0.53450  0.88378  1.0000
  I   I190      1.0  0.81074  0.86016  0.18210  1.0000
  I   I191      1.0  0.79983  0.86264  0.50939  1.0000
  I   I192      1.0  0.80085  0.85958  0.84224  1.0000
  I   I193      1.0  0.24908  0.16702  0.97136  1.0000
  I   I194      1.0  0.12307  0.16408  0.28742  1.0000
  I   I195      1.0  0.19508  0.16905  0.61662  1.0000
  I   I196      1.0  0.27478  0.33904  0.08883  1.0000
  I   I197      1.0  0.26699  0.31027  0.43303  1.0000
  I   I198      1.0  0.27287  0.32607  0.78227  1.0000
  I   I199      1.0  0.16089  0.61146  0.32666  1.0000
  I   I200      1.0  0.17125  0.61077  0.68849  1.0000
  I   I201      1.0  0.15524  0.63956  0.01088  1.0000
  I   I202      1.0  0.19215  0.90497  0.23331  1.0000
  I   I203      1.0  0.20118  0.85291  0.51695  1.0000
  I   I204      1.0  0.21208  0.88864  0.86912  1.0000
  I   I205      1.0  0.53177  0.04050  0.24930  1.0000
  I   I206      1.0  0.52090  0.05838  0.57030  1.0000
  I   I207      1.0  0.53143  0.03674  0.90383  1.0000
  I   I208      1.0  0.37660  0.47832  0.37404  1.0000
  I   I209      1.0  0.37918  0.48459  0.68215  1.0000
  I   I210      1.0  0.39452  0.47824  0.03600  1.0000
  I   I211      1.0  0.46892  0.63002  0.48702  1.0000
  I   I212      1.0  0.42309  0.57627  0.82423  1.0000
  I   I213      1.0  0.47067  0.59558  0.21737  1.0000
  I   I214      1.0  0.45038  0.85924  0.11701  1.0000
  I   I215      1.0  0.42231  0.80177  0.27161  1.0000
  I   I216      1.0  0.53266  0.71416  0.70585  1.0000
  I   I217      1.0  0.63883  0.17021  0.29041  1.0000
  I   I218      1.0  0.65113  0.18808  0.59150  1.0000
  I   I219      1.0  0.67342  0.16709  0.97932  1.0000
  I   I220      1.0  0.70782  0.38172  0.13437  1.0000
  I   I221      1.0  0.71188  0.36921  0.49716  1.0000
  I   I222      1.0  0.69898  0.38473  0.79939  1.0000
  I   I223      1.0  0.77517  0.52612  0.00137  1.0000
  I   I224      1.0  0.75247  0.55683  0.31798  1.0000
  I   I225      1.0  0.76703  0.55358  0.66175  1.0000
  I   I226      1.0  0.76238  0.78979  0.35010  1.0000
  I   I227      1.0  0.74843  0.78559  0.62934  1.0000
  I   I228      1.0  0.77060  0.76864  0.97317  1.0000
  I   I229      1.0  0.93657  0.03761  0.22418  1.0000
  I   I230      1.0  0.94108  0.99944  0.58717  1.0000
  I   I231      1.0  0.92330  0.02483  0.93505  1.0000
  I   I232      1.0  0.97762  0.30714  0.06575  1.0000
  I   I233      1.0  0.95606  0.30912  0.36927  1.0000
  I   I234      1.0  0.98390  0.27910  0.71285  1.0000
  I   I235      1.0  0.97369  0.47033  0.26220  1.0000
  I   I236      1.0  0.97315  0.46137  0.60894  1.0000
  I   I237      1.0  0.97216  0.47160  0.94397  1.0000
  I   I238      1.0  0.90613  0.86776  0.22385  1.0000
  I   I239      1.0  0.89194  0.85216  0.59412  1.0000
  I   I240      1.0  0.88855  0.85513  0.88309  1.0000
  I   I241      1.0  0.28093  0.06579  0.01529  1.0000
  I   I242      1.0  0.16621  0.09024  0.41606  1.0000
  I   I243      1.0  0.22470  0.09424  0.71564  1.0000
  I   I244      1.0  0.27741  0.26433  0.19878  1.0000
  I   I245      1.0  0.26946  0.23305  0.53506  1.0000
  I   I246      1.0  0.28092  0.24981  0.89062  1.0000
  I   I247      1.0  0.11331  0.58271  0.45248  1.0000
  I   I248      1.0  0.09814  0.58969  0.76686  1.0000
  I   I249      1.0  0.11120  0.57811  0.08627  1.0000
  I   I250      1.0  0.17694  0.81977  0.27008  1.0000
  I   I251      1.0  0.17186  0.79489  0.62281  1.0000
  I   I252      1.0  0.18818  0.83116  0.98675  1.0000
  I   I253      1.0  0.51004  0.97461  0.36064  1.0000
  I   I254      1.0  0.52010  0.97481  0.64671  1.0000
  I   I255      1.0  0.51817  0.95919  0.96323  1.0000
  I   I256      1.0  0.39015  0.39516  0.46496  1.0000
  I   I257      1.0  0.39375  0.39188  0.76158  1.0000
  I   I258      1.0  0.41151  0.39025  0.12020  1.0000
  I   I259      1.0  0.46870  0.54053  0.43202  1.0000
  I   I260      1.0  0.35225  0.58099  0.94364  1.0000
  I   I261      1.0  0.42554  0.53246  0.25513  1.0000
  I   I262      1.0  0.36108  0.84617  0.08427  1.0000
  I   I263      1.0  0.35240  0.79432  0.39349  1.0000
  I   I264      1.0  0.47791  0.69010  0.81758  1.0000
  I   I265      1.0  0.57031  0.14866  0.39369  1.0000
  I   I266      1.0  0.63925  0.12479  0.69314  1.0000
  I   I267      1.0  0.59876  0.13917  0.04281  1.0000
  I   I268      1.0  0.69438  0.30570  0.22716  1.0000
  I   I269      1.0  0.68890  0.30021  0.59762  1.0000
  I   I270      1.0  0.68892  0.31563  0.91070  1.0000
  I   I271      1.0  0.72657  0.48275  0.07150  1.0000
  I   I272      1.0  0.73539  0.47678  0.40681  1.0000
  I   I273      1.0  0.72189  0.49388  0.72987  1.0000
  I   I274      1.0  0.71537  0.73501  0.40643  1.0000
  I   I275      1.0  0.71666  0.72712  0.72259  1.0000
  I   I276      1.0  0.70182  0.73417  0.04452  1.0000
  I   I277      1.0  0.84747  0.05393  0.28207  1.0000
  I   I278      1.0  0.84734  0.01595  0.63925  1.0000
  I   I279      1.0  0.83118  0.05445  0.02076  1.0000
  I   I280      1.0  0.92936  0.26614  0.17734  1.0000
  I   I281      1.0  0.92466  0.24772  0.46092  1.0000
  I   I282      1.0  0.94562  0.23768  0.83685  1.0000
  I   I283      1.0  0.90756  0.46869  0.38163  1.0000
  I   I284      1.0  0.89177  0.47500  0.70331  1.0000
  I   I285      1.0  0.88801  0.47442  0.03852  1.0000
  I   I286      1.0  0.87436  0.79890  0.28198  1.0000
  I   I287      1.0  0.81955  0.82272  0.68002  1.0000
  I   I288      1.0  0.84006  0.81325  0.99429  1.0000
  I   I289      1.0  0.08713  0.14978  0.95542  1.0000
  I   I290      1.0  0.02941  0.11448  0.17902  1.0000
  I   I291      1.0  0.04972  0.12709  0.63524  1.0000
  I   I292      1.0  0.10735  0.35131  0.04724  1.0000
  I   I293      1.0  0.09725  0.33824  0.33539  1.0000
  I   I294      1.0  0.12125  0.31329  0.71581  1.0000
  I   I295      1.0  0.99076  0.75925  0.26484  1.0000
  I   I296      1.0  0.98723  0.73154  0.59821  1.0000
  I   I297      1.0  0.97920  0.72420  0.91666  1.0000
  I   I298      1.0  0.01707  0.96381  0.13055  1.0000
  I   I299      1.0  0.01167  0.91934  0.45466  1.0000
  I   I300      1.0  0.03228  0.94290  0.78972  1.0000
  I   I301      1.0  0.36389  0.06558  0.18644  1.0000
  I   I302      1.0  0.34637  0.09645  0.50707  1.0000
  I   I303      1.0  0.35543  0.05723  0.81880  1.0000
  I   I304      1.0  0.21902  0.47519  0.25789  1.0000
  I   I305      1.0  0.21389  0.47647  0.65074  1.0000
  I   I306      1.0  0.24858  0.44837  0.95774  1.0000
  I   I307      1.0  0.27729  0.66185  0.40806  1.0000
  I   I308      1.0  0.26656  0.75441  0.77335  1.0000
  I   I309      1.0  0.29349  0.72025  0.10779  1.0000
  I   I310      1.0  0.36208  0.88540  0.92618  1.0000
  I   I311      1.0  0.29725  0.99189  0.36589  1.0000
  I   I312      1.0  0.35637  0.89924  0.59896  1.0000
  I   I313      1.0  0.46560  0.29151  0.18904  1.0000
  I   I314      1.0  0.45902  0.28183  0.55606  1.0000
  I   I315      1.0  0.49387  0.22593  0.87994  1.0000
  I   I316      1.0  0.52692  0.42070  0.04223  1.0000
  I   I317      1.0  0.53970  0.38021  0.36827  1.0000
  I   I318      1.0  0.52146  0.40993  0.70790  1.0000
  I   I319      1.0  0.59028  0.64013  0.93381  1.0000
  I   I320      1.0  0.58338  0.63708  0.22319  1.0000
  I   I321      1.0  0.58194  0.63891  0.56106  1.0000
  I   I322      1.0  0.57853  0.86868  0.20604  1.0000
  I   I323      1.0  0.56770  0.85028  0.56099  1.0000
  I   I324      1.0  0.58592  0.84601  0.88530  1.0000
  I   I325      1.0  0.78497  0.20676  0.13231  1.0000
  I   I326      1.0  0.79224  0.16455  0.48663  1.0000
  I   I327      1.0  0.77477  0.17969  0.79285  1.0000
  I   I328      1.0  0.81261  0.33534  0.97601  1.0000
  I   I329      1.0  0.78336  0.38179  0.29510  1.0000
  I   I330      1.0  0.79734  0.34937  0.64823  1.0000
  I   I331      1.0  0.83617  0.64042  0.19960  1.0000
  I   I332      1.0  0.84475  0.64413  0.51606  1.0000
  I   I333      1.0  0.81330  0.64375  0.82849  1.0000
  I   I334      1.0  0.71494  0.94708  0.18813  1.0000
  I   I335      1.0  0.71713  0.95103  0.49401  1.0000
  I   I336      1.0  0.69887  0.95268  0.81056  1.0000
  I   I337      1.0  0.06820  0.23001  0.86214  1.0000
  I   I338      1.0  0.05867  0.19753  0.14537  1.0000
  I   I339      1.0  0.01259  0.21734  0.57165  1.0000
  I   I340      1.0  0.13035  0.40559  0.91599  1.0000
  I   I341      1.0  0.10581  0.41839  0.27012  1.0000
  I   I342      1.0  0.10066  0.39636  0.61538  1.0000
  I   I343      1.0  0.06529  0.75918  0.19005  1.0000
  I   I344      1.0  0.03961  0.77107  0.50241  1.0000
  I   I345      1.0  0.03352  0.76428  0.84372  1.0000
  I   I346      1.0  0.05132  0.01218  0.03445  1.0000
  I   I347      1.0  0.03016  0.99328  0.39743  1.0000
  I   I348      1.0  0.07369  0.98664  0.67838  1.0000
  I   I349      1.0  0.38547  0.12475  0.08933  1.0000
  I   I350      1.0  0.37940  0.14939  0.41087  1.0000
  I   I351      1.0  0.35653  0.13800  0.74520  1.0000
  I   I352      1.0  0.23716  0.53957  0.16825  1.0000
  I   I353      1.0  0.22460  0.54694  0.52612  1.0000
  I   I354      1.0  0.23518  0.54322  0.86788  1.0000
  I   I355      1.0  0.31086  0.72137  0.34424  1.0000
  I   I356      1.0  0.36284  0.72052  0.67141  1.0000
  I   I357      1.0  0.37518  0.73325  0.03481  1.0000
  I   I358      1.0  0.38863  0.89409  0.76868  1.0000
  I   I359      1.0  0.26276  0.95595  0.23581  1.0000
  I   I360      1.0  0.40569  0.94410  0.48487  1.0000
  I   I361      1.0  0.53354  0.31729  0.12798  1.0000
  I   I362      1.0  0.49565  0.32780  0.47225  1.0000
  I   I363      1.0  0.50478  0.30120  0.81133  1.0000
  I   I364      1.0  0.54313  0.48987  0.96190  1.0000
  I   I365      1.0  0.54959  0.45773  0.29400  1.0000
  I   I366      1.0  0.54703  0.48646  0.64036  1.0000
  I   I367      1.0  0.63833  0.68663  0.85485  1.0000
  I   I368      1.0  0.63258  0.68474  0.12059  1.0000
  I   I369      1.0  0.65734  0.66536  0.48593  1.0000
  I   I370      1.0  0.63427  0.91160  0.12412  1.0000
  I   I371      1.0  0.59540  0.92140  0.48300  1.0000
  I   I372      1.0  0.61294  0.91002  0.80693  1.0000
  I   I373      1.0  0.86453  0.21197  0.05164  1.0000
  I   I374      1.0  0.85174  0.20471  0.42162  1.0000
  I   I375      1.0  0.86195  0.18138  0.71317  1.0000
  I   I376      1.0  0.82722  0.41249  0.88694  1.0000
  I   I377      1.0  0.81830  0.43521  0.21659  1.0000
  I   I378      1.0  0.82293  0.41838  0.57141  1.0000
  I   I379      1.0  0.91418  0.62708  0.09827  1.0000
  I   I380      1.0  0.92582  0.62265  0.42511  1.0000
  I   I381      1.0  0.91130  0.63575  0.77328  1.0000
  I   I382      1.0  0.74184  0.99382  0.06930  1.0000
  I   I383      1.0  0.77098  0.98382  0.37738  1.0000
  I   I384      1.0  0.75316  0.99601  0.74640  1.0000
