data_image0
_chemical_formula_structural       Ti96I384
_chemical_formula_sum              "Ti96 I384"
_cell_length_a       37.3083
_cell_length_b       36.8043
_cell_length_c       22.1892
_cell_angle_alpha    88.7757
_cell_angle_beta     88.7757
_cell_angle_gamma    62.1586

_space_group_name_H-M_alt    "P 1"
_space_group_IT_number       1

loop_
  _space_group_symop_operation_xyz
  'x, y, z'

loop_
  _atom_site_type_symbol
  _atom_site_label
  _atom_site_symmetry_multiplicity
  _atom_site_fract_x
  _atom_site_fract_y
  _atom_site_fract_z
  _atom_site_occupancy
  Ti  Ti1       1.0  0.16889  0.06840  0.28511  1.0000
  Ti  Ti2       1.0  0.16016  0.06516  0.62066  1.0000
  Ti  Ti3       1.0  0.18196  0.06125  0.95022  1.0000
  Ti  Ti4       1.0  0.15484  0.35607  0.26827  1.0000
  Ti  Ti5       1.0  0.15492  0.35215  0.59953  1.0000
  Ti  Ti6       1.0  0.16021  0.33952  0.93004  1.0000
  Ti  Ti7       1.0  0.17548  0.57798  0.28158  1.0000
  Ti  Ti8       1.0  0.17366  0.57838  0.63076  1.0000
  Ti  Ti9       1.0  0.16216  0.59135  0.95494  1.0000
  Ti  Ti10      1.0  0.13771  0.85743  0.24605  1.0000
  Ti  Ti11      1.0  0.14012  0.84373  0.56968  1.0000
  Ti  Ti12      1.0  0.13072  0.85029  0.91844  1.0000
  Ti  Ti13      1.0  0.41853  0.09228  0.23335  1.0000
  Ti  Ti14      1.0  0.41631  0.10259  0.57498  1.0000
  Ti  Ti15      1.0  0.40146  0.10028  0.89659  1.0000
  Ti  Ti16      1.0  0.40779  0.32367  0.26573  1.0000
  Ti  Ti17      1.0  0.41595  0.33778  0.62150  1.0000
  Ti  Ti18      1.0  0.40920  0.34523  0.94406  1.0000
  Ti  Ti19      1.0  0.38099  0.61333  0.25886  1.0000
  Ti  Ti20      1.0  0.37942  0.62215  0.58347  1.0000
  Ti  Ti21      1.0  0.38710  0.62421  0.91716  1.0000
  Ti  Ti22      1.0  0.42809  0.84465  0.23501  1.0000
  Ti  Ti23      1.0  0.43628  0.82286  0.54742  1.0000
  Ti  Ti24      1.0  0.42806  0.84374  0.89661  1.0000
  Ti  Ti25      1.0  0.68207  0.07692  0.20355  1.0000
  Ti  Ti26      1.0  0.67020  0.07307  0.54891  1.0000
  Ti  Ti27      1.0  0.67255  0.06938  0.88190  1.0000
  Ti  Ti28      1.0  0.62300  0.36716  0.22744  1.0000
  Ti  Ti29      1.0  0.61063  0.36245  0.56572  1.0000
  Ti  Ti30      1.0  0.63039  0.37785  0.90463  1.0000
  Ti  Ti31      1.0  0.66578  0.58345  0.23284  1.0000
  Ti  Ti32      1.0  0.66779  0.57551  0.55737  1.0000
  Ti  Ti33      1.0  0.66014  0.58797  0.88834  1.0000
  Ti  Ti34      1.0  0.66900  0.83578  0.27237  1.0000
  Ti  Ti35      1.0  0.65630  0.85625  0.61387  1.0000
  Ti  Ti36      1.0  0.66082  0.83935  0.92967  1.0000
  Ti  Ti37      1.0  0.90894  0.10287  0.22667  1.0000
  Ti  Ti38      1.0  0.90196  0.10815  0.59136  1.0000
  Ti  Ti39      1.0  0.89204  0.11261  0.91064  1.0000
  Ti  Ti40      1.0  0.91541  0.34451  0.22989  1.0000
  Ti  Ti41      1.0  0.91228  0.34032  0.55457  1.0000
  Ti  Ti42      1.0  0.91141  0.33921  0.89768  1.0000
  Ti  Ti43      1.0  0.89146  0.59183  0.28494  1.0000
  Ti  Ti44      1.0  0.88308  0.58804  0.60613  1.0000
  Ti  Ti45      1.0  0.89932  0.58842  0.93500  1.0000
  Ti  Ti46      1.0  0.92488  0.83054  0.24840  1.0000
  Ti  Ti47      1.0  0.92700  0.82704  0.57229  1.0000
  Ti  Ti48      1.0  0.91567  0.82236  0.90793  1.0000
  Ti  Ti49      1.0  0.12141  0.12814  0.10681  1.0000
  Ti  Ti50      1.0  0.10456  0.14294  0.44173  1.0000
  Ti  Ti51      1.0  0.11678  0.13470  0.79802  1.0000
  Ti  Ti52      1.0  0.09950  0.41172  0.08114  1.0000
  Ti  Ti53      1.0  0.08598  0.41840  0.43456  1.0000
  Ti  Ti54      1.0  0.09281  0.40977  0.77715  1.0000
  Ti  Ti55      1.0  0.10123  0.65171  0.11713  1.0000
  Ti  Ti56      1.0  0.11693  0.63835  0.46318  1.0000
  Ti  Ti57      1.0  0.09833  0.64979  0.78463  1.0000
  Ti  Ti58      1.0  0.05680  0.91685  0.07887  1.0000
  Ti  Ti59      1.0  0.06450  0.91301  0.42324  1.0000
  Ti  Ti60      1.0  0.07876  0.91133  0.73937  1.0000
  Ti  Ti61      1.0  0.33341  0.15562  0.06816  1.0000
  Ti  Ti62      1.0  0.34688  0.14936  0.40811  1.0000
  Ti  Ti63      1.0  0.32722  0.15432  0.72806  1.0000
  Ti  Ti64      1.0  0.35059  0.39951  0.10412  1.0000
  Ti  Ti65      1.0  0.35026  0.39351  0.44544  1.0000
  Ti  Ti66      1.0  0.35964  0.41313  0.78766  1.0000
  Ti  Ti67      1.0  0.32162  0.70424  0.06576  1.0000
  Ti  Ti68      1.0  0.32221  0.68579  0.42008  1.0000
  Ti  Ti69      1.0  0.32529  0.68799  0.75115  1.0000
  Ti  Ti70      1.0  0.35943  0.91158  0.05854  1.0000
  Ti  Ti71      1.0  0.36609  0.90301  0.40433  1.0000
  Ti  Ti72      1.0  0.37478  0.89969  0.70918  1.0000
  Ti  Ti73      1.0  0.61284  0.14169  0.05217  1.0000
  Ti  Ti74      1.0  0.60465  0.13694  0.37087  1.0000
  Ti  Ti75      1.0  0.60270  0.13380  0.72205  1.0000
  Ti  Ti76      1.0  0.57467  0.44934  0.06799  1.0000
  Ti  Ti77      1.0  0.56522  0.44322  0.39510  1.0000
  Ti  Ti78      1.0  0.55705  0.43752  0.72635  1.0000
  Ti  Ti79      1.0  0.60658  0.65059  0.06143  1.0000
  Ti  Ti80      1.0  0.59930  0.66292  0.39260  1.0000
  Ti  Ti81      1.0  0.60463  0.65386  0.72780  1.0000
  Ti  Ti82      1.0  0.59651  0.90576  0.11341  1.0000
  Ti  Ti83      1.0  0.59111  0.90701  0.43192  1.0000
  Ti  Ti84      1.0  0.58979  0.91664  0.76805  1.0000
  Ti  Ti85      1.0  0.82801  0.17478  0.07896  1.0000
  Ti  Ti86      1.0  0.84843  0.15957  0.40882  1.0000
  Ti  Ti87      1.0  0.82494  0.17998  0.74200  1.0000
  Ti  Ti88      1.0  0.84500  0.39086  0.05767  1.0000
  Ti  Ti89      1.0  0.84459  0.40581  0.38933  1.0000
  Ti  Ti90      1.0  0.84084  0.40347  0.73321  1.0000
  Ti  Ti91      1.0  0.83552  0.65622  0.10376  1.0000
  Ti  Ti92      1.0  0.83106  0.66346  0.44215  1.0000
  Ti  Ti93      1.0  0.82323  0.65601  0.78114  1.0000
  Ti  Ti94      1.0  0.85288  0.88538  0.07503  1.0000
  Ti  Ti95      1.0  0.85164  0.90584  0.41632  1.0000
  Ti  Ti96      1.0  0.84447  0.89808  0.73993  1.0000
  I   I1        1.0  0.08842  0.10583  0.34167  1.0000
  I   I2        1.0  0.08832  0.11224  0.68839  1.0000
  I   I3        1.0  0.10558  0.09383  0.00139  1.0000
  I   I4        1.0  0.07069  0.39600  0.32321  1.0000
  I   I5        1.0  0.07638  0.38201  0.66979  1.0000
  I   I6        1.0  0.07897  0.37656  0.99068  1.0000
  I   I7        1.0  0.10473  0.60316  0.35792  1.0000
  I   I8        1.0  0.09272  0.60118  0.69393  1.0000
  I   I9        1.0  0.08534  0.61593  0.01657  1.0000
  I   I10       1.0  0.06069  0.87864  0.30921  1.0000
  I   I11       1.0  0.05815  0.88048  0.62750  1.0000
  I   I12       1.0  0.04973  0.88400  0.97790  1.0000
  I   I13       1.0  0.34657  0.10296  0.31273  1.0000
  I   I14       1.0  0.34440  0.10495  0.63414  1.0000
  I   I15       1.0  0.32765  0.12023  0.96036  1.0000
  I   I16       1.0  0.32838  0.36778  0.34699  1.0000
  I   I17       1.0  0.34166  0.39545  0.67076  1.0000
  I   I18       1.0  0.32661  0.37620  0.99770  1.0000
  I   I19       1.0  0.30865  0.64953  0.31717  1.0000
  I   I20       1.0  0.30381  0.65937  0.64380  1.0000
  I   I21       1.0  0.30090  0.66765  0.96499  1.0000
  I   I22       1.0  0.34883  0.88120  0.29151  1.0000
  I   I23       1.0  0.35717  0.87005  0.61294  1.0000
  I   I24       1.0  0.34589  0.87882  0.94676  1.0000
  I   I25       1.0  0.60402  0.09894  0.26562  1.0000
  I   I26       1.0  0.58680  0.10608  0.61431  1.0000
  I   I27       1.0  0.59505  0.10564  0.94639  1.0000
  I   I28       1.0  0.54409  0.41266  0.29615  1.0000
  I   I29       1.0  0.53267  0.40789  0.63591  1.0000
  I   I30       1.0  0.55412  0.41618  0.97832  1.0000
  I   I31       1.0  0.58921  0.61500  0.28818  1.0000
  I   I32       1.0  0.58816  0.61355  0.62215  1.0000
  I   I33       1.0  0.57999  0.63168  0.94544  1.0000
  I   I34       1.0  0.58938  0.86838  0.32878  1.0000
  I   I35       1.0  0.57458  0.88834  0.66252  1.0000
  I   I36       1.0  0.58972  0.86653  0.00989  1.0000
  I   I37       1.0  0.83234  0.13372  0.30807  1.0000
  I   I38       1.0  0.82026  0.14394  0.62676  1.0000
  I   I39       1.0  0.81167  0.15179  0.96824  1.0000
  I   I40       1.0  0.84222  0.35814  0.28746  1.0000
  I   I41       1.0  0.83771  0.36208  0.61767  1.0000
  I   I42       1.0  0.84158  0.34429  0.95653  1.0000
  I   I43       1.0  0.81057  0.63833  0.33548  1.0000
  I   I44       1.0  0.80590  0.62534  0.66862  1.0000
  I   I45       1.0  0.81913  0.61425  0.02133  1.0000
  I   I46       1.0  0.84398  0.86737  0.30393  1.0000
  I   I47       1.0  0.84653  0.85711  0.63925  1.0000
  I   I48       1.0  0.83593  0.85717  0.97435  1.0000
  I   I49       1.0  0.14455  0.14484  0.22326  1.0000
  I   I50       1.0  0.14443  0.13904  0.54833  1.0000
  I   I51       1.0  0.15437  0.14560  0.90169  1.0000
  I   I52       1.0  0.12538  0.42803  0.19278  1.0000
  I   I53       1.0  0.11554  0.43184  0.54362  1.0000
  I   I54       1.0  0.13769  0.41574  0.86999  1.0000
  I   I55       1.0  0.13214  0.66112  0.22584  1.0000
  I   I56       1.0  0.15006  0.65614  0.56101  1.0000
  I   I57       1.0  0.12922  0.66990  0.88489  1.0000
  I   I58       1.0  0.09203  0.93690  0.17951  1.0000
  I   I59       1.0  0.10044  0.93076  0.51555  1.0000
  I   I60       1.0  0.10106  0.92658  0.84662  1.0000
  I   I61       1.0  0.35773  0.17296  0.17393  1.0000
  I   I62       1.0  0.37614  0.17760  0.50303  1.0000
  I   I63       1.0  0.33827  0.18326  0.84036  1.0000
  I   I64       1.0  0.38197  0.40476  0.22113  1.0000
  I   I65       1.0  0.40238  0.40635  0.52681  1.0000
  I   I66       1.0  0.38995  0.42342  0.90245  1.0000
  I   I67       1.0  0.33507  0.72311  0.17394  1.0000
  I   I68       1.0  0.34978  0.70278  0.53161  1.0000
  I   I69       1.0  0.35821  0.70251  0.85571  1.0000
  I   I70       1.0  0.39737  0.92975  0.15363  1.0000
  I   I71       1.0  0.40938  0.90570  0.49911  1.0000
  I   I72       1.0  0.39899  0.91686  0.83449  1.0000
  I   I73       1.0  0.63759  0.15776  0.15382  1.0000
  I   I74       1.0  0.63026  0.14940  0.48634  1.0000
  I   I75       1.0  0.63232  0.15292  0.82678  1.0000
  I   I76       1.0  0.60916  0.44798  0.17550  1.0000
  I   I77       1.0  0.60051  0.43685  0.50247  1.0000
  I   I78       1.0  0.59391  0.45299  0.82868  1.0000
  I   I79       1.0  0.63342  0.66041  0.17579  1.0000
  I   I80       1.0  0.64004  0.66536  0.49471  1.0000
  I   I81       1.0  0.63577  0.67254  0.82013  1.0000
  I   I82       1.0  0.62627  0.91893  0.22138  1.0000
  I   I83       1.0  0.62397  0.92811  0.53758  1.0000
  I   I84       1.0  0.62174  0.92624  0.87686  1.0000
  I   I85       1.0  0.87169  0.18645  0.16989  1.0000
  I   I86       1.0  0.88186  0.18072  0.52138  1.0000
  I   I87       1.0  0.85900  0.19091  0.84053  1.0000
  I   I88       1.0  0.86675  0.42277  0.15321  1.0000
  I   I89       1.0  0.86888  0.41976  0.49133  1.0000
  I   I90       1.0  0.86320  0.41633  0.83975  1.0000
  I   I91       1.0  0.86316  0.67119  0.20606  1.0000
  I   I92       1.0  0.84879  0.67596  0.55460  1.0000
  I   I93       1.0  0.85788  0.66878  0.87117  1.0000
  I   I94       1.0  0.88936  0.90371  0.17175  1.0000
  I   I95       1.0  0.88154  0.91406  0.51918  1.0000
  I   I96       1.0  0.87899  0.90317  0.84720  1.0000
  I   I97       1.0  0.20427  0.09188  0.04637  1.0000
  I   I98       1.0  0.18584  0.09429  0.40083  1.0000
  I   I99       1.0  0.19070  0.08416  0.72187  1.0000
  I   I100      1.0  0.17795  0.37331  0.03343  1.0000
  I   I101      1.0  0.16507  0.38770  0.37416  1.0000
  I   I102      1.0  0.17009  0.37808  0.70641  1.0000
  I   I103      1.0  0.17287  0.63426  0.04692  1.0000
  I   I104      1.0  0.19649  0.60710  0.38759  1.0000
  I   I105      1.0  0.18190  0.60694  0.73941  1.0000
  I   I106      1.0  0.14796  0.88176  0.01542  1.0000
  I   I107      1.0  0.14463  0.89083  0.35469  1.0000
  I   I108      1.0  0.15519  0.87945  0.66707  1.0000
  I   I109      1.0  0.41054  0.12549  0.00477  1.0000
  I   I110      1.0  0.42528  0.12487  0.33561  1.0000
  I   I111      1.0  0.41524  0.14843  0.66884  1.0000
  I   I112      1.0  0.43362  0.36964  0.05077  1.0000
  I   I113      1.0  0.42686  0.34547  0.38325  1.0000
  I   I114      1.0  0.43714  0.35960  0.73390  1.0000
  I   I115      1.0  0.39851  0.67466  0.02856  1.0000
  I   I116      1.0  0.39954  0.64708  0.36119  1.0000
  I   I117      1.0  0.40260  0.65010  0.69111  1.0000
  I   I118      1.0  0.44208  0.87398  0.99825  1.0000
  I   I119      1.0  0.44771  0.87612  0.33223  1.0000
  I   I120      1.0  0.45651  0.85528  0.65257  1.0000
  I   I121      1.0  0.68300  0.11538  0.97919  1.0000
  I   I122      1.0  0.69175  0.11305  0.31305  1.0000
  I   I123      1.0  0.68200  0.10387  0.65465  1.0000
  I   I124      1.0  0.64977  0.40835  0.99908  1.0000
  I   I125      1.0  0.64080  0.38171  0.34450  1.0000
  I   I126      1.0  0.64077  0.37928  0.66770  1.0000
  I   I127      1.0  0.67518  0.62255  0.99088  1.0000
  I   I128      1.0  0.67934  0.61701  0.34299  1.0000
  I   I129      1.0  0.68087  0.60323  0.66880  1.0000
  I   I130      1.0  0.68024  0.85768  0.05085  1.0000
  I   I131      1.0  0.67778  0.87773  0.37121  1.0000
  I   I132      1.0  0.66997  0.89326  0.70625  1.0000
  I   I133      1.0  0.90552  0.15277  0.00163  1.0000
  I   I134      1.0  0.92017  0.14394  0.32684  1.0000
  I   I135      1.0  0.90354  0.15146  0.69092  1.0000
  I   I136      1.0  0.91712  0.37939  0.99547  1.0000
  I   I137      1.0  0.92899  0.37317  0.33892  1.0000
  I   I138      1.0  0.91813  0.37607  0.67203  1.0000
  I   I139      1.0  0.91573  0.62272  0.03325  1.0000
  I   I140      1.0  0.91192  0.61890  0.37885  1.0000
  I   I141      1.0  0.89498  0.62462  0.70491  1.0000
  I   I142      1.0  0.92696  0.85411  0.01556  1.0000
  I   I143      1.0  0.92744  0.87653  0.34847  1.0000
  I   I144      1.0  0.92887  0.86457  0.68506  1.0000
  I   I145      1.0  0.14399  0.05020  0.17256  1.0000
  I   I146      1.0  0.11758  0.06218  0.50568  1.0000
  I   I147      1.0  0.13582  0.05945  0.84567  1.0000
  I   I148      1.0  0.11634  0.34622  0.16156  1.0000
  I   I149      1.0  0.12077  0.33953  0.48969  1.0000
  I   I150      1.0  0.12935  0.32677  0.82567  1.0000
  I   I151      1.0  0.14224  0.57069  0.17627  1.0000
  I   I152      1.0  0.14953  0.55855  0.51877  1.0000
  I   I153      1.0  0.12484  0.57728  0.86060  1.0000
  I   I154      1.0  0.11397  0.83326  0.14003  1.0000
  I   I155      1.0  0.10089  0.82803  0.47895  1.0000
  I   I156      1.0  0.11264  0.83431  0.80885  1.0000
  I   I157      1.0  0.39181  0.07515  0.12967  1.0000
  I   I158      1.0  0.39491  0.07645  0.47091  1.0000
  I   I159      1.0  0.37358  0.07799  0.79327  1.0000
  I   I160      1.0  0.38086  0.31005  0.16199  1.0000
  I   I161      1.0  0.37450  0.32444  0.53325  1.0000
  I   I162      1.0  0.38067  0.33064  0.84102  1.0000
  I   I163      1.0  0.34719  0.61040  0.15865  1.0000
  I   I164      1.0  0.35232  0.60368  0.48497  1.0000
  I   I165      1.0  0.34952  0.60950  0.82426  1.0000
  I   I166      1.0  0.39273  0.83404  0.12797  1.0000
  I   I167      1.0  0.38783  0.82380  0.45157  1.0000
  I   I168      1.0  0.39441  0.82599  0.78439  1.0000
  I   I169      1.0  0.65644  0.05283  0.10102  1.0000
  I   I170      1.0  0.63991  0.06111  0.44121  1.0000
  I   I171      1.0  0.63883  0.05599  0.78317  1.0000
  I   I172      1.0  0.57663  0.37395  0.12834  1.0000
  I   I173      1.0  0.56859  0.36920  0.45637  1.0000
  I   I174      1.0  0.58542  0.36751  0.79836  1.0000
  I   I175      1.0  0.64488  0.57275  0.11055  1.0000
  I   I176      1.0  0.63510  0.57291  0.45323  1.0000
  I   I177      1.0  0.61974  0.57957  0.79986  1.0000
  I   I178      1.0  0.63185  0.82360  0.17698  1.0000
  I   I179      1.0  0.63877  0.82787  0.49738  1.0000
  I   I180      1.0  0.63290  0.82951  0.81503  1.0000
  I   I181      1.0  0.86171  0.09775  0.13792  1.0000
  I   I182      1.0  0.89622  0.08014  0.46336  1.0000
  I   I183      1.0  0.85702  0.10279  0.80285  1.0000
  I   I184      1.0  0.89457  0.31809  0.12296  1.0000
  I   I185      1.0  0.88378  0.32285  0.43897  1.0000
  I   I186      1.0  0.89556  0.31891  0.78988  1.0000
  I   I187      1.0  0.85448  0.57881  0.18053  1.0000
  I   I188      1.0  0.84887  0.58476  0.49069  1.0000
  I   I189      1.0  0.86338  0.57350  0.83295  1.0000
  I   I190      1.0  0.89205  0.80459  0.16136  1.0000
  I   I191      1.0  0.88589  0.81772  0.47224  1.0000
  I   I192      1.0  0.87530  0.81442  0.81238  1.0000
  I   I193      1.0  0.24138  0.05824  0.24971  1.0000
  I   I194      1.0  0.23284  0.02273  0.57405  1.0000
  I   I195      1.0  0.25068  0.04274  0.89738  1.0000
  I   I196      1.0  0.22646  0.32078  0.22145  1.0000
  I   I197      1.0  0.22157  0.33370  0.53921  1.0000
  I   I198      1.0  0.23419  0.31556  0.89757  1.0000
  I   I199      1.0  0.24364  0.56984  0.23362  1.0000
  I   I200      1.0  0.24711  0.55065  0.58642  1.0000
  I   I201      1.0  0.23122  0.57473  0.90021  1.0000
  I   I202      1.0  0.20679  0.84809  0.19836  1.0000
  I   I203      1.0  0.21487  0.81429  0.53221  1.0000
  I   I204      1.0  0.20257  0.83483  0.87098  1.0000
  I   I205      1.0  0.47951  0.08697  0.17291  1.0000
  I   I206      1.0  0.48119  0.10031  0.51541  1.0000
  I   I207      1.0  0.46040  0.10347  0.83571  1.0000
  I   I208      1.0  0.48023  0.29023  0.23062  1.0000
  I   I209      1.0  0.48929  0.31743  0.57510  1.0000
  I   I210      1.0  0.48424  0.31625  0.90337  1.0000
  I   I211      1.0  0.44076  0.62168  0.21359  1.0000
  I   I212      1.0  0.45519  0.58853  0.54562  1.0000
  I   I213      1.0  0.46289  0.59936  0.88128  1.0000
  I   I214      1.0  0.49574  0.82059  0.17293  1.0000
  I   I215      1.0  0.50791  0.78800  0.50175  1.0000
  I   I216      1.0  0.50384  0.82170  0.86704  1.0000
  I   I217      1.0  0.74250  0.08400  0.15287  1.0000
  I   I218      1.0  0.74316  0.04811  0.50857  1.0000
  I   I219      1.0  0.73808  0.05636  0.81781  1.0000
  I   I220      1.0  0.69760  0.33469  0.18238  1.0000
  I   I221      1.0  0.68288  0.31685  0.51852  1.0000
  I   I222      1.0  0.70161  0.35300  0.85182  1.0000
  I   I223      1.0  0.73650  0.56774  0.19315  1.0000
  I   I224      1.0  0.73606  0.56940  0.51793  1.0000
  I   I225      1.0  0.73320  0.56136  0.83596  1.0000
  I   I226      1.0  0.73532  0.82393  0.21740  1.0000
  I   I227      1.0  0.73282  0.83088  0.58126  1.0000
  I   I228      1.0  0.72632  0.84310  0.89048  1.0000
  I   I229      1.0  0.97264  0.08036  0.16053  1.0000
  I   I230      1.0  0.98106  0.08488  0.56966  1.0000
  I   I231      1.0  0.96711  0.08686  0.86957  1.0000
  I   I232      1.0  0.97866  0.35011  0.18375  1.0000
  I   I233      1.0  0.97805  0.34568  0.52930  1.0000
  I   I234      1.0  0.97756  0.34203  0.86136  1.0000
  I   I235      1.0  0.95986  0.56720  0.22274  1.0000
  I   I236      1.0  0.95777  0.56114  0.55966  1.0000
  I   I237      1.0  0.96099  0.57717  0.87317  1.0000
  I   I238      1.0  0.99193  0.81489  0.19226  1.0000
  I   I239      1.0  0.98921  0.82499  0.51694  1.0000
  I   I240      1.0  0.98523  0.81027  0.86044  1.0000
  I   I241      1.0  0.18929  0.99350  0.32337  1.0000
  I   I242      1.0  0.16891  0.99654  0.66993  1.0000
  I   I243      1.0  0.19865  0.98664  0.96901  1.0000
  I   I244      1.0  0.15688  0.28782  0.30657  1.0000
  I   I245      1.0  0.17336  0.27675  0.63691  1.0000
  I   I246      1.0  0.17080  0.26721  0.97033  1.0000
  I   I247      1.0  0.20981  0.50366  0.32257  1.0000
  I   I248      1.0  0.18824  0.50317  0.66752  1.0000
  I   I249      1.0  0.18381  0.51560  0.99768  1.0000
  I   I250      1.0  0.17665  0.78130  0.30070  1.0000
  I   I251      1.0  0.14802  0.77637  0.62750  1.0000
  I   I252      1.0  0.15510  0.77517  0.96436  1.0000
  I   I253      1.0  0.45033  0.01804  0.28020  1.0000
  I   I254      1.0  0.44964  0.03043  0.62578  1.0000
  I   I255      1.0  0.42719  0.02273  0.92233  1.0000
  I   I256      1.0  0.39875  0.26278  0.32066  1.0000
  I   I257      1.0  0.42257  0.26950  0.66710  1.0000
  I   I258      1.0  0.42519  0.27339  0.00309  1.0000
  I   I259      1.0  0.40492  0.53963  0.29557  1.0000
  I   I260      1.0  0.40334  0.55603  0.65489  1.0000
  I   I261      1.0  0.40529  0.56196  0.98253  1.0000
  I   I262      1.0  0.43904  0.77505  0.27785  1.0000
  I   I263      1.0  0.44060  0.76183  0.61211  1.0000
  I   I264      1.0  0.43877  0.77351  0.93439  1.0000
  I   I265      1.0  0.71876  0.00459  0.25461  1.0000
  I   I266      1.0  0.68552  0.00615  0.60820  1.0000
  I   I267      1.0  0.70255  0.99482  0.92664  1.0000
  I   I268      1.0  0.61851  0.30424  0.27019  1.0000
  I   I269      1.0  0.62003  0.29313  0.61839  1.0000
  I   I270      1.0  0.64713  0.30473  0.94777  1.0000
  I   I271      1.0  0.69070  0.50769  0.27651  1.0000
  I   I272      1.0  0.70512  0.50032  0.59962  1.0000
  I   I273      1.0  0.67532  0.51748  0.94081  1.0000
  I   I274      1.0  0.68117  0.76835  0.32002  1.0000
  I   I275      1.0  0.66596  0.78239  0.65218  1.0000
  I   I276      1.0  0.67879  0.76791  0.96465  1.0000
  I   I277      1.0  0.92952  0.02837  0.26247  1.0000
  I   I278      1.0  0.91156  0.03679  0.62350  1.0000
  I   I279      1.0  0.90722  0.04216  0.96103  1.0000
  I   I280      1.0  0.95542  0.26734  0.27751  1.0000
  I   I281      1.0  0.94496  0.26200  0.57775  1.0000
  I   I282      1.0  0.94145  0.26375  0.93864  1.0000
  I   I283      1.0  0.90768  0.51880  0.31951  1.0000
  I   I284      1.0  0.90091  0.51518  0.64578  1.0000
  I   I285      1.0  0.92890  0.51199  0.97508  1.0000
  I   I286      1.0  0.95527  0.75529  0.30271  1.0000
  I   I287      1.0  0.94662  0.75440  0.61342  1.0000
  I   I288      1.0  0.94115  0.75039  0.95132  1.0000
  I   I289      1.0  0.04485  0.15802  0.13893  1.0000
  I   I290      1.0  0.02849  0.17305  0.47341  1.0000
  I   I291      1.0  0.04389  0.18271  0.84079  1.0000
  I   I292      1.0  0.01976  0.45573  0.11467  1.0000
  I   I293      1.0  0.01836  0.43403  0.48098  1.0000
  I   I294      1.0  0.02767  0.42564  0.84917  1.0000
  I   I295      1.0  0.03247  0.66058  0.16469  1.0000
  I   I296      1.0  0.04995  0.64985  0.51638  1.0000
  I   I297      1.0  0.02428  0.67014  0.82664  1.0000
  I   I298      1.0  0.98572  0.93047  0.12211  1.0000
  I   I299      1.0  0.99220  0.92995  0.45971  1.0000
  I   I300      1.0  0.00882  0.92199  0.77703  1.0000
  I   I301      1.0  0.27595  0.14635  0.12763  1.0000
  I   I302      1.0  0.27991  0.14870  0.45053  1.0000
  I   I303      1.0  0.26151  0.14903  0.75188  1.0000
  I   I304      1.0  0.28288  0.40788  0.14482  1.0000
  I   I305      1.0  0.27962  0.42955  0.50443  1.0000
  I   I306      1.0  0.28786  0.43498  0.84254  1.0000
  I   I307      1.0  0.24980  0.71861  0.10972  1.0000
  I   I308      1.0  0.25356  0.69695  0.45900  1.0000
  I   I309      1.0  0.25258  0.70964  0.80208  1.0000
  I   I310      1.0  0.28964  0.92490  0.09765  1.0000
  I   I311      1.0  0.29204  0.92421  0.44598  1.0000
  I   I312      1.0  0.30128  0.92471  0.75547  1.0000
  I   I313      1.0  0.54331  0.14622  0.09189  1.0000
  I   I314      1.0  0.53619  0.14368  0.40886  1.0000
  I   I315      1.0  0.53416  0.13659  0.75790  1.0000
  I   I316      1.0  0.49812  0.48627  0.11624  1.0000
  I   I317      1.0  0.49064  0.47492  0.44416  1.0000
  I   I318      1.0  0.48466  0.46473  0.78800  1.0000
  I   I319      1.0  0.53251  0.66090  0.09702  1.0000
  I   I320      1.0  0.53510  0.67642  0.44176  1.0000
  I   I321      1.0  0.53000  0.68075  0.77002  1.0000
  I   I322      1.0  0.52005  0.92604  0.14533  1.0000
  I   I323      1.0  0.52493  0.91809  0.49156  1.0000
  I   I324      1.0  0.52860  0.92591  0.82785  1.0000
  I   I325      1.0  0.76475  0.19456  0.14485  1.0000
  I   I326      1.0  0.78231  0.16745  0.46580  1.0000
  I   I327      1.0  0.75165  0.19840  0.78498  1.0000
  I   I328      1.0  0.78607  0.38142  0.11134  1.0000
  I   I329      1.0  0.77119  0.42083  0.41525  1.0000
  I   I330      1.0  0.77292  0.41099  0.77249  1.0000
  I   I331      1.0  0.76202  0.68918  0.14463  1.0000
  I   I332      1.0  0.75513  0.69624  0.47544  1.0000
  I   I333      1.0  0.75618  0.67194  0.83670  1.0000
  I   I334      1.0  0.78365  0.90193  0.12967  1.0000
  I   I335      1.0  0.78410  0.91760  0.46770  1.0000
  I   I336      1.0  0.77579  0.90187  0.77720  1.0000
  I   I337      1.0  0.11413  0.19868  0.06322  1.0000
  I   I338      1.0  0.10682  0.20953  0.39947  1.0000
  I   I339      1.0  0.12846  0.19211  0.73977  1.0000
  I   I340      1.0  0.10012  0.47758  0.03718  1.0000
  I   I341      1.0  0.06427  0.49012  0.39083  1.0000
  I   I342      1.0  0.08030  0.48242  0.74160  1.0000
  I   I343      1.0  0.06908  0.72891  0.07270  1.0000
  I   I344      1.0  0.08281  0.71261  0.41813  1.0000
  I   I345      1.0  0.08313  0.71990  0.73288  1.0000
  I   I346      1.0  0.03481  0.98689  0.02515  1.0000
  I   I347      1.0  0.04691  0.98660  0.37752  1.0000
  I   I348      1.0  0.05816  0.98260  0.68571  1.0000
  I   I349      1.0  0.29542  0.23344  0.03990  1.0000
  I   I350      1.0  0.31579  0.21956  0.35603  1.0000
  I   I351      1.0  0.30429  0.22640  0.67943  1.0000
  I   I352      1.0  0.33490  0.47397  0.08820  1.0000
  I   I353      1.0  0.34492  0.46168  0.40106  1.0000
  I   I354      1.0  0.35196  0.48537  0.76417  1.0000
  I   I355      1.0  0.29274  0.77290  0.00244  1.0000
  I   I356      1.0  0.30124  0.75777  0.37154  1.0000
  I   I357      1.0  0.30071  0.76029  0.69606  1.0000
  I   I358      1.0  0.34594  0.98134  0.00911  1.0000
  I   I359      1.0  0.34349  0.97638  0.36718  1.0000
  I   I360      1.0  0.35414  0.97406  0.66964  1.0000
  I   I361      1.0  0.58341  0.21605  0.01460  1.0000
  I   I362      1.0  0.57997  0.21306  0.34724  1.0000
  I   I363      1.0  0.58563  0.20331  0.67410  1.0000
  I   I364      1.0  0.57104  0.51780  0.01951  1.0000
  I   I365      1.0  0.57097  0.50477  0.35362  1.0000
  I   I366      1.0  0.54737  0.50508  0.68044  1.0000
  I   I367      1.0  0.57484  0.73021  0.02799  1.0000
  I   I368      1.0  0.58132  0.73213  0.33652  1.0000
  I   I369      1.0  0.58204  0.72127  0.66617  1.0000
  I   I370      1.0  0.57540  0.97536  0.06232  1.0000
  I   I371      1.0  0.57327  0.98069  0.39135  1.0000
  I   I372      1.0  0.55780  0.99355  0.72987  1.0000
  I   I373      1.0  0.80959  0.24793  0.03245  1.0000
  I   I374      1.0  0.81808  0.23820  0.38436  1.0000
  I   I375      1.0  0.80094  0.24998  0.68471  1.0000
  I   I376      1.0  0.80680  0.46165  0.99918  1.0000
  I   I377      1.0  0.82480  0.47153  0.32429  1.0000
  I   I378      1.0  0.81806  0.48075  0.69876  1.0000
  I   I379      1.0  0.82959  0.72637  0.05677  1.0000
  I   I380      1.0  0.82741  0.73510  0.40539  1.0000
  I   I381      1.0  0.79034  0.73062  0.73427  1.0000
  I   I382      1.0  0.81773  0.96282  0.03871  1.0000
  I   I383      1.0  0.82053  0.97956  0.37266  1.0000
  I   I384      1.0  0.82089  0.97194  0.69662  1.0000
