data_image0
_chemical_formula_structural       Ti96I384
_chemical_formula_sum              "Ti96 I384"
_cell_length_a       47.6068
_cell_length_b       47.2137
_cell_length_c       23.1398
_cell_angle_alpha    88.7757
_cell_angle_beta     88.7757
_cell_angle_gamma    62.1586

_space_group_name_H-M_alt    "P 1"
_space_group_IT_number       1

loop_
  _space_group_symop_operation_xyz
  'x, y, z'

loop_
  _atom_site_type_symbol
  _atom_site_label
  _atom_site_symmetry_multiplicity
  _atom_site_fract_x
  _atom_site_fract_y
  _atom_site_fract_z
  _atom_site_occupancy
  Ti  Ti1       1.0  0.43550  0.97964  0.47858  1.0000
  Ti  Ti2       1.0  0.19101  0.01492  0.96662  1.0000
  Ti  Ti3       1.0  0.32811  0.01496  0.19382  1.0000
  Ti  Ti4       1.0  0.22724  0.17521  0.35347  1.0000
  Ti  Ti5       1.0  0.17057  0.29199  0.80092  1.0000
  Ti  Ti6       1.0  0.16778  0.18984  0.02734  1.0000
  Ti  Ti7       1.0  0.01831  0.61403  0.44193  1.0000
  Ti  Ti8       1.0  0.94305  0.78091  0.71893  1.0000
  Ti  Ti9       1.0  0.92487  0.76931  0.22554  1.0000
  Ti  Ti10      1.0  0.06232  0.84884  0.22130  1.0000
  Ti  Ti11      1.0  0.07869  0.90100  0.66357  1.0000
  Ti  Ti12      1.0  0.11902  0.74803  0.83802  1.0000
  Ti  Ti13      1.0  0.37053  0.27470  0.17041  1.0000
  Ti  Ti14      1.0  0.42590  0.13904  0.59949  1.0000
  Ti  Ti15      1.0  0.34530  0.20886  0.00033  1.0000
  Ti  Ti16      1.0  0.31965  0.56495  0.02975  1.0000
  Ti  Ti17      1.0  0.20881  0.51987  0.24383  1.0000
  Ti  Ti18      1.0  0.36821  0.47646  0.68925  1.0000
  Ti  Ti19      1.0  0.33826  0.76927  0.23412  1.0000
  Ti  Ti20      1.0  0.46795  0.62999  0.80840  1.0000
  Ti  Ti21      1.0  0.25388  0.73561  0.41711  1.0000
  Ti  Ti22      1.0  0.34152  0.84448  0.72535  1.0000
  Ti  Ti23      1.0  0.50131  0.83559  0.04058  1.0000
  Ti  Ti24      1.0  0.44553  0.75725  0.52469  1.0000
  Ti  Ti25      1.0  0.59110  0.23933  0.52432  1.0000
  Ti  Ti26      1.0  0.60459  0.22556  0.86415  1.0000
  Ti  Ti27      1.0  0.58945  0.21215  0.19385  1.0000
  Ti  Ti28      1.0  0.65367  0.38423  0.23156  1.0000
  Ti  Ti29      1.0  0.67173  0.43179  0.61320  1.0000
  Ti  Ti30      1.0  0.67491  0.38477  0.90037  1.0000
  Ti  Ti31      1.0  0.65590  0.58265  0.26896  1.0000
  Ti  Ti32      1.0  0.76947  0.55121  0.63821  1.0000
  Ti  Ti33      1.0  0.71636  0.52439  0.97064  1.0000
  Ti  Ti34      1.0  0.82807  0.65122  0.98454  1.0000
  Ti  Ti35      1.0  0.75113  0.82403  0.29215  1.0000
  Ti  Ti36      1.0  0.73286  0.74059  0.72278  1.0000
  Ti  Ti37      1.0  0.84985  0.12696  0.98820  1.0000
  Ti  Ti38      1.0  0.83929  0.14095  0.33341  1.0000
  Ti  Ti39      1.0  0.83733  0.13097  0.67067  1.0000
  Ti  Ti40      1.0  0.99416  0.28843  0.11591  1.0000
  Ti  Ti41      1.0  0.97369  0.32449  0.48951  1.0000
  Ti  Ti42      1.0  0.03505  0.09331  0.57804  1.0000
  Ti  Ti43      1.0  0.91709  0.49828  0.30043  1.0000
  Ti  Ti44      1.0  0.98372  0.45731  0.61016  1.0000
  Ti  Ti45      1.0  0.02252  0.49081  0.90390  1.0000
  Ti  Ti46      1.0  0.78721  0.99761  0.36298  1.0000
  Ti  Ti47      1.0  0.74335  0.03906  0.72093  1.0000
  Ti  Ti48      1.0  0.67351  0.02573  0.98653  1.0000
  Ti  Ti49      1.0  0.34744  0.99279  0.39341  1.0000
  Ti  Ti50      1.0  0.11757  0.04969  0.87320  1.0000
  Ti  Ti51      1.0  0.22781  0.02235  0.15401  1.0000
  Ti  Ti52      1.0  0.14891  0.21472  0.28430  1.0000
  Ti  Ti53      1.0  0.13209  0.30317  0.62403  1.0000
  Ti  Ti54      1.0  0.11453  0.24377  0.87995  1.0000
  Ti  Ti55      1.0  0.96602  0.67318  0.30719  1.0000
  Ti  Ti56      1.0  0.95809  0.84531  0.71303  1.0000
  Ti  Ti57      1.0  0.90876  0.79694  0.06967  1.0000
  Ti  Ti58      1.0  0.01424  0.93574  0.15302  1.0000
  Ti  Ti59      1.0  0.01616  0.85602  0.36708  1.0000
  Ti  Ti60      1.0  0.12609  0.81508  0.76426  1.0000
  Ti  Ti61      1.0  0.30667  0.30541  0.02696  1.0000
  Ti  Ti62      1.0  0.33834  0.31818  0.32428  1.0000
  Ti  Ti63      1.0  0.35421  0.20907  0.56627  1.0000
  Ti  Ti64      1.0  0.37027  0.48208  0.83604  1.0000
  Ti  Ti65      1.0  0.26699  0.50484  0.06472  1.0000
  Ti  Ti66      1.0  0.16246  0.46433  0.32293  1.0000
  Ti  Ti67      1.0  0.23789  0.79850  0.24947  1.0000
  Ti  Ti68      1.0  0.50760  0.59031  0.93676  1.0000
  Ti  Ti69      1.0  0.21063  0.67678  0.44470  1.0000
  Ti  Ti70      1.0  0.34651  0.81190  0.56185  1.0000
  Ti  Ti71      1.0  0.49607  0.86615  0.87422  1.0000
  Ti  Ti72      1.0  0.53716  0.79136  0.18668  1.0000
  Ti  Ti73      1.0  0.53155  0.23563  0.37172  1.0000
  Ti  Ti74      1.0  0.54950  0.22130  0.70864  1.0000
  Ti  Ti75      1.0  0.56223  0.19716  0.02780  1.0000
  Ti  Ti76      1.0  0.61694  0.39661  0.06446  1.0000
  Ti  Ti77      1.0  0.56754  0.41234  0.29407  1.0000
  Ti  Ti78      1.0  0.60762  0.42524  0.75295  1.0000
  Ti  Ti79      1.0  0.65515  0.60998  0.08302  1.0000
  Ti  Ti80      1.0  0.63062  0.65160  0.39078  1.0000
  Ti  Ti81      1.0  0.71823  0.56354  0.79166  1.0000
  Ti  Ti82      1.0  0.75868  0.72162  0.89475  1.0000
  Ti  Ti83      1.0  0.66913  0.83779  0.22748  1.0000
  Ti  Ti84      1.0  0.65062  0.84395  0.69890  1.0000
  Ti  Ti85      1.0  0.81057  0.19048  0.82504  1.0000
  Ti  Ti86      1.0  0.80337  0.19654  0.15821  1.0000
  Ti  Ti87      1.0  0.82453  0.18284  0.51636  1.0000
  Ti  Ti88      1.0  0.90407  0.31416  0.10873  1.0000
  Ti  Ti89      1.0  0.89954  0.32049  0.49452  1.0000
  Ti  Ti90      1.0  0.03497  0.02759  0.44858  1.0000
  Ti  Ti91      1.0  0.01413  0.57736  0.90220  1.0000
  Ti  Ti92      1.0  0.92968  0.50971  0.45104  1.0000
  Ti  Ti93      1.0  0.99049  0.53467  0.70723  1.0000
  Ti  Ti94      1.0  0.64726  0.01591  0.13693  1.0000
  Ti  Ti95      1.0  0.77056  0.99303  0.53461  1.0000
  Ti  Ti96      1.0  0.69097  0.99405  0.79934  1.0000
  I   I1        1.0  0.12949  0.02851  0.77004  1.0000
  I   I2        1.0  0.18959  0.99091  0.07590  1.0000
  I   I3        1.0  0.32805  0.97518  0.29964  1.0000
  I   I4        1.0  0.15976  0.24443  0.57587  1.0000
  I   I5        1.0  0.14367  0.24543  0.77824  1.0000
  I   I6        1.0  0.14588  0.19233  0.13975  1.0000
  I   I7        1.0  0.99324  0.86337  0.76661  1.0000
  I   I8        1.0  0.93622  0.81983  0.80462  1.0000
  I   I9        1.0  0.99528  0.70213  0.24123  1.0000
  I   I10       1.0  0.07869  0.84936  0.32975  1.0000
  I   I11       1.0  0.16587  0.83997  0.79081  1.0000
  I   I12       1.0  0.95720  0.95657  0.11644  1.0000
  I   I13       1.0  0.31122  0.32150  0.22049  1.0000
  I   I14       1.0  0.36894  0.13865  0.55531  1.0000
  I   I15       1.0  0.27187  0.27509  0.98571  1.0000
  I   I16       1.0  0.32521  0.49479  0.03074  1.0000
  I   I17       1.0  0.21793  0.45040  0.25990  1.0000
  I   I18       1.0  0.42459  0.44336  0.77762  1.0000
  I   I19       1.0  0.46186  0.65919  0.91760  1.0000
  I   I20       1.0  0.14931  0.70169  0.46620  1.0000
  I   I21       1.0  0.20753  0.79937  0.35902  1.0000
  I   I22       1.0  0.45301  0.90126  0.79857  1.0000
  I   I23       1.0  0.47224  0.89814  0.99460  1.0000
  I   I24       1.0  0.31029  0.83888  0.47420  1.0000
  I   I25       1.0  0.57422  0.19171  0.57625  1.0000
  I   I26       1.0  0.59468  0.17278  0.92341  1.0000
  I   I27       1.0  0.55894  0.19068  0.26548  1.0000
  I   I28       1.0  0.61550  0.35166  0.26120  1.0000
  I   I29       1.0  0.62836  0.40904  0.62195  1.0000
  I   I30       1.0  0.64056  0.35588  0.95885  1.0000
  I   I31       1.0  0.60157  0.63845  0.29624  1.0000
  I   I32       1.0  0.71291  0.55226  0.67084  1.0000
  I   I33       1.0  0.64747  0.58137  0.98912  1.0000
  I   I34       1.0  0.65800  0.83065  0.11929  1.0000
  I   I35       1.0  0.64210  0.85410  0.58751  1.0000
  I   I36       1.0  0.73153  0.70397  0.80443  1.0000
  I   I37       1.0  0.78604  0.17997  0.05457  1.0000
  I   I38       1.0  0.79214  0.17723  0.42119  1.0000
  I   I39       1.0  0.78660  0.18338  0.72014  1.0000
  I   I40       1.0  0.85487  0.36087  0.42985  1.0000
  I   I41       1.0  0.08818  0.99137  0.38848  1.0000
  I   I42       1.0  0.93484  0.35309  0.10564  1.0000
  I   I43       1.0  0.87011  0.51877  0.40947  1.0000
  I   I44       1.0  0.94774  0.52237  0.64732  1.0000
  I   I45       1.0  0.97475  0.55150  0.94965  1.0000
  I   I46       1.0  0.82637  0.96109  0.45867  1.0000
  I   I47       1.0  0.74442  0.97674  0.74410  1.0000
  I   I48       1.0  0.67177  0.97093  0.04450  1.0000
  I   I49       1.0  0.37014  0.03360  0.44990  1.0000
  I   I50       1.0  0.12789  0.06343  0.98353  1.0000
  I   I51       1.0  0.25374  0.05536  0.21325  1.0000
  I   I52       1.0  0.16924  0.23081  0.37218  1.0000
  I   I53       1.0  0.11492  0.33587  0.74263  1.0000
  I   I54       1.0  0.10628  0.23391  0.99372  1.0000
  I   I55       1.0  0.93502  0.65781  0.39003  1.0000
  I   I56       1.0  0.92495  0.81783  0.62290  1.0000
  I   I57       1.0  0.90376  0.74649  0.13256  1.0000
  I   I58       1.0  0.11538  0.80042  0.18300  1.0000
  I   I59       1.0  0.01760  0.89426  0.44679  1.0000
  I   I60       1.0  0.08300  0.79182  0.73876  1.0000
  I   I61       1.0  0.35413  0.31893  0.07181  1.0000
  I   I62       1.0  0.38141  0.32185  0.38656  1.0000
  I   I63       1.0  0.35637  0.26023  0.58832  1.0000
  I   I64       1.0  0.30446  0.55873  0.91955  1.0000
  I   I65       1.0  0.20899  0.51719  0.11144  1.0000
  I   I66       1.0  0.10135  0.49312  0.34122  1.0000
  I   I67       1.0  0.28248  0.78527  0.16216  1.0000
  I   I68       1.0  0.40800  0.67206  0.81072  1.0000
  I   I69       1.0  0.22688  0.70316  0.35748  1.0000
  I   I70       1.0  0.38931  0.79749  0.66495  1.0000
  I   I71       1.0  0.55554  0.82323  0.96342  1.0000
  I   I72       1.0  0.49861  0.77257  0.23653  1.0000
  I   I73       1.0  0.53299  0.27162  0.46622  1.0000
  I   I74       1.0  0.53963  0.25446  0.80382  1.0000
  I   I75       1.0  0.53583  0.24269  0.10984  1.0000
  I   I76       1.0  0.59553  0.43313  0.17490  1.0000
  I   I77       1.0  0.52055  0.41368  0.23006  1.0000
  I   I78       1.0  0.59324  0.43301  0.86914  1.0000
  I   I79       1.0  0.68355  0.61410  0.19427  1.0000
  I   I80       1.0  0.66944  0.66723  0.44529  1.0000
  I   I81       1.0  0.72471  0.57405  0.91583  1.0000
  I   I82       1.0  0.80660  0.72260  0.95086  1.0000
  I   I83       1.0  0.70966  0.86464  0.19023  1.0000
  I   I84       1.0  0.68252  0.79236  0.78890  1.0000
  I   I85       1.0  0.84744  0.18071  0.92826  1.0000
  I   I86       1.0  0.82526  0.19664  0.27432  1.0000
  I   I87       1.0  0.86261  0.17611  0.60872  1.0000
  I   I88       1.0  0.87228  0.28399  0.07392  1.0000
  I   I89       1.0  0.95605  0.28138  0.55422  1.0000
  I   I90       1.0  0.00693  0.09675  0.47525  1.0000
  I   I91       1.0  0.00833  0.60013  0.00955  1.0000
  I   I92       1.0  0.98982  0.47958  0.49573  1.0000
  I   I93       1.0  0.03316  0.53333  0.80529  1.0000
  I   I94       1.0  0.59586  0.01160  0.14928  1.0000
  I   I95       1.0  0.71718  0.03336  0.60226  1.0000
  I   I96       1.0  0.63513  0.02129  0.88425  1.0000
  I   I97       1.0  0.36093  0.03153  0.26969  1.0000
  I   I98       1.0  0.43246  0.00141  0.57933  1.0000
  I   I99       1.0  0.23483  0.03276  0.03730  1.0000
  I   I100      1.0  0.20914  0.19754  0.22847  1.0000
  I   I101      1.0  0.23884  0.13707  0.44219  1.0000
  I   I102      1.0  0.15022  0.29033  0.90336  1.0000
  I   I103      1.0  0.90590  0.73635  0.28982  1.0000
  I   I104      1.0  0.03086  0.55288  0.45346  1.0000
  I   I105      1.0  0.85538  0.81450  0.01539  1.0000
  I   I106      1.0  0.07817  0.75084  0.91356  1.0000
  I   I107      1.0  0.03177  0.81239  0.27419  1.0000
  I   I108      1.0  0.07387  0.87851  0.77538  1.0000
  I   I109      1.0  0.36015  0.26046  0.97241  1.0000
  I   I110      1.0  0.39273  0.30814  0.23679  1.0000
  I   I111      1.0  0.34679  0.19330  0.67140  1.0000
  I   I112      1.0  0.37614  0.52385  0.73700  1.0000
  I   I113      1.0  0.26500  0.57881  0.08095  1.0000
  I   I114      1.0  0.14880  0.52369  0.26814  1.0000
  I   I115      1.0  0.28412  0.73959  0.30923  1.0000
  I   I116      1.0  0.37759  0.72751  0.16187  1.0000
  I   I117      1.0  0.45585  0.59993  0.72827  1.0000
  I   I118      1.0  0.39039  0.75396  0.50446  1.0000
  I   I119      1.0  0.34055  0.90136  0.71579  1.0000
  I   I120      1.0  0.54893  0.83230  0.10918  1.0000
  I   I121      1.0  0.54274  0.26948  0.27850  1.0000
  I   I122      1.0  0.56751  0.26496  0.64880  1.0000
  I   I123      1.0  0.58292  0.25336  0.95993  1.0000
  I   I124      1.0  0.65378  0.42015  0.00036  1.0000
  I   I125      1.0  0.63042  0.40655  0.33888  1.0000
  I   I126      1.0  0.64115  0.45839  0.72622  1.0000
  I   I127      1.0  0.72255  0.55087  0.07100  1.0000
  I   I128      1.0  0.67180  0.58451  0.38811  1.0000
  I   I129      1.0  0.78111  0.50814  0.76347  1.0000
  I   I130      1.0  0.77215  0.75371  0.81210  1.0000
  I   I131      1.0  0.84438  0.66069  0.08820  1.0000
  I   I132      1.0  0.70859  0.85233  0.36804  1.0000
  I   I133      1.0  0.86414  0.13845  0.77458  1.0000
  I   I134      1.0  0.86275  0.15327  0.09629  1.0000
  I   I135      1.0  0.87732  0.13720  0.43382  1.0000
  I   I136      1.0  0.08180  0.10730  0.60289  1.0000
  I   I137      1.0  0.01802  0.31584  0.04607  1.0000
  I   I138      1.0  0.02284  0.26728  0.46472  1.0000
  I   I139      1.0  0.06285  0.49738  0.96150  1.0000
  I   I140      1.0  0.94956  0.45239  0.38239  1.0000
  I   I141      1.0  0.02892  0.47102  0.66539  1.0000
  I   I142      1.0  0.61762  0.06300  0.03094  1.0000
  I   I143      1.0  0.77432  0.03832  0.46890  1.0000
  I   I144      1.0  0.68370  0.06396  0.77110  1.0000
  I   I145      1.0  0.41540  0.96194  0.37337  1.0000
  I   I146      1.0  0.16491  0.98475  0.91779  1.0000
  I   I147      1.0  0.29441  0.98197  0.14790  1.0000
  I   I148      1.0  0.18402  0.14609  0.30714  1.0000
  I   I149      1.0  0.18943  0.28549  0.67579  1.0000
  I   I150      1.0  0.17135  0.18859  0.90973  1.0000
  I   I151      1.0  0.00035  0.67665  0.40145  1.0000
  I   I152      1.0  0.88942  0.77331  0.71043  1.0000
  I   I153      1.0  0.96305  0.77947  0.14019  1.0000
  I   I154      1.0  0.08714  0.88672  0.18697  1.0000
  I   I155      1.0  0.01637  0.92703  0.66942  1.0000
  I   I156      1.0  0.11390  0.80759  0.87278  1.0000
  I   I157      1.0  0.33230  0.24617  0.12151  1.0000
  I   I158      1.0  0.47148  0.09201  0.53829  1.0000
  I   I159      1.0  0.36167  0.18572  0.89181  1.0000
  I   I160      1.0  0.39951  0.50247  0.90041  1.0000
  I   I161      1.0  0.26861  0.50441  0.18379  1.0000
  I   I162      1.0  0.35791  0.42677  0.69885  1.0000
  I   I163      1.0  0.28132  0.81666  0.29561  1.0000
  I   I164      1.0  0.54106  0.53016  0.96060  1.0000
  I   I165      1.0  0.20780  0.73151  0.48850  1.0000
  I   I166      1.0  0.31631  0.78304  0.60858  1.0000
  I   I167      1.0  0.46395  0.84090  0.94334  1.0000
  I   I168      1.0  0.46757  0.74649  0.41824  1.0000
  I   I169      1.0  0.59609  0.22302  0.40343  1.0000
  I   I170      1.0  0.61214  0.19515  0.75698  1.0000
  I   I171      1.0  0.61249  0.18100  0.09752  1.0000
  I   I172      1.0  0.68125  0.35586  0.11389  1.0000
  I   I173      1.0  0.72448  0.42775  0.64494  1.0000
  I   I174      1.0  0.66294  0.37201  0.79534  1.0000
  I   I175      1.0  0.64922  0.56121  0.15876  1.0000
  I   I176      1.0  0.74661  0.59099  0.55071  1.0000
  I   I177      1.0  0.71217  0.51304  0.85373  1.0000
  I   I178      1.0  0.80771  0.66062  0.85830  1.0000
  I   I179      1.0  0.72948  0.78551  0.23622  1.0000
  I   I180      1.0  0.69827  0.72053  0.66063  1.0000
  I   I181      1.0  0.81604  0.12968  0.88558  1.0000
  I   I182      1.0  0.80117  0.14817  0.22944  1.0000
  I   I183      1.0  0.81297  0.12536  0.56397  1.0000
  I   I184      1.0  0.95644  0.26790  0.05225  1.0000
  I   I185      1.0  0.94140  0.33009  0.39566  1.0000
  I   I186      1.0  0.08248  0.02976  0.51873  1.0000
  I   I187      1.0  0.88022  0.55748  0.26188  1.0000
  I   I188      1.0  0.92462  0.47390  0.55348  1.0000
  I   I189      1.0  0.97838  0.50713  0.80955  1.0000
  I   I190      1.0  0.79789  0.94426  0.31183  1.0000
  I   I191      1.0  0.79543  0.00796  0.63639  1.0000
  I   I192      1.0  0.71898  0.99587  0.90583  1.0000
  I   I193      1.0  0.48365  0.97758  0.41594  1.0000
  I   I194      1.0  0.19562  0.05208  0.88035  1.0000
  I   I195      1.0  0.32510  0.05035  0.10292  1.0000
  I   I196      1.0  0.25218  0.21217  0.39214  1.0000
  I   I197      1.0  0.19463  0.33406  0.79265  1.0000
  I   I198      1.0  0.18490  0.23222  0.04511  1.0000
  I   I199      1.0  0.99478  0.63918  0.54594  1.0000
  I   I200      1.0  0.00626  0.77543  0.71880  1.0000
  I   I201      1.0  0.88173  0.82570  0.19938  1.0000
  I   I202      1.0  0.03534  0.86081  0.11256  1.0000
  I   I203      1.0  0.09235  0.94569  0.68259  1.0000
  I   I204      1.0  0.17429  0.71713  0.89264  1.0000
  I   I205      1.0  0.42759  0.23347  0.13319  1.0000
  I   I206      1.0  0.45353  0.16780  0.65984  1.0000
  I   I207      1.0  0.39751  0.17302  0.05708  1.0000
  I   I208      1.0  0.31947  0.61748  0.00998  1.0000
  I   I209      1.0  0.18226  0.58016  0.22960  1.0000
  I   I210      1.0  0.33663  0.51250  0.60010  1.0000
  I   I211      1.0  0.37926  0.74279  0.31769  1.0000
  I   I212      1.0  0.53882  0.59219  0.83646  1.0000
  I   I213      1.0  0.29661  0.68379  0.45993  1.0000
  I   I214      1.0  0.37912  0.82244  0.81090  1.0000
  I   I215      1.0  0.52090  0.77122  0.07600  1.0000
  I   I216      1.0  0.49582  0.75326  0.56982  1.0000
  I   I217      1.0  0.60306  0.28880  0.49387  1.0000
  I   I218      1.0  0.61791  0.26957  0.81193  1.0000
  I   I219      1.0  0.61017  0.25302  0.16322  1.0000
  I   I220      1.0  0.67876  0.42248  0.23377  1.0000
  I   I221      1.0  0.68957  0.40554  0.51440  1.0000
  I   I222      1.0  0.69593  0.42312  0.86683  1.0000
  I   I223      1.0  0.71424  0.53573  0.26960  1.0000
  I   I224      1.0  0.81469  0.56636  0.67349  1.0000
  I   I225      1.0  0.77643  0.48498  0.94839  1.0000
  I   I226      1.0  0.88163  0.64683  0.93673  1.0000
  I   I227      1.0  0.78729  0.85091  0.27528  1.0000
  I   I228      1.0  0.71702  0.80306  0.65835  1.0000
  I   I229      1.0  0.91467  0.09476  0.96874  1.0000
  I   I230      1.0  0.88812  0.10114  0.27777  1.0000
  I   I231      1.0  0.89077  0.08800  0.62798  1.0000
  I   I232      1.0  0.04057  0.23468  0.14386  1.0000
  I   I233      1.0  0.91978  0.36221  0.54429  1.0000
  I   I234      1.0  0.02496  0.06188  0.65710  1.0000
  I   I235      1.0  0.95443  0.48617  0.21091  1.0000
  I   I236      1.0  0.03064  0.40200  0.56325  1.0000
  I   I237      1.0  0.05656  0.43966  0.82965  1.0000
  I   I238      1.0  0.73902  0.02534  0.29314  1.0000
  I   I239      1.0  0.73885  0.09573  0.69757  1.0000
  I   I240      1.0  0.68539  0.07741  0.95909  1.0000
  I   I241      1.0  0.46673  0.91980  0.50199  1.0000
  I   I242      1.0  0.24947  0.96331  0.94437  1.0000
  I   I243      1.0  0.38283  0.97543  0.13823  1.0000
  I   I244      1.0  0.27279  0.12897  0.29134  1.0000
  I   I245      1.0  0.22641  0.24527  0.80825  1.0000
  I   I246      1.0  0.21748  0.13792  0.03969  1.0000
  I   I247      1.0  0.07692  0.59793  0.45106  1.0000
  I   I248      1.0  0.97155  0.71974  0.77065  1.0000
  I   I249      1.0  0.94893  0.78603  0.31769  1.0000
  I   I250      1.0  0.99992  0.90428  0.24589  1.0000
  I   I251      1.0  0.08283  0.90961  0.54599  1.0000
  I   I252      1.0  0.12958  0.69591  0.77902  1.0000
  I   I253      1.0  0.37412  0.24459  0.27583  1.0000
  I   I254      1.0  0.42277  0.10714  0.68882  1.0000
  I   I255      1.0  0.30938  0.18299  0.03119  1.0000
  I   I256      1.0  0.36431  0.53921  0.11752  1.0000
  I   I257      1.0  0.22691  0.51127  0.35031  1.0000
  I   I258      1.0  0.41516  0.45432  0.61516  1.0000
  I   I259      1.0  0.35149  0.81461  0.19302  1.0000
  I   I260      1.0  0.48326  0.67318  0.76799  1.0000
  I   I261      1.0  0.25087  0.77385  0.50713  1.0000
  I   I262      1.0  0.29342  0.86126  0.79068  1.0000
  I   I263      1.0  0.46642  0.85464  0.15090  1.0000
  I   I264      1.0  0.47079  0.69386  0.53742  1.0000
  I   I265      1.0  0.65099  0.20258  0.53910  1.0000
  I   I266      1.0  0.66438  0.18826  0.89818  1.0000
  I   I267      1.0  0.64140  0.16808  0.24522  1.0000
  I   I268      1.0  0.70286  0.33401  0.27521  1.0000
  I   I269      1.0  0.63536  0.48726  0.56313  1.0000
  I   I270      1.0  0.72713  0.33489  0.92744  1.0000
  I   I271      1.0  0.62214  0.54939  0.29516  1.0000
  I   I272      1.0  0.79262  0.50386  0.56921  1.0000
  I   I273      1.0  0.69189  0.48632  0.01095  1.0000
  I   I274      1.0  0.83956  0.59258  0.99451  1.0000
  I   I275      1.0  0.78880  0.77095  0.34696  1.0000
  I   I276      1.0  0.78820  0.70716  0.67611  1.0000
  I   I277      1.0  0.84187  0.07992  0.03720  1.0000
  I   I278      1.0  0.83280  0.08934  0.36949  1.0000
  I   I279      1.0  0.81619  0.09964  0.74032  1.0000
  I   I280      1.0  0.99225  0.31824  0.21676  1.0000
  I   I281      1.0  0.99796  0.36037  0.45186  1.0000
  I   I282      1.0  0.98527  0.14620  0.60709  1.0000
  I   I283      1.0  0.88705  0.46436  0.28805  1.0000
  I   I284      1.0  0.96037  0.42369  0.67322  1.0000
  I   I285      1.0  0.00989  0.45601  0.98340  1.0000
  I   I286      1.0  0.82442  0.01403  0.30363  1.0000
  I   I287      1.0  0.77357  0.03328  0.81525  1.0000
  I   I288      1.0  0.70019  0.02675  0.09221  1.0000
  I   I289      1.0  0.34995  0.95888  0.48547  1.0000
  I   I290      1.0  0.06715  0.04349  0.89151  1.0000
  I   I291      1.0  0.22288  0.97862  0.22052  1.0000
  I   I292      1.0  0.09808  0.21189  0.30434  1.0000
  I   I293      1.0  0.07817  0.29892  0.62368  1.0000
  I   I294      1.0  0.08836  0.21257  0.82972  1.0000
  I   I295      1.0  0.02375  0.61260  0.30214  1.0000
  I   I296      1.0  0.97784  0.85042  0.60729  1.0000
  I   I297      1.0  0.89531  0.85854  0.06236  1.0000
  I   I298      1.0  0.01177  0.98764  0.19609  1.0000
  I   I299      1.0  0.03982  0.80519  0.43206  1.0000
  I   I300      1.0  0.17686  0.75950  0.75555  1.0000
  I   I301      1.0  0.25728  0.33774  0.09042  1.0000
  I   I302      1.0  0.31074  0.28583  0.38373  1.0000
  I   I303      1.0  0.30001  0.22648  0.52499  1.0000
  I   I304      1.0  0.36617  0.44263  0.91038  1.0000
  I   I305      1.0  0.27913  0.44685  0.03262  1.0000
  I   I306      1.0  0.18432  0.46445  0.42321  1.0000
  I   I307      1.0  0.19705  0.86031  0.22112  1.0000
  I   I308      1.0  0.45776  0.57882  0.90564  1.0000
  I   I309      1.0  0.21312  0.63609  0.36738  1.0000
  I   I310      1.0  0.29844  0.86771  0.62767  1.0000
  I   I311      1.0  0.52691  0.90036  0.85747  1.0000
  I   I312      1.0  0.53247  0.81682  0.28977  1.0000
  I   I313      1.0  0.54606  0.18421  0.44371  1.0000
  I   I314      1.0  0.53673  0.17312  0.74302  1.0000
  I   I315      1.0  0.54357  0.16160  0.08196  1.0000
  I   I316      1.0  0.57942  0.36832  0.08951  1.0000
  I   I317      1.0  0.53356  0.47275  0.32402  1.0000
  I   I318      1.0  0.58157  0.38935  0.73109  1.0000
  I   I319      1.0  0.59492  0.64231  0.09805  1.0000
  I   I320      1.0  0.58149  0.67148  0.46313  1.0000
  I   I321      1.0  0.66102  0.60797  0.80320  1.0000
  I   I322      1.0  0.76111  0.67707  0.97688  1.0000
  I   I323      1.0  0.64554  0.80695  0.28489  1.0000
  I   I324      1.0  0.60427  0.84583  0.75184  1.0000
  I   I325      1.0  0.75214  0.22856  0.86981  1.0000
  I   I326      1.0  0.74536  0.24133  0.18377  1.0000
  I   I327      1.0  0.77489  0.22387  0.56931  1.0000
  I   I328      1.0  0.84827  0.37020  0.10387  1.0000
  I   I329      1.0  0.91101  0.26924  0.44243  1.0000
  I   I330      1.0  0.00617  0.00122  0.50853  1.0000
  I   I331      1.0  0.96767  0.62756  0.85511  1.0000
  I   I332      1.0  0.90335  0.56700  0.50004  1.0000
  I   I333      1.0  0.93975  0.59230  0.73952  1.0000
  I   I334      1.0  0.62432  0.07617  0.18884  1.0000
  I   I335      1.0  0.79123  0.93927  0.58870  1.0000
  I   I336      1.0  0.70538  0.93639  0.83013  1.0000
  I   I337      1.0  0.28637  0.03247  0.42093  1.0000
  I   I338      1.0  0.08802  0.10985  0.84417  1.0000
  I   I339      1.0  0.16654  0.06781  0.17287  1.0000
  I   I340      1.0  0.11303  0.27259  0.23754  1.0000
  I   I341      1.0  0.12089  0.34136  0.54105  1.0000
  I   I342      1.0  0.06698  0.29726  0.84630  1.0000
  I   I343      1.0  0.94901  0.64721  0.22680  1.0000
  I   I344      1.0  0.90558  0.90181  0.71959  1.0000
  I   I345      1.0  0.95381  0.76376  0.99959  1.0000
  I   I346      1.0  0.04075  0.94194  0.05613  1.0000
  I   I347      1.0  0.95412  0.87237  0.37807  1.0000
  I   I348      1.0  0.12633  0.83740  0.64328  1.0000
  I   I349      1.0  0.29207  0.34865  0.94480  1.0000
  I   I350      1.0  0.29326  0.37046  0.35486  1.0000
  I   I351      1.0  0.41215  0.19044  0.50716  1.0000
  I   I352      1.0  0.31775  0.49324  0.77963  1.0000
  I   I353      1.0  0.23632  0.53683  0.96993  1.0000
  I   I354      1.0  0.16234  0.40872  0.31144  1.0000
  I   I355      1.0  0.20910  0.77553  0.19488  1.0000
  I   I356      1.0  0.52070  0.61877  0.02497  1.0000
  I   I357      1.0  0.24062  0.62659  0.51521  1.0000
  I   I358      1.0  0.39763  0.82611  0.51468  1.0000
  I   I359      1.0  0.53266  0.81512  0.81684  1.0000
  I   I360      1.0  0.58914  0.73376  0.17842  1.0000
  I   I361      1.0  0.47396  0.25734  0.35212  1.0000
  I   I362      1.0  0.49005  0.25674  0.66613  1.0000
  I   I363      1.0  0.51313  0.22176  0.95356  1.0000
  I   I364      1.0  0.56905  0.44831  0.02770  1.0000
  I   I365      1.0  0.55591  0.38776  0.39061  1.0000
  I   I366      1.0  0.56041  0.47858  0.73087  1.0000
  I   I367      1.0  0.65705  0.66103  0.03246  1.0000
  I   I368      1.0  0.62748  0.70464  0.33268  1.0000
  I   I369      1.0  0.74128  0.60128  0.75294  1.0000
  I   I370      1.0  0.71256  0.76880  0.95819  1.0000
  I   I371      1.0  0.63002  0.89680  0.26954  1.0000
  I   I372      1.0  0.67071  0.88176  0.73797  1.0000
  I   I373      1.0  0.81767  0.23837  0.78409  1.0000
  I   I374      1.0  0.81382  0.24310  0.11155  1.0000
  I   I375      1.0  0.83244  0.23324  0.47749  1.0000
  I   I376      1.0  0.91123  0.29981  0.21792  1.0000
  I   I377      1.0  0.86109  0.31423  0.57092  1.0000
  I   I378      1.0  0.99593  0.05046  0.36787  1.0000
  I   I379      1.0  0.05609  0.59554  0.88581  1.0000
  I   I380      1.0  0.95247  0.52848  0.36690  1.0000
  I   I381      1.0  0.02256  0.54885  0.63731  1.0000
  I   I382      1.0  0.67239  0.98427  0.23343  1.0000
  I   I383      1.0  0.73608  0.98196  0.45874  1.0000
  I   I384      1.0  0.65416  0.99751  0.71150  1.0000
