data_image0
_chemical_formula_structural       Ti96I384
_chemical_formula_sum              "Ti96 I384"
_cell_length_a       71.6763
_cell_length_b       71.6046
_cell_length_c       35.061
_cell_angle_alpha    88.7757
_cell_angle_beta     88.7757
_cell_angle_gamma    62.1586

_space_group_name_H-M_alt    "P 1"
_space_group_IT_number       1

loop_
  _space_group_symop_operation_xyz
  'x, y, z'

loop_
  _atom_site_type_symbol
  _atom_site_label
  _atom_site_symmetry_multiplicity
  _atom_site_fract_x
  _atom_site_fract_y
  _atom_site_fract_z
  _atom_site_occupancy
  Ti  Ti1       1.0  0.36684  0.72883  0.23513  1.0000
  Ti  Ti2       1.0  0.05060  0.03396  0.08002  1.0000
  Ti  Ti3       1.0  0.24601  0.22872  0.46488  1.0000
  Ti  Ti4       1.0  0.94056  0.69221  0.85124  1.0000
  Ti  Ti5       1.0  0.43706  0.52001  0.22171  1.0000
  Ti  Ti6       1.0  0.78801  0.88430  0.45817  1.0000
  Ti  Ti7       1.0  0.56659  0.91257  0.44504  1.0000
  Ti  Ti8       1.0  0.11343  0.56577  0.32213  1.0000
  Ti  Ti9       1.0  0.41004  0.28009  0.69969  1.0000
  Ti  Ti10      1.0  0.47384  0.52201  0.76779  1.0000
  Ti  Ti11      1.0  0.23638  0.35883  0.34597  1.0000
  Ti  Ti12      1.0  0.97610  0.51745  0.17883  1.0000
  Ti  Ti13      1.0  0.74880  0.56311  0.08875  1.0000
  Ti  Ti14      1.0  0.00072  0.72135  0.80699  1.0000
  Ti  Ti15      1.0  0.65959  0.60911  0.62499  1.0000
  Ti  Ti16      1.0  0.49000  0.53876  0.66540  1.0000
  Ti  Ti17      1.0  0.26444  0.34893  0.79231  1.0000
  Ti  Ti18      1.0  0.33889  0.09535  0.40191  1.0000
  Ti  Ti19      1.0  0.28823  0.61622  0.50101  1.0000
  Ti  Ti20      1.0  0.22823  0.82926  0.42490  1.0000
  Ti  Ti21      1.0  0.15313  0.54534  0.25680  1.0000
  Ti  Ti22      1.0  0.81103  0.57385  0.40375  1.0000
  Ti  Ti23      1.0  0.19880  0.06241  0.32541  1.0000
  Ti  Ti24      1.0  0.91144  0.82402  0.63785  1.0000
  Ti  Ti25      1.0  0.42438  0.42036  0.34777  1.0000
  Ti  Ti26      1.0  0.68440  0.92979  0.72031  1.0000
  Ti  Ti27      1.0  0.75052  0.24633  0.16322  1.0000
  Ti  Ti28      1.0  0.35370  0.00566  0.92018  1.0000
  Ti  Ti29      1.0  0.25546  0.74753  0.87545  1.0000
  Ti  Ti30      1.0  0.27290  0.84997  0.95732  1.0000
  Ti  Ti31      1.0  0.54360  0.12755  0.22154  1.0000
  Ti  Ti32      1.0  0.30837  0.91831  0.17128  1.0000
  Ti  Ti33      1.0  0.27380  0.61057  0.67167  1.0000
  Ti  Ti34      1.0  0.64821  0.51660  0.90717  1.0000
  Ti  Ti35      1.0  0.12003  0.37868  0.48102  1.0000
  Ti  Ti36      1.0  0.88714  0.25544  0.82543  1.0000
  Ti  Ti37      1.0  0.18855  0.11811  0.59932  1.0000
  Ti  Ti38      1.0  0.84381  0.05339  0.61862  1.0000
  Ti  Ti39      1.0  0.50400  0.67103  0.24720  1.0000
  Ti  Ti40      1.0  0.39438  0.68531  0.85448  1.0000
  Ti  Ti41      1.0  0.56458  0.30109  0.67558  1.0000
  Ti  Ti42      1.0  0.00714  0.79479  0.38768  1.0000
  Ti  Ti43      1.0  0.14075  0.90706  0.51785  1.0000
  Ti  Ti44      1.0  0.50920  0.34466  0.73874  1.0000
  Ti  Ti45      1.0  0.11613  0.28402  0.32990  1.0000
  Ti  Ti46      1.0  0.35258  0.96070  0.47053  1.0000
  Ti  Ti47      1.0  0.84868  0.09279  0.80881  1.0000
  Ti  Ti48      1.0  0.01565  0.93374  0.28808  1.0000
  Ti  Ti49      1.0  0.06671  0.87146  0.07311  1.0000
  Ti  Ti50      1.0  0.68656  0.44830  0.14263  1.0000
  Ti  Ti51      1.0  0.09787  0.01822  0.13022  1.0000
  Ti  Ti52      1.0  0.70125  0.34883  0.46453  1.0000
  Ti  Ti53      1.0  0.48182  0.70344  0.67439  1.0000
  Ti  Ti54      1.0  0.80819  0.85271  0.94055  1.0000
  Ti  Ti55      1.0  0.56784  0.95060  0.49011  1.0000
  Ti  Ti56      1.0  0.31862  0.57528  0.90671  1.0000
  Ti  Ti57      1.0  0.36526  0.25775  0.69778  1.0000
  Ti  Ti58      1.0  0.44168  0.57708  0.44400  1.0000
  Ti  Ti59      1.0  0.88777  0.00507  0.01412  1.0000
  Ti  Ti60      1.0  0.98305  0.47841  0.25377  1.0000
  Ti  Ti61      1.0  0.64755  0.62482  0.54387  1.0000
  Ti  Ti62      1.0  0.73360  0.61039  0.08919  1.0000
  Ti  Ti63      1.0  0.87017  0.86686  0.19695  1.0000
  Ti  Ti64      1.0  0.35423  0.12737  0.39446  1.0000
  Ti  Ti65      1.0  0.03115  0.79062  0.22715  1.0000
  Ti  Ti66      1.0  0.74734  0.23582  0.81262  1.0000
  Ti  Ti67      1.0  0.83550  0.71304  0.05796  1.0000
  Ti  Ti68      1.0  0.32114  0.65136  0.47273  1.0000
  Ti  Ti69      1.0  0.74462  0.87488  0.75959  1.0000
  Ti  Ti70      1.0  0.81474  0.69635  0.00434  1.0000
  Ti  Ti71      1.0  0.13995  0.10000  0.25363  1.0000
  Ti  Ti72      1.0  0.87456  0.04209  0.77707  1.0000
  Ti  Ti73      1.0  0.81234  0.23583  0.13703  1.0000
  Ti  Ti74      1.0  0.43413  0.37211  0.44598  1.0000
  Ti  Ti75      1.0  0.45094  0.01960  0.05071  1.0000
  Ti  Ti76      1.0  0.20913  0.01876  0.06784  1.0000
  Ti  Ti77      1.0  0.21465  0.42319  0.54231  1.0000
  Ti  Ti78      1.0  0.21601  0.75937  0.92162  1.0000
  Ti  Ti79      1.0  0.75753  0.69096  0.63528  1.0000
  Ti  Ti80      1.0  0.99018  0.31423  0.59855  1.0000
  Ti  Ti81      1.0  0.36474  0.87732  0.13874  1.0000
  Ti  Ti82      1.0  0.06533  0.24008  0.78285  1.0000
  Ti  Ti83      1.0  0.15974  0.33536  0.50163  1.0000
  Ti  Ti84      1.0  0.92580  0.18801  0.81785  1.0000
  Ti  Ti85      1.0  0.23565  0.07789  0.56153  1.0000
  Ti  Ti86      1.0  0.72719  0.26675  0.69954  1.0000
  Ti  Ti87      1.0  0.08319  0.27524  0.38679  1.0000
  Ti  Ti88      1.0  0.63174  0.38702  0.44396  1.0000
  Ti  Ti89      1.0  0.49489  0.27917  0.05372  1.0000
  Ti  Ti90      1.0  0.98372  0.78176  0.45572  1.0000
  Ti  Ti91      1.0  0.26941  0.50252  0.35506  1.0000
  Ti  Ti92      1.0  0.37872  0.73043  0.55700  1.0000
  Ti  Ti93      1.0  0.06225  0.32711  0.98470  1.0000
  Ti  Ti94      1.0  0.97603  0.91535  0.33392  1.0000
  Ti  Ti95      1.0  0.34489  0.65106  0.06316  1.0000
  Ti  Ti96      1.0  0.95296  0.24244  0.19299  1.0000
  I   I1        1.0  0.85335  0.09947  0.88586  1.0000
  I   I2        1.0  0.06647  0.06255  0.11143  1.0000
  I   I3        1.0  0.09570  0.83307  0.05860  1.0000
  I   I4        1.0  0.48324  0.66755  0.69053  1.0000
  I   I5        1.0  0.75737  0.87833  0.49574  1.0000
  I   I6        1.0  0.82203  0.83515  0.00424  1.0000
  I   I7        1.0  0.16333  0.56380  0.30988  1.0000
  I   I8        1.0  0.34684  0.57296  0.95903  1.0000
  I   I9        1.0  0.35608  0.24521  0.76077  1.0000
  I   I10       1.0  0.45354  0.56018  0.69570  1.0000
  I   I11       1.0  0.26706  0.32008  0.39188  1.0000
  I   I12       1.0  0.47275  0.51842  0.19894  1.0000
  I   I13       1.0  0.75989  0.53609  0.02787  1.0000
  I   I14       1.0  0.86495  0.84397  0.14598  1.0000
  I   I15       1.0  0.65666  0.64820  0.61963  1.0000
  I   I16       1.0  0.43167  0.53412  0.76740  1.0000
  I   I17       1.0  0.76804  0.19378  0.81206  1.0000
  I   I18       1.0  0.34635  0.05620  0.41851  1.0000
  I   I19       1.0  0.23487  0.85395  0.47437  1.0000
  I   I20       1.0  0.25334  0.37087  0.40020  1.0000
  I   I21       1.0  0.12341  0.53737  0.25505  1.0000
  I   I22       1.0  0.13392  0.12656  0.32069  1.0000
  I   I23       1.0  0.21237  0.07394  0.38739  1.0000
  I   I24       1.0  0.79541  0.73994  0.07479  1.0000
  I   I25       1.0  0.45504  0.39368  0.30481  1.0000
  I   I26       1.0  0.47836  0.03256  0.06844  1.0000
  I   I27       1.0  0.73337  0.22777  0.13203  1.0000
  I   I28       1.0  0.38688  0.97979  0.87999  1.0000
  I   I29       1.0  0.29285  0.74675  0.87623  1.0000
  I   I30       1.0  0.27702  0.88423  0.97165  1.0000
  I   I31       1.0  0.94910  0.33113  0.60805  1.0000
  I   I32       1.0  0.30152  0.93313  0.23806  1.0000
  I   I33       1.0  0.73848  0.73249  0.60511  1.0000
  I   I34       1.0  0.16452  0.30611  0.55045  1.0000
  I   I35       1.0  0.86932  0.28598  0.87540  1.0000
  I   I36       1.0  0.63076  0.51472  0.97215  1.0000
  I   I37       1.0  0.18042  0.14663  0.64670  1.0000
  I   I38       1.0  0.52545  0.68190  0.19885  1.0000
  I   I39       1.0  0.19567  0.08331  0.54123  1.0000
  I   I40       1.0  0.55496  0.34208  0.70737  1.0000
  I   I41       1.0  0.98463  0.76573  0.52234  1.0000
  I   I42       1.0  0.40813  0.65297  0.80948  1.0000
  I   I43       1.0  0.40393  0.58021  0.46996  1.0000
  I   I44       1.0  0.49554  0.38759  0.73690  1.0000
  I   I45       1.0  0.15456  0.28497  0.32006  1.0000
  I   I46       1.0  0.30361  0.67345  0.05237  1.0000
  I   I47       1.0  0.88669  0.08906  0.79393  1.0000
  I   I48       1.0  0.98363  0.95070  0.33897  1.0000
  I   I49       1.0  0.03446  0.87008  0.09635  1.0000
  I   I50       1.0  0.10327  0.02919  0.19605  1.0000
  I   I51       1.0  0.04044  0.03272  0.15483  1.0000
  I   I52       1.0  0.00926  0.27478  0.59034  1.0000
  I   I53       1.0  0.44474  0.72870  0.65136  1.0000
  I   I54       1.0  0.83780  0.82784  0.89700  1.0000
  I   I55       1.0  0.59968  0.92281  0.44201  1.0000
  I   I56       1.0  0.16980  0.55338  0.19875  1.0000
  I   I57       1.0  0.32881  0.28513  0.68459  1.0000
  I   I58       1.0  0.47297  0.49296  0.80502  1.0000
  I   I59       1.0  0.88202  0.04076  0.04338  1.0000
  I   I60       1.0  0.97505  0.48588  0.14304  1.0000
  I   I61       1.0  0.74930  0.63568  0.08543  1.0000
  I   I62       1.0  0.76564  0.58693  0.03952  1.0000
  I   I63       1.0  0.85291  0.89939  0.14935  1.0000
  I   I64       1.0  0.50853  0.56402  0.66660  1.0000
  I   I65       1.0  0.00089  0.78488  0.20147  1.0000
  I   I66       1.0  0.73438  0.23823  0.88591  1.0000
  I   I67       1.0  0.29363  0.57792  0.50010  1.0000
  I   I68       1.0  0.26787  0.81009  0.40290  1.0000
  I   I69       1.0  0.72268  0.85986  0.79622  1.0000
  I   I70       1.0  0.77996  0.69192  0.00826  1.0000
  I   I71       1.0  0.23488  0.03246  0.30699  1.0000
  I   I72       1.0  0.82540  0.07778  0.76637  1.0000
  I   I73       1.0  0.85374  0.22233  0.13731  1.0000
  I   I74       1.0  0.67758  0.96997  0.69519  1.0000
  I   I75       1.0  0.65716  0.92248  0.68417  1.0000
  I   I76       1.0  0.24567  0.38550  0.56660  1.0000
  I   I77       1.0  0.18007  0.42832  0.57748  1.0000
  I   I78       1.0  0.34539  0.73474  0.29798  1.0000
  I   I79       1.0  0.28601  0.61620  0.73471  1.0000
  I   I80       1.0  0.50310  0.14408  0.20602  1.0000
  I   I81       1.0  0.33316  0.89208  0.09269  1.0000
  I   I82       1.0  0.07935  0.21010  0.73252  1.0000
  I   I83       1.0  0.08023  0.39976  0.44347  1.0000
  I   I84       1.0  0.92087  0.24745  0.78386  1.0000
  I   I85       1.0  0.21212  0.12449  0.53622  1.0000
  I   I86       1.0  0.77718  0.24560  0.81321  1.0000
  I   I87       1.0  0.48544  0.69833  0.30304  1.0000
  I   I88       1.0  0.35865  0.71329  0.82636  1.0000
  I   I89       1.0  0.59363  0.26679  0.71672  1.0000
  I   I90       1.0  0.94304  0.80238  0.46469  1.0000
  I   I91       1.0  0.28901  0.47225  0.30482  1.0000
  I   I92       1.0  0.41614  0.72046  0.54073  1.0000
  I   I93       1.0  0.52600  0.33741  0.80489  1.0000
  I   I94       1.0  0.06197  0.91521  0.27435  1.0000
  I   I95       1.0  0.31589  0.99519  0.47344  1.0000
  I   I96       1.0  0.94250  0.26788  0.13421  1.0000
  I   I97       1.0  0.21262  0.25609  0.49693  1.0000
  I   I98       1.0  0.35147  0.72313  0.17960  1.0000
  I   I99       1.0  0.13399  0.01639  0.11017  1.0000
  I   I100      1.0  0.92669  0.72359  0.89384  1.0000
  I   I101      1.0  0.70103  0.31343  0.47961  1.0000
  I   I102      1.0  0.42199  0.50620  0.16722  1.0000
  I   I103      1.0  0.57467  0.87262  0.43920  1.0000
  I   I104      1.0  0.53740  0.95877  0.55328  1.0000
  I   I105      1.0  0.43944  0.23794  0.70632  1.0000
  I   I106      1.0  0.99444  0.54120  0.15660  1.0000
  I   I107      1.0  0.47748  0.54609  0.82166  1.0000
  I   I108      1.0  0.94114  0.52069  0.22912  1.0000
  I   I109      1.0  0.64166  0.60604  0.69316  1.0000
  I   I110      1.0  0.71075  0.62605  0.02642  1.0000
  I   I111      1.0  0.90519  0.85244  0.23910  1.0000
  I   I112      1.0  0.31174  0.14218  0.40725  1.0000
  I   I113      1.0  0.04208  0.81659  0.26458  1.0000
  I   I114      1.0  0.30378  0.34221  0.80890  1.0000
  I   I115      1.0  0.86029  0.70123  0.12255  1.0000
  I   I116      1.0  0.83749  0.66215  0.95373  1.0000
  I   I117      1.0  0.25190  0.64063  0.45409  1.0000
  I   I118      1.0  0.81925  0.55153  0.33970  1.0000
  I   I119      1.0  0.79590  0.73530  0.97392  1.0000
  I   I120      1.0  0.86348  0.05451  0.85170  1.0000
  I   I121      1.0  0.77062  0.26833  0.11962  1.0000
  I   I122      1.0  0.44734  0.43954  0.34643  1.0000
  I   I123      1.0  0.43449  0.03467  0.98444  1.0000
  I   I124      1.0  0.30466  0.83977  0.90890  1.0000
  I   I125      1.0  0.36007  0.97998  0.97462  1.0000
  I   I126      1.0  0.25422  0.73446  0.80626  1.0000
  I   I127      1.0  0.30510  0.59748  0.61772  1.0000
  I   I128      1.0  0.90523  0.69652  0.82405  1.0000
  I   I129      1.0  0.40420  0.87037  0.13037  1.0000
  I   I130      1.0  0.91832  0.16003  0.84427  1.0000
  I   I131      1.0  0.05496  0.21040  0.82549  1.0000
  I   I132      1.0  0.13792  0.35181  0.41826  1.0000
  I   I133      1.0  0.53235  0.63626  0.27199  1.0000
  I   I134      1.0  0.81901  0.08924  0.65393  1.0000
  I   I135      1.0  0.70737  0.24979  0.76579  1.0000
  I   I136      1.0  0.97967  0.77896  0.37832  1.0000
  I   I137      1.0  0.66948  0.37393  0.40805  1.0000
  I   I138      1.0  0.50269  0.27314  0.12456  1.0000
  I   I139      1.0  0.23037  0.51044  0.34793  1.0000
  I   I140      1.0  0.36635  0.73602  0.48790  1.0000
  I   I141      1.0  0.06990  0.35616  0.01379  1.0000
  I   I142      1.0  0.00092  0.92188  0.22418  1.0000
  I   I143      1.0  0.35976  0.96830  0.54312  1.0000
  I   I144      1.0  0.98928  0.23282  0.21845  1.0000
  I   I145      1.0  0.40570  0.69499  0.23051  1.0000
  I   I146      1.0  0.04312  0.00147  0.06475  1.0000
  I   I147      1.0  0.25431  0.20002  0.51993  1.0000
  I   I148      1.0  0.61707  0.40814  0.38189  1.0000
  I   I149      1.0  0.41131  0.55322  0.26103  1.0000
  I   I150      1.0  0.80444  0.90935  0.48622  1.0000
  I   I151      1.0  0.59706  0.95986  0.50607  1.0000
  I   I152      1.0  0.09846  0.59717  0.37371  1.0000
  I   I153      1.0  0.38267  0.28173  0.64297  1.0000
  I   I154      1.0  0.10049  0.92092  0.54032  1.0000
  I   I155      1.0  0.23532  0.38544  0.29444  1.0000
  I   I156      1.0  0.02277  0.45677  0.28561  1.0000
  I   I157      1.0  0.69972  0.59165  0.65816  1.0000
  I   I158      1.0  0.83749  0.88563  0.24800  1.0000
  I   I159      1.0  0.69086  0.60367  0.54693  1.0000
  I   I160      1.0  0.37706  0.13555  0.44189  1.0000
  I   I161      1.0  0.26734  0.32793  0.85484  1.0000
  I   I162      1.0  0.29703  0.10337  0.38741  1.0000
  I   I163      1.0  0.25202  0.62936  0.54087  1.0000
  I   I164      1.0  0.36398  0.63382  0.46587  1.0000
  I   I165      1.0  0.11655  0.59164  0.25938  1.0000
  I   I166      1.0  0.78021  0.57390  0.44428  1.0000
  I   I167      1.0  0.19041  0.08999  0.26877  1.0000
  I   I168      1.0  0.89803  0.80051  0.60946  1.0000
  I   I169      1.0  0.43465  0.41064  0.42442  1.0000
  I   I170      1.0  0.40813  0.38648  0.37606  1.0000
  I   I171      1.0  0.81115  0.22970  0.06461  1.0000
  I   I172      1.0  0.20047  0.00965  0.13698  1.0000
  I   I173      1.0  0.19178  0.74702  0.88397  1.0000
  I   I174      1.0  0.27462  0.82108  0.00609  1.0000
  I   I175      1.0  0.53530  0.14806  0.28818  1.0000
  I   I176      1.0  0.27645  0.90866  0.17305  1.0000
  I   I177      1.0  0.72823  0.71403  0.68531  1.0000
  I   I178      1.0  0.05124  0.27336  0.73866  1.0000
  I   I179      1.0  0.15879  0.37493  0.48101  1.0000
  I   I180      1.0  0.89543  0.21693  0.76351  1.0000
  I   I181      1.0  0.25229  0.04039  0.58301  1.0000
  I   I182      1.0  0.74414  0.28423  0.65317  1.0000
  I   I183      1.0  0.11057  0.27672  0.25948  1.0000
  I   I184      1.0  0.66530  0.37359  0.50228  1.0000
  I   I185      1.0  0.45135  0.29394  0.05364  1.0000
  I   I186      1.0  0.04936  0.78726  0.37596  1.0000
  I   I187      1.0  0.36749  0.70302  0.57793  1.0000
  I   I188      1.0  0.46991  0.35337  0.75986  1.0000
  I   I189      1.0  0.07393  0.30560  0.32383  1.0000
  I   I190      1.0  0.38142  0.96754  0.44577  1.0000
  I   I191      1.0  0.67582  0.45036  0.21655  1.0000
  I   I192      1.0  0.96937  0.91039  0.40360  1.0000
  I   I193      1.0  0.25629  0.71372  0.91194  1.0000
  I   I194      1.0  0.72658  0.42205  0.12454  1.0000
  I   I195      1.0  0.27015  0.24394  0.45620  1.0000
  I   I196      1.0  0.94136  0.66604  0.91413  1.0000
  I   I197      1.0  0.46850  0.53918  0.42487  1.0000
  I   I198      1.0  0.81893  0.85290  0.42302  1.0000
  I   I199      1.0  0.53095  0.93355  0.46907  1.0000
  I   I200      1.0  0.31534  0.54056  0.90819  1.0000
  I   I201      1.0  0.43282  0.29212  0.64833  1.0000
  I   I202      1.0  0.88798  0.98398  0.07223  1.0000
  I   I203      1.0  0.76251  0.83496  0.73234  1.0000
  I   I204      1.0  0.96552  0.47767  0.32645  1.0000
  I   I205      1.0  0.75919  0.52589  0.13257  1.0000
  I   I206      1.0  0.00460  0.70552  0.73849  1.0000
  I   I207      1.0  0.61503  0.64011  0.59360  1.0000
  I   I208      1.0  0.47670  0.50381  0.68075  1.0000
  I   I209      1.0  0.25780  0.31978  0.75174  1.0000
  I   I210      1.0  0.75785  0.65659  0.66590  1.0000
  I   I211      1.0  0.83221  0.67106  0.06416  1.0000
  I   I212      1.0  0.20599  0.85395  0.37391  1.0000
  I   I213      1.0  0.78285  0.87216  0.75364  1.0000
  I   I214      1.0  0.84597  0.55301  0.44169  1.0000
  I   I215      1.0  0.10401  0.09910  0.25911  1.0000
  I   I216      1.0  0.88041  0.86200  0.64607  1.0000
  I   I217      1.0  0.47111  0.34025  0.42805  1.0000
  I   I218      1.0  0.42486  0.04097  0.09976  1.0000
  I   I219      1.0  0.79645  0.20803  0.16783  1.0000
  I   I220      1.0  0.20083  0.44911  0.48365  1.0000
  I   I221      1.0  0.21474  0.77905  0.85022  1.0000
  I   I222      1.0  0.23197  0.98404  0.03688  1.0000
  I   I223      1.0  0.54208  0.09589  0.26308  1.0000
  I   I224      1.0  0.35258  0.91889  0.16644  1.0000
  I   I225      1.0  0.26932  0.57615  0.69284  1.0000
  I   I226      1.0  0.10523  0.22624  0.78154  1.0000
  I   I227      1.0  0.10768  0.41259  0.52253  1.0000
  I   I228      1.0  0.95561  0.16087  0.77298  1.0000
  I   I229      1.0  0.23080  0.09165  0.63447  1.0000
  I   I230      1.0  0.86252  0.01040  0.63050  1.0000
  I   I231      1.0  0.46947  0.67113  0.21650  1.0000
  I   I232      1.0  0.97676  0.70625  0.84979  1.0000
  I   I233      1.0  0.55211  0.29052  0.61157  1.0000
  I   I234      1.0  0.00601  0.80751  0.46667  1.0000
  I   I235      1.0  0.15147  0.87910  0.46486  1.0000
  I   I236      1.0  0.06209  0.29362  0.02362  1.0000
  I   I237      1.0  0.27420  0.53187  0.32408  1.0000
  I   I238      1.0  0.36510  0.62388  0.11900  1.0000
  I   I239      1.0  0.93126  0.23416  0.24694  1.0000
  I   I240      1.0  0.97147  0.89143  0.28242  1.0000
  I   I241      1.0  0.36733  0.76535  0.24805  1.0000
  I   I242      1.0  0.02247  0.06587  0.04728  1.0000
  I   I243      1.0  0.22884  0.22068  0.40264  1.0000
  I   I244      1.0  0.62778  0.35256  0.44381  1.0000
  I   I245      1.0  0.49154  0.72967  0.71444  1.0000
  I   I246      1.0  0.76772  0.91209  0.40517  1.0000
  I   I247      1.0  0.55200  0.92525  0.37345  1.0000
  I   I248      1.0  0.07241  0.56871  0.31082  1.0000
  I   I249      1.0  0.38060  0.27620  0.74560  1.0000
  I   I250      1.0  0.84958  0.01965  0.97318  1.0000
  I   I251      1.0  0.22401  0.33415  0.30673  1.0000
  I   I252      1.0  0.94420  0.54633  0.13733  1.0000
  I   I253      1.0  0.71689  0.57512  0.12777  1.0000
  I   I254      1.0  0.03672  0.71395  0.83025  1.0000
  I   I255      1.0  0.66722  0.57143  0.60512  1.0000
  I   I256      1.0  0.03226  0.81092  0.16111  1.0000
  I   I257      1.0  0.22971  0.38218  0.77412  1.0000
  I   I258      1.0  0.35042  0.14783  0.33117  1.0000
  I   I259      1.0  0.85983  0.73442  0.05938  1.0000
  I   I260      1.0  0.32122  0.61425  0.44886  1.0000
  I   I261      1.0  0.12621  0.53562  0.37580  1.0000
  I   I262      1.0  0.80171  0.61063  0.38231  1.0000
  I   I263      1.0  0.16970  0.05247  0.34905  1.0000
  I   I264      1.0  0.94236  0.81768  0.59383  1.0000
  I   I265      1.0  0.38666  0.44537  0.32481  1.0000
  I   I266      1.0  0.66715  0.92370  0.77926  1.0000
  I   I267      1.0  0.80025  0.26871  0.18948  1.0000
  I   I268      1.0  0.32800  0.99859  0.88230  1.0000
  I   I269      1.0  0.25301  0.75911  0.95380  1.0000
  I   I270      1.0  0.17641  0.03467  0.02276  1.0000
  I   I271      1.0  0.55843  0.14586  0.17570  1.0000
  I   I272      1.0  0.33688  0.88182  0.19923  1.0000
  I   I273      1.0  0.25223  0.64967  0.65373  1.0000
  I   I274      1.0  0.66134  0.54646  0.90975  1.0000
  I   I275      1.0  0.10951  0.35175  0.52197  1.0000
  I   I276      1.0  0.88033  0.22546  0.85779  1.0000
  I   I277      1.0  0.04883  0.26614  0.84545  1.0000
  I   I278      1.0  0.81442  0.05963  0.56847  1.0000
  I   I279      1.0  0.10604  0.29958  0.40827  1.0000
  I   I280      1.0  0.71109  0.37946  0.49826  1.0000
  I   I281      1.0  0.58979  0.30965  0.62417  1.0000
  I   I282      1.0  0.01089  0.78595  0.30553  1.0000
  I   I283      1.0  0.13643  0.94007  0.48156  1.0000
  I   I284      1.0  0.02068  0.35390  0.98388  1.0000
  I   I285      1.0  0.11149  0.24768  0.43486  1.0000
  I   I286      1.0  0.35108  0.68355  0.09032  1.0000
  I   I287      1.0  0.87586  0.04662  0.70068  1.0000
  I   I288      1.0  0.02256  0.89619  0.31703  1.0000
  I   I289      1.0  0.05940  0.90485  0.02787  1.0000
  I   I290      1.0  0.66798  0.42638  0.11852  1.0000
  I   I291      1.0  0.09413  0.01438  0.04728  1.0000
  I   I292      1.0  0.74268  0.33588  0.47148  1.0000
  I   I293      1.0  0.50890  0.69302  0.61814  1.0000
  I   I294      1.0  0.80678  0.88670  0.96076  1.0000
  I   I295      1.0  0.58385  0.90968  0.51757  1.0000
  I   I296      1.0  0.27988  0.60457  0.93384  1.0000
  I   I297      1.0  0.41367  0.30321  0.76415  1.0000
  I   I298      1.0  0.46241  0.58029  0.49781  1.0000
  I   I299      1.0  0.48872  0.53986  0.59029  1.0000
  I   I300      1.0  0.99587  0.44523  0.21660  1.0000
  I   I301      1.0  0.62813  0.61631  0.49083  1.0000
  I   I302      1.0  0.76671  0.57136  0.15076  1.0000
  I   I303      1.0  0.38635  0.70156  0.92180  1.0000
  I   I304      1.0  0.34546  0.10186  0.47302  1.0000
  I   I305      1.0  0.51086  0.51610  0.73045  1.0000
  I   I306      1.0  0.72091  0.24896  0.64245  1.0000
  I   I307      1.0  0.29193  0.67022  0.41852  1.0000
  I   I308      1.0  0.20595  0.81024  0.44254  1.0000
  I   I309      1.0  0.17601  0.50367  0.25702  1.0000
  I   I310      1.0  0.15300  0.91405  0.58409  1.0000
  I   I311      1.0  0.14100  0.11363  0.18467  1.0000
  I   I312      1.0  0.83683  0.12808  0.77297  1.0000
  I   I313      1.0  0.75360  0.25033  0.23618  1.0000
  I   I314      1.0  0.44610  0.37845  0.51369  1.0000
  I   I315      1.0  0.45212  0.98216  0.04887  1.0000
  I   I316      1.0  0.23151  0.04166  0.06596  1.0000
  I   I317      1.0  0.33909  0.04615  0.94050  1.0000
  I   I318      1.0  0.21450  0.73796  0.98688  1.0000
  I   I319      1.0  0.79432  0.68658  0.62178  1.0000
  I   I320      1.0  0.96440  0.66188  0.79905  1.0000
  I   I321      1.0  0.28797  0.95430  0.13274  1.0000
  I   I322      1.0  0.62035  0.53392  0.85445  1.0000
  I   I323      1.0  0.19982  0.32005  0.48057  1.0000
  I   I324      1.0  0.95409  0.19053  0.85575  1.0000
  I   I325      1.0  0.25572  0.06527  0.48859  1.0000
  I   I326      1.0  0.76479  0.23979  0.72836  1.0000
  I   I327      1.0  0.07465  0.24504  0.36359  1.0000
  I   I328      1.0  0.42549  0.69532  0.83645  1.0000
  I   I329      1.0  0.50308  0.24844  0.00254  1.0000
  I   I330      1.0  0.02723  0.75812  0.43576  1.0000
  I   I331      1.0  0.04562  0.29529  0.41339  1.0000
  I   I332      1.0  0.44067  0.59427  0.38073  1.0000
  I   I333      1.0  0.52911  0.30490  0.72076  1.0000
  I   I334      1.0  0.01259  0.96804  0.24783  1.0000
  I   I335      1.0  0.34752  0.92796  0.43994  1.0000
  I   I336      1.0  0.97176  0.20226  0.16328  1.0000
  I   I337      1.0  0.08289  0.88044  0.12830  1.0000
  I   I338      1.0  0.67485  0.47606  0.09174  1.0000
  I   I339      1.0  0.10534  0.98117  0.15298  1.0000
  I   I340      1.0  0.00848  0.32500  0.54485  1.0000
  I   I341      1.0  0.44550  0.49072  0.28141  1.0000
  I   I342      1.0  0.77095  0.86963  0.89498  1.0000
  I   I343      1.0  0.55356  0.98822  0.44510  1.0000
  I   I344      1.0  0.30821  0.59580  0.84046  1.0000
  I   I345      1.0  0.37543  0.22931  0.64622  1.0000
  I   I346      1.0  0.85284  0.70115  0.98587  1.0000
  I   I347      1.0  0.92408  0.99185  0.98322  1.0000
  I   I348      1.0  0.01187  0.49696  0.22332  1.0000
  I   I349      1.0  0.64210  0.66226  0.52644  1.0000
  I   I350      1.0  0.70145  0.63179  0.13320  1.0000
  I   I351      1.0  0.98424  0.76227  0.79576  1.0000
  I   I352      1.0  0.37772  0.08258  0.37604  1.0000
  I   I353      1.0  0.06475  0.75506  0.21686  1.0000
  I   I354      1.0  0.68719  0.30231  0.70760  1.0000
  I   I355      1.0  0.30752  0.63184  0.54106  1.0000
  I   I356      1.0  0.31542  0.67888  0.52584  1.0000
  I   I357      1.0  0.72114  0.92096  0.76718  1.0000
  I   I358      1.0  0.92383  0.81234  0.70957  1.0000
  I   I359      1.0  0.15096  0.05808  0.25027  1.0000
  I   I360      1.0  0.91817  0.02349  0.78200  1.0000
  I   I361      1.0  0.71037  0.27777  0.16339  1.0000
  I   I362      1.0  0.42297  0.34512  0.47165  1.0000
  I   I363      1.0  0.72117  0.88945  0.69122  1.0000
  I   I364      1.0  0.23839  0.87163  0.91995  1.0000
  I   I365      1.0  0.21871  0.45207  0.58063  1.0000
  I   I366      1.0  0.18885  0.78847  0.97089  1.0000
  I   I367      1.0  0.75887  0.67370  0.56558  1.0000
  I   I368      1.0  0.01444  0.31894  0.64319  1.0000
  I   I369      1.0  0.37553  0.83829  0.15577  1.0000
  I   I370      1.0  0.66745  0.48078  0.86866  1.0000
  I   I371      1.0  0.14912  0.35993  0.55909  1.0000
  I   I372      1.0  0.86361  0.26561  0.76696  1.0000
  I   I373      1.0  0.15541  0.11449  0.60399  1.0000
  I   I374      1.0  0.86348  0.06508  0.57025  1.0000
  I   I375      1.0  0.13610  0.24466  0.35243  1.0000
  I   I376      1.0  0.61011  0.42689  0.47549  1.0000
  I   I377      1.0  0.51976  0.29451  0.02985  1.0000
  I   I378      1.0  0.97800  0.83676  0.37325  1.0000
  I   I379      1.0  0.28588  0.49358  0.42062  1.0000
  I   I380      1.0  0.34745  0.76216  0.59185  1.0000
  I   I381      1.0  0.07387  0.31026  0.91510  1.0000
  I   I382      1.0  0.94350  0.94613  0.29402  1.0000
  I   I383      1.0  0.35933  0.62927  0.99927  1.0000
  I   I384      1.0  0.86779  0.01092  0.77723  1.0000
