data_image0
_chemical_formula_structural       Ti96I384
_chemical_formula_sum              "Ti96 I384"
_cell_length_a       49.0476
_cell_length_b       48.6236
_cell_length_c       23.7265
_cell_angle_alpha    88.7757
_cell_angle_beta     88.7757
_cell_angle_gamma    62.1586

_space_group_name_H-M_alt    "P 1"
_space_group_IT_number       1

loop_
  _space_group_symop_operation_xyz
  'x, y, z'

loop_
  _atom_site_type_symbol
  _atom_site_label
  _atom_site_symmetry_multiplicity
  _atom_site_fract_x
  _atom_site_fract_y
  _atom_site_fract_z
  _atom_site_occupancy
  Ti  Ti1       1.0  0.41921  0.97381  0.35443  1.0000
  Ti  Ti2       1.0  0.15105  0.01750  0.04320  1.0000
  Ti  Ti3       1.0  0.31301  0.97513  0.14101  1.0000
  Ti  Ti4       1.0  0.13478  0.21221  0.39725  1.0000
  Ti  Ti5       1.0  0.12169  0.29861  0.86821  1.0000
  Ti  Ti6       1.0  0.20433  0.16892  0.06716  1.0000
  Ti  Ti7       1.0  0.95919  0.69674  0.30392  1.0000
  Ti  Ti8       1.0  0.88988  0.84528  0.65272  1.0000
  Ti  Ti9       1.0  0.86660  0.85901  0.09825  1.0000
  Ti  Ti10      1.0  0.02617  0.83818  0.15817  1.0000
  Ti  Ti11      1.0  0.11911  0.83565  0.73558  1.0000
  Ti  Ti12      1.0  0.06541  0.71397  0.69578  1.0000
  Ti  Ti13      1.0  0.40139  0.17138  0.42017  1.0000
  Ti  Ti14      1.0  0.38765  0.04951  0.71019  1.0000
  Ti  Ti15      1.0  0.41290  0.11299  0.09142  1.0000
  Ti  Ti16      1.0  0.28966  0.61183  0.83012  1.0000
  Ti  Ti17      1.0  0.23289  0.59650  0.16012  1.0000
  Ti  Ti18      1.0  0.32166  0.40968  0.72147  1.0000
  Ti  Ti19      1.0  0.37055  0.76490  0.12906  1.0000
  Ti  Ti20      1.0  0.58344  0.55099  0.68430  1.0000
  Ti  Ti21      1.0  0.32622  0.70684  0.37602  1.0000
  Ti  Ti22      1.0  0.30968  0.89468  0.71423  1.0000
  Ti  Ti23      1.0  0.49785  0.89568  0.87683  1.0000
  Ti  Ti24      1.0  0.44924  0.81459  0.52848  1.0000
  Ti  Ti25      1.0  0.55243  0.23160  0.69444  1.0000
  Ti  Ti26      1.0  0.45979  0.27237  0.93355  1.0000
  Ti  Ti27      1.0  0.57573  0.20039  0.35983  1.0000
  Ti  Ti28      1.0  0.63030  0.37524  0.40097  1.0000
  Ti  Ti29      1.0  0.71063  0.37514  0.84491  1.0000
  Ti  Ti30      1.0  0.55346  0.43576  0.00868  1.0000
  Ti  Ti31      1.0  0.72909  0.53330  0.37126  1.0000
  Ti  Ti32      1.0  0.86082  0.47943  0.77975  1.0000
  Ti  Ti33      1.0  0.73454  0.54254  0.02761  1.0000
  Ti  Ti34      1.0  0.80045  0.68341  0.93821  1.0000
  Ti  Ti35      1.0  0.59156  0.84562  0.31826  1.0000
  Ti  Ti36      1.0  0.76674  0.67851  0.62541  1.0000
  Ti  Ti37      1.0  0.79941  0.15477  0.92944  1.0000
  Ti  Ti38      1.0  0.90509  0.16673  0.16722  1.0000
  Ti  Ti39      1.0  0.77825  0.18196  0.54534  1.0000
  Ti  Ti40      1.0  0.91426  0.38251  0.08406  1.0000
  Ti  Ti41      1.0  0.94676  0.33084  0.52283  1.0000
  Ti  Ti42      1.0  0.10860  0.03524  0.50649  1.0000
  Ti  Ti43      1.0  0.02451  0.48789  0.25802  1.0000
  Ti  Ti44      1.0  0.06147  0.49728  0.54752  1.0000
  Ti  Ti45      1.0  0.12217  0.52945  0.81957  1.0000
  Ti  Ti46      1.0  0.75870  0.01066  0.43606  1.0000
  Ti  Ti47      1.0  0.70708  0.04219  0.73122  1.0000
  Ti  Ti48      1.0  0.62732  0.05855  0.02384  1.0000
  Ti  Ti49      1.0  0.33524  0.02310  0.33694  1.0000
  Ti  Ti50      1.0  0.07956  0.05671  0.96825  1.0000
  Ti  Ti51      1.0  0.21068  0.01983  0.15641  1.0000
  Ti  Ti52      1.0  0.08952  0.25611  0.28625  1.0000
  Ti  Ti53      1.0  0.10369  0.31306  0.67692  1.0000
  Ti  Ti54      1.0  0.14672  0.20546  0.92203  1.0000
  Ti  Ti55      1.0  0.91731  0.75953  0.19610  1.0000
  Ti  Ti56      1.0  0.90519  0.91228  0.64034  1.0000
  Ti  Ti57      1.0  0.87553  0.87905  0.94773  1.0000
  Ti  Ti58      1.0  0.97701  0.94089  0.15628  1.0000
  Ti  Ti59      1.0  0.09110  0.82485  0.23885  1.0000
  Ti  Ti60      1.0  0.11537  0.76497  0.69125  1.0000
  Ti  Ti61      1.0  0.38609  0.15283  0.23929  1.0000
  Ti  Ti62      1.0  0.33078  0.26406  0.49412  1.0000
  Ti  Ti63      1.0  0.34093  0.10681  0.68606  1.0000
  Ti  Ti64      1.0  0.27927  0.48402  0.60404  1.0000
  Ti  Ti65      1.0  0.27487  0.59429  0.99212  1.0000
  Ti  Ti66      1.0  0.22060  0.54631  0.26816  1.0000
  Ti  Ti67      1.0  0.30158  0.78290  0.25930  1.0000
  Ti  Ti68      1.0  0.59055  0.59959  0.76941  1.0000
  Ti  Ti69      1.0  0.29060  0.67934  0.52087  1.0000
  Ti  Ti70      1.0  0.36616  0.83862  0.62621  1.0000
  Ti  Ti71      1.0  0.54422  0.92002  0.76484  1.0000
  Ti  Ti72      1.0  0.44731  0.85220  0.91511  1.0000
  Ti  Ti73      1.0  0.54711  0.19753  0.52390  1.0000
  Ti  Ti74      1.0  0.49545  0.21337  0.78689  1.0000
  Ti  Ti75      1.0  0.44206  0.25843  0.09324  1.0000
  Ti  Ti76      1.0  0.48441  0.49336  0.88648  1.0000
  Ti  Ti77      1.0  0.58214  0.44345  0.48044  1.0000
  Ti  Ti78      1.0  0.62677  0.38637  0.87736  1.0000
  Ti  Ti79      1.0  0.75987  0.56075  0.19558  1.0000
  Ti  Ti80      1.0  0.80301  0.54194  0.41969  1.0000
  Ti  Ti81      1.0  0.80620  0.53295  0.88385  1.0000
  Ti  Ti82      1.0  0.74915  0.71551  0.80104  1.0000
  Ti  Ti83      1.0  0.61547  0.79605  0.19202  1.0000
  Ti  Ti84      1.0  0.74705  0.74082  0.49270  1.0000
  Ti  Ti85      1.0  0.69955  0.20509  0.91577  1.0000
  Ti  Ti86      1.0  0.83418  0.19268  0.06366  1.0000
  Ti  Ti87      1.0  0.75072  0.22399  0.42766  1.0000
  Ti  Ti88      1.0  0.90369  0.31809  0.14139  1.0000
  Ti  Ti89      1.0  0.95443  0.25797  0.61068  1.0000
  Ti  Ti90      1.0  0.19128  0.98310  0.40852  1.0000
  Ti  Ti91      1.0  0.11987  0.52366  0.98969  1.0000
  Ti  Ti92      1.0  0.97817  0.54102  0.42204  1.0000
  Ti  Ti93      1.0  0.03598  0.54025  0.72720  1.0000
  Ti  Ti94      1.0  0.60648  0.02583  0.16029  1.0000
  Ti  Ti95      1.0  0.71999  0.97810  0.57569  1.0000
  Ti  Ti96      1.0  0.65527  0.02015  0.85749  1.0000
  I   I1        1.0  0.06995  0.07388  0.86539  1.0000
  I   I2        1.0  0.18288  0.98356  0.13617  1.0000
  I   I3        1.0  0.28442  0.04128  0.40021  1.0000
  I   I4        1.0  0.09388  0.28118  0.59941  1.0000
  I   I5        1.0  0.16691  0.23998  0.85805  1.0000
  I   I6        1.0  0.18000  0.15446  0.15518  1.0000
  I   I7        1.0  0.88303  0.95657  0.71776  1.0000
  I   I8        1.0  0.84703  0.90270  0.67736  1.0000
  I   I9        1.0  0.91350  0.83910  0.17306  1.0000
  I   I10       1.0  0.08241  0.82144  0.11106  1.0000
  I   I11       1.0  0.16026  0.78345  0.65203  1.0000
  I   I12       1.0  0.96595  0.96680  0.25599  1.0000
  I   I13       1.0  0.33844  0.21368  0.43078  1.0000
  I   I14       1.0  0.42975  0.07527  0.70867  1.0000
  I   I15       1.0  0.39541  0.09665  0.20114  1.0000
  I   I16       1.0  0.31550  0.61709  0.94864  1.0000
  I   I17       1.0  0.25926  0.53213  0.14217  1.0000
  I   I18       1.0  0.31250  0.49100  0.52208  1.0000
  I   I19       1.0  0.62120  0.54074  0.81318  1.0000
  I   I20       1.0  0.27752  0.71544  0.60092  1.0000
  I   I21       1.0  0.30848  0.77220  0.38048  1.0000
  I   I22       1.0  0.53645  0.97509  0.72363  1.0000
  I   I23       1.0  0.49530  0.94969  0.89893  1.0000
  I   I24       1.0  0.38291  0.86596  0.52968  1.0000
  I   I25       1.0  0.54618  0.18007  0.72624  1.0000
  I   I26       1.0  0.44308  0.23027  0.98351  1.0000
  I   I27       1.0  0.59325  0.15538  0.45069  1.0000
  I   I28       1.0  0.64163  0.42426  0.44189  1.0000
  I   I29       1.0  0.69331  0.32959  0.88125  1.0000
  I   I30       1.0  0.50354  0.43300  0.93523  1.0000
  I   I31       1.0  0.73396  0.58237  0.42460  1.0000
  I   I32       1.0  0.80670  0.56566  0.78402  1.0000
  I   I33       1.0  0.75426  0.58264  0.07842  1.0000
  I   I34       1.0  0.58596  0.82017  0.09321  1.0000
  I   I35       1.0  0.71604  0.80140  0.48850  1.0000
  I   I36       1.0  0.74108  0.67320  0.72753  1.0000
  I   I37       1.0  0.80496  0.15788  0.04586  1.0000
  I   I38       1.0  0.75462  0.23461  0.32038  1.0000
  I   I39       1.0  0.66121  0.17525  0.91635  1.0000
  I   I40       1.0  0.92857  0.22038  0.61878  1.0000
  I   I41       1.0  0.20419  0.95432  0.31449  1.0000
  I   I42       1.0  0.93740  0.34418  0.00112  1.0000
  I   I43       1.0  0.96495  0.50225  0.31058  1.0000
  I   I44       1.0  0.02694  0.49553  0.64872  1.0000
  I   I45       1.0  0.07703  0.51637  0.92844  1.0000
  I   I46       1.0  0.77501  0.95677  0.52116  1.0000
  I   I47       1.0  0.71372  0.99540  0.81666  1.0000
  I   I48       1.0  0.65182  0.99530  0.05933  1.0000
  I   I49       1.0  0.38748  0.01478  0.26326  1.0000
  I   I50       1.0  0.10271  0.02135  0.09383  1.0000
  I   I51       1.0  0.24359  0.04802  0.12219  1.0000
  I   I52       1.0  0.07787  0.26530  0.39897  1.0000
  I   I53       1.0  0.09056  0.28519  0.78200  1.0000
  I   I54       1.0  0.15102  0.16979  0.01289  1.0000
  I   I55       1.0  0.91534  0.70776  0.20607  1.0000
  I   I56       1.0  0.91806  0.86576  0.56093  1.0000
  I   I57       1.0  0.91543  0.82623  0.00877  1.0000
  I   I58       1.0  0.01674  0.79766  0.08828  1.0000
  I   I59       1.0  0.13431  0.83796  0.20606  1.0000
  I   I60       1.0  0.06045  0.77218  0.73007  1.0000
  I   I61       1.0  0.40606  0.18943  0.29804  1.0000
  I   I62       1.0  0.34199  0.30989  0.45474  1.0000
  I   I63       1.0  0.34336  0.15869  0.66415  1.0000
  I   I64       1.0  0.24891  0.63548  0.74912  1.0000
  I   I65       1.0  0.21780  0.60636  0.03720  1.0000
  I   I66       1.0  0.19441  0.51199  0.24599  1.0000
  I   I67       1.0  0.31092  0.77476  0.13862  1.0000
  I   I68       1.0  0.53965  0.58833  0.75307  1.0000
  I   I69       1.0  0.26460  0.72259  0.41476  1.0000
  I   I70       1.0  0.35791  0.82144  0.73010  1.0000
  I   I71       1.0  0.55452  0.85887  0.81996  1.0000
  I   I72       1.0  0.42905  0.81763  0.85966  1.0000
  I   I73       1.0  0.50861  0.24546  0.59454  1.0000
  I   I74       1.0  0.43582  0.26148  0.83614  1.0000
  I   I75       1.0  0.44126  0.29857  0.16708  1.0000
  I   I76       1.0  0.58059  0.42620  0.35604  1.0000
  I   I77       1.0  0.59469  0.45174  0.58041  1.0000
  I   I78       1.0  0.58194  0.44400  0.89541  1.0000
  I   I79       1.0  0.78586  0.52350  0.29894  1.0000
  I   I80       1.0  0.85210  0.48769  0.44017  1.0000
  I   I81       1.0  0.79949  0.51319  0.99853  1.0000
  I   I82       1.0  0.74807  0.76155  0.85586  1.0000
  I   I83       1.0  0.54943  0.84249  0.25536  1.0000
  I   I84       1.0  0.72245  0.74028  0.60304  1.0000
  I   I85       1.0  0.75315  0.21662  0.93298  1.0000
  I   I86       1.0  0.87199  0.22325  0.08517  1.0000
  I   I87       1.0  0.74041  0.20714  0.63418  1.0000
  I   I88       1.0  0.85694  0.35663  0.08000  1.0000
  I   I89       1.0  0.94753  0.37232  0.58944  1.0000
  I   I90       1.0  0.17162  0.99439  0.52741  1.0000
  I   I91       1.0  0.17114  0.52859  0.98659  1.0000
  I   I92       1.0  0.99426  0.55907  0.51536  1.0000
  I   I93       1.0  0.05977  0.57072  0.78513  1.0000
  I   I94       1.0  0.58035  0.98811  0.13634  1.0000
  I   I95       1.0  0.67293  0.01261  0.65923  1.0000
  I   I96       1.0  0.60304  0.05763  0.92054  1.0000
  I   I97       1.0  0.30044  0.00126  0.25466  1.0000
  I   I98       1.0  0.45550  0.99181  0.42263  1.0000
  I   I99       1.0  0.15355  0.06435  0.11855  1.0000
  I   I100      1.0  0.13157  0.27015  0.25813  1.0000
  I   I101      1.0  0.12553  0.17860  0.48216  1.0000
  I   I102      1.0  0.10927  0.26806  0.97619  1.0000
  I   I103      1.0  0.88184  0.78860  0.11226  1.0000
  I   I104      1.0  0.99509  0.64409  0.25070  1.0000
  I   I105      1.0  0.85680  0.85297  0.86999  1.0000
  I   I106      1.0  0.02806  0.71782  0.77654  1.0000
  I   I107      1.0  0.05243  0.79323  0.23046  1.0000
  I   I108      1.0  0.13058  0.77431  0.79246  1.0000
  I   I109      1.0  0.44617  0.12979  0.19582  1.0000
  I   I110      1.0  0.39691  0.22796  0.47899  1.0000
  I   I111      1.0  0.41046  0.01167  0.62308  1.0000
  I   I112      1.0  0.32408  0.42203  0.60752  1.0000
  I   I113      1.0  0.24347  0.64472  0.91134  1.0000
  I   I114      1.0  0.18134  0.59282  0.18330  1.0000
  I   I115      1.0  0.31044  0.71858  0.26400  1.0000
  I   I116      1.0  0.35375  0.77458  0.02302  1.0000
  I   I117      1.0  0.59447  0.49493  0.71279  1.0000
  I   I118      1.0  0.36771  0.78894  0.58646  1.0000
  I   I119      1.0  0.33340  0.90591  0.79877  1.0000
  I   I120      1.0  0.49261  0.87084  0.97559  1.0000
  I   I121      1.0  0.56865  0.23779  0.47037  1.0000
  I   I122      1.0  0.49969  0.26637  0.74501  1.0000
  I   I123      1.0  0.41073  0.31068  0.00308  1.0000
  I   I124      1.0  0.51433  0.49769  0.98831  1.0000
  I   I125      1.0  0.68297  0.35850  0.34869  1.0000
  I   I126      1.0  0.66161  0.40360  0.94105  1.0000
  I   I127      1.0  0.73680  0.52460  0.14165  1.0000
  I   I128      1.0  0.77004  0.50238  0.45619  1.0000
  I   I129      1.0  0.80603  0.48238  0.83346  1.0000
  I   I130      1.0  0.78217  0.71634  0.70969  1.0000
  I   I131      1.0  0.78189  0.65708  0.01829  1.0000
  I   I132      1.0  0.63180  0.77598  0.30758  1.0000
  I   I133      1.0  0.82121  0.18475  0.59998  1.0000
  I   I134      1.0  0.84414  0.17609  0.94646  1.0000
  I   I135      1.0  0.89424  0.20784  0.24287  1.0000
  I   I136      1.0  0.10357  0.06509  0.60356  1.0000
  I   I137      1.0  0.95515  0.40057  0.10106  1.0000
  I   I138      1.0  0.97888  0.33784  0.43563  1.0000
  I   I139      1.0  0.11139  0.57474  0.88701  1.0000
  I   I140      1.0  0.02773  0.52974  0.34110  1.0000
  I   I141      1.0  0.06427  0.53861  0.62183  1.0000
  I   I142      1.0  0.57133  0.06289  0.07405  1.0000
  I   I143      1.0  0.70312  0.03191  0.49471  1.0000
  I   I144      1.0  0.65139  0.07610  0.80118  1.0000
  I   I145      1.0  0.37288  0.95890  0.33249  1.0000
  I   I146      1.0  0.14615  0.98345  0.95839  1.0000
  I   I147      1.0  0.30065  0.95755  0.04667  1.0000
  I   I148      1.0  0.10416  0.19668  0.31152  1.0000
  I   I149      1.0  0.12585  0.33509  0.76776  1.0000
  I   I150      1.0  0.19892  0.21022  0.97480  1.0000
  I   I151      1.0  0.87364  0.78884  0.27179  1.0000
  I   I152      1.0  0.86836  0.82943  0.56526  1.0000
  I   I153      1.0  0.86620  0.91313  0.06968  1.0000
  I   I154      1.0  0.00123  0.89333  0.06570  1.0000
  I   I155      1.0  0.17784  0.82327  0.77409  1.0000
  I   I156      1.0  0.12757  0.70532  0.73976  1.0000
  I   I157      1.0  0.41630  0.11888  0.36237  1.0000
  I   I158      1.0  0.35754  0.09676  0.79418  1.0000
  I   I159      1.0  0.37619  0.09958  0.03300  1.0000
  I   I160      1.0  0.24958  0.45363  0.57084  1.0000
  I   I161      1.0  0.28391  0.60446  0.11165  1.0000
  I   I162      1.0  0.34811  0.41841  0.81106  1.0000
  I   I163      1.0  0.36892  0.75517  0.24953  1.0000
  I   I164      1.0  0.56367  0.64395  0.84108  1.0000
  I   I165      1.0  0.33213  0.70885  0.49757  1.0000
  I   I166      1.0  0.30642  0.86899  0.61327  1.0000
  I   I167      1.0  0.48899  0.91707  0.75993  1.0000
  I   I168      1.0  0.49715  0.75998  0.54311  1.0000
  I   I169      1.0  0.59810  0.19143  0.61553  1.0000
  I   I170      1.0  0.51734  0.22472  0.90900  1.0000
  I   I171      1.0  0.55063  0.16953  0.30977  1.0000
  I   I172      1.0  0.47992  0.48068  0.78351  1.0000
  I   I173      1.0  0.73906  0.37165  0.94251  1.0000
  I   I174      1.0  0.60039  0.37158  0.98765  1.0000
  I   I175      1.0  0.70456  0.57541  0.27832  1.0000
  I   I176      1.0  0.90837  0.48677  0.76709  1.0000
  I   I177      1.0  0.74225  0.56440  0.90832  1.0000
  I   I178      1.0  0.80354  0.65990  0.83411  1.0000
  I   I179      1.0  0.63019  0.84638  0.22973  1.0000
  I   I180      1.0  0.75125  0.63729  0.59588  1.0000
  I   I181      1.0  0.74293  0.14848  0.95960  1.0000
  I   I182      1.0  0.89296  0.14054  0.07265  1.0000
  I   I183      1.0  0.72843  0.18559  0.47804  1.0000
  I   I184      1.0  0.89544  0.38354  0.20315  1.0000
  I   I185      1.0  0.95417  0.26645  0.50368  1.0000
  I   I186      1.0  0.12970  0.99842  0.39960  1.0000
  I   I187      1.0  0.00013  0.52276  0.16675  1.0000
  I   I188      1.0  0.02938  0.48476  0.47255  1.0000
  I   I189      1.0  0.09939  0.49752  0.75532  1.0000
  I   I190      1.0  0.79160  0.97163  0.35768  1.0000
  I   I191      1.0  0.75272  0.99252  0.67808  1.0000
  I   I192      1.0  0.68585  0.03521  0.97222  1.0000
  I   I193      1.0  0.46522  0.93995  0.28834  1.0000
  I   I194      1.0  0.12893  0.07597  0.96765  1.0000
  I   I195      1.0  0.32957  0.01904  0.12454  1.0000
  I   I196      1.0  0.15268  0.24620  0.45804  1.0000
  I   I197      1.0  0.06941  0.34734  0.90019  1.0000
  I   I198      1.0  0.24739  0.18247  0.09996  1.0000
  I   I199      1.0  0.91864  0.69755  0.37558  1.0000
  I   I200      1.0  0.93160  0.85605  0.71376  1.0000
  I   I201      1.0  0.83185  0.85728  0.00753  1.0000
  I   I202      1.0  0.97160  0.88220  0.19877  1.0000
  I   I203      1.0  0.11376  0.88014  0.66876  1.0000
  I   I204      1.0  0.09463  0.65365  0.69694  1.0000
  I   I205      1.0  0.46211  0.15020  0.42446  1.0000
  I   I206      1.0  0.33380  0.04827  0.70098  1.0000
  I   I207      1.0  0.42142  0.14207  0.00613  1.0000
  I   I208      1.0  0.31922  0.64049  0.79919  1.0000
  I   I209      1.0  0.20172  0.65489  0.16860  1.0000
  I   I210      1.0  0.28832  0.38970  0.77529  1.0000
  I   I211      1.0  0.43152  0.72137  0.12513  1.0000
  I   I212      1.0  0.64523  0.60320  0.76982  1.0000
  I   I213      1.0  0.32711  0.65215  0.40075  1.0000
  I   I214      1.0  0.27145  0.87799  0.76755  1.0000
  I   I215      1.0  0.49593  0.83913  0.83612  1.0000
  I   I216      1.0  0.43417  0.81555  0.42334  1.0000
  I   I217      1.0  0.54726  0.28709  0.64866  1.0000
  I   I218      1.0  0.47064  0.31735  0.90454  1.0000
  I   I219      1.0  0.55828  0.24970  0.30129  1.0000
  I   I220      1.0  0.60658  0.33889  0.37368  1.0000
  I   I221      1.0  0.76313  0.33654  0.79890  1.0000
  I   I222      1.0  0.58966  0.45283  0.06058  1.0000
  I   I223      1.0  0.73126  0.48972  0.30621  1.0000
  I   I224      1.0  0.89717  0.41903  0.77573  1.0000
  I   I225      1.0  0.72436  0.50256  0.97923  1.0000
  I   I226      1.0  0.79816  0.73046  0.99067  1.0000
  I   I227      1.0  0.58966  0.83031  0.42503  1.0000
  I   I228      1.0  0.79077  0.67948  0.50725  1.0000
  I   I229      1.0  0.80557  0.15042  0.81535  1.0000
  I   I230      1.0  0.95412  0.17371  0.14244  1.0000
  I   I231      1.0  0.81230  0.17691  0.43751  1.0000
  I   I232      1.0  0.86817  0.42954  0.03264  1.0000
  I   I233      1.0  0.91292  0.31016  0.66538  1.0000
  I   I234      1.0  0.05361  0.04175  0.50017  1.0000
  I   I235      1.0  0.08114  0.46702  0.22840  1.0000
  I   I236      1.0  0.10564  0.50151  0.49058  1.0000
  I   I237      1.0  0.15909  0.54102  0.75508  1.0000
  I   I238      1.0  0.73250  0.05414  0.35932  1.0000
  I   I239      1.0  0.69297  0.08977  0.65709  1.0000
  I   I240      1.0  0.59711  0.11780  0.03225  1.0000
  I   I241      1.0  0.43762  0.93009  0.43230  1.0000
  I   I242      1.0  0.21042  0.01058  0.01478  1.0000
  I   I243      1.0  0.36332  0.92294  0.16708  1.0000
  I   I244      1.0  0.18534  0.19025  0.33613  1.0000
  I   I245      1.0  0.15758  0.31174  0.92424  1.0000
  I   I246      1.0  0.24792  0.12026  0.02623  1.0000
  I   I247      1.0  0.00899  0.67926  0.37119  1.0000
  I   I248      1.0  0.90700  0.79092  0.70794  1.0000
  I   I249      1.0  0.82692  0.87183  0.18441  1.0000
  I   I250      1.0  0.04484  0.88965  0.19921  1.0000
  I   I251      1.0  0.07467  0.86941  0.80177  1.0000
  I   I252      1.0  0.02860  0.72247  0.61466  1.0000
  I   I253      1.0  0.41020  0.15015  0.52826  1.0000
  I   I254      1.0  0.41224  0.00676  0.79486  1.0000
  I   I255      1.0  0.46721  0.06869  0.09306  1.0000
  I   I256      1.0  0.31963  0.55576  0.77852  1.0000
  I   I257      1.0  0.25657  0.57567  0.26745  1.0000
  I   I258      1.0  0.36827  0.35379  0.71116  1.0000
  I   I259      1.0  0.37215  0.81318  0.14193  1.0000
  I   I260      1.0  0.55704  0.55318  0.58688  1.0000
  I   I261      1.0  0.38432  0.68239  0.36266  1.0000
  I   I262      1.0  0.27136  0.95076  0.68355  1.0000
  I   I263      1.0  0.43580  0.91333  0.87187  1.0000
  I   I264      1.0  0.47357  0.84977  0.54445  1.0000
  I   I265      1.0  0.59191  0.22209  0.77756  1.0000
  I   I266      1.0  0.48774  0.27364  0.03953  1.0000
  I   I267      1.0  0.63382  0.17236  0.35002  1.0000
  I   I268      1.0  0.63249  0.36246  0.50805  1.0000
  I   I269      1.0  0.70818  0.42298  0.79213  1.0000
  I   I270      1.0  0.52707  0.42011  0.08572  1.0000
  I   I271      1.0  0.67621  0.54451  0.41643  1.0000
  I   I272      1.0  0.83738  0.48750  0.68359  1.0000
  I   I273      1.0  0.67580  0.58798  0.03196  1.0000
  I   I274      1.0  0.85970  0.64730  0.94164  1.0000
  I   I275      1.0  0.57917  0.90252  0.33772  1.0000
  I   I276      1.0  0.82470  0.64277  0.65119  1.0000
  I   I277      1.0  0.83463  0.09262  0.94043  1.0000
  I   I278      1.0  0.92891  0.11671  0.23175  1.0000
  I   I279      1.0  0.79470  0.12471  0.56319  1.0000
  I   I280      1.0  0.95747  0.31679  0.15233  1.0000
  I   I281      1.0  0.88999  0.36125  0.48917  1.0000
  I   I282      1.0  0.09441  0.08342  0.44542  1.0000
  I   I283      1.0  0.02226  0.43919  0.22870  1.0000
  I   I284      1.0  0.09979  0.44258  0.58683  1.0000
  I   I285      1.0  0.15806  0.47730  0.87472  1.0000
  I   I286      1.0  0.79934  0.02765  0.46585  1.0000
  I   I287      1.0  0.73907  0.05590  0.79788  1.0000
  I   I288      1.0  0.63960  0.06253  0.14435  1.0000
  I   I289      1.0  0.37222  0.03013  0.40821  1.0000
  I   I290      1.0  0.04295  0.03109  0.97315  1.0000
  I   I291      1.0  0.25910  0.96508  0.18224  1.0000
  I   I292      1.0  0.09760  0.23872  0.17158  1.0000
  I   I293      1.0  0.06106  0.36594  0.63941  1.0000
  I   I294      1.0  0.17357  0.16131  0.85570  1.0000
  I   I295      1.0  0.96626  0.74633  0.27959  1.0000
  I   I296      1.0  0.96081  0.90519  0.63129  1.0000
  I   I297      1.0  0.84297  0.93537  0.92322  1.0000
  I   I298      1.0  0.99664  0.97151  0.09499  1.0000
  I   I299      1.0  0.13953  0.76769  0.25952  1.0000
  I   I300      1.0  0.10317  0.73477  0.59644  1.0000
  I   I301      1.0  0.32751  0.17152  0.28414  1.0000
  I   I302      1.0  0.33330  0.25830  0.60065  1.0000
  I   I303      1.0  0.28454  0.12733  0.72076  1.0000
  I   I304      1.0  0.22602  0.53471  0.63294  1.0000
  I   I305      1.0  0.31720  0.53420  0.03023  1.0000
  I   I306      1.0  0.19808  0.55761  0.37898  1.0000
  I   I307      1.0  0.30402  0.83540  0.27866  1.0000
  I   I308      1.0  0.64024  0.51747  0.63582  1.0000
  I   I309      1.0  0.25059  0.65888  0.50979  1.0000
  I   I310      1.0  0.35579  0.90508  0.66406  1.0000
  I   I311      1.0  0.59811  0.90074  0.80602  1.0000
  I   I312      1.0  0.41126  0.87771  0.99600  1.0000
  I   I313      1.0  0.54254  0.15013  0.56274  1.0000
  I   I314      1.0  0.50076  0.16329  0.83975  1.0000
  I   I315      1.0  0.47328  0.20652  0.14628  1.0000
  I   I316      1.0  0.48056  0.54820  0.87044  1.0000
  I   I317      1.0  0.53612  0.43280  0.50660  1.0000
  I   I318      1.0  0.59708  0.35441  0.83844  1.0000
  I   I319      1.0  0.75516  0.61108  0.23768  1.0000
  I   I320      1.0  0.80558  0.56298  0.51730  1.0000
  I   I321      1.0  0.81013  0.57986  0.93586  1.0000
  I   I322      1.0  0.73467  0.69787  0.90370  1.0000
  I   I323      1.0  0.66929  0.75520  0.15641  1.0000
  I   I324      1.0  0.78996  0.74435  0.43089  1.0000
  I   I325      1.0  0.66898  0.24702  0.99409  1.0000
  I   I326      1.0  0.83835  0.18590  0.17554  1.0000
  I   I327      1.0  0.69330  0.27150  0.42597  1.0000
  I   I328      1.0  0.87983  0.29705  0.21337  1.0000
  I   I329      1.0  0.99173  0.28768  0.59872  1.0000
  I   I330      1.0  0.22341  0.01017  0.39699  1.0000
  I   I331      1.0  0.14389  0.47221  0.04979  1.0000
  I   I332      1.0  0.93284  0.53886  0.48398  1.0000
  I   I333      1.0  0.01046  0.51966  0.80375  1.0000
  I   I334      1.0  0.56851  0.06255  0.23318  1.0000
  I   I335      1.0  0.75095  0.92157  0.62620  1.0000
  I   I336      1.0  0.65478  0.96948  0.90407  1.0000
  I   I337      1.0  0.30620  0.07629  0.28299  1.0000
  I   I338      1.0  0.04670  0.10830  0.01791  1.0000
  I   I339      1.0  0.18320  0.04377  0.24705  1.0000
  I   I340      1.0  0.04045  0.30995  0.26805  1.0000
  I   I341      1.0  0.15198  0.30535  0.61138  1.0000
  I   I342      1.0  0.08601  0.21791  0.92120  1.0000
  I   I343      1.0  0.96736  0.75014  0.13315  1.0000
  I   I344      1.0  0.88714  0.95246  0.55727  1.0000
  I   I345      1.0  0.92807  0.87782  0.91304  1.0000
  I   I346      1.0  0.91930  0.96200  0.12715  1.0000
  I   I347      1.0  0.09010  0.83338  0.35167  1.0000
  I   I348      1.0  0.08761  0.81967  0.64487  1.0000
  I   I349      1.0  0.36722  0.17970  0.13889  1.0000
  I   I350      1.0  0.27475  0.29278  0.46514  1.0000
  I   I351      1.0  0.35686  0.09669  0.57522  1.0000
  I   I352      1.0  0.29079  0.48083  0.71296  1.0000
  I   I353      1.0  0.26614  0.56734  0.90433  1.0000
  I   I354      1.0  0.26838  0.50369  0.31914  1.0000
  I   I355      1.0  0.24181  0.81063  0.25505  1.0000
  I   I356      1.0  0.57990  0.61373  0.65379  1.0000
  I   I357      1.0  0.33900  0.63173  0.57084  1.0000
  I   I358      1.0  0.43017  0.81003  0.64407  1.0000
  I   I359      1.0  0.56260  0.88546  0.67431  1.0000
  I   I360      1.0  0.48341  0.80019  0.97859  1.0000
  I   I361      1.0  0.50920  0.21878  0.42998  1.0000
  I   I362      1.0  0.45097  0.21876  0.71337  1.0000
  I   I363      1.0  0.38292  0.26748  0.11048  1.0000
  I   I364      1.0  0.43054  0.51425  0.94416  1.0000
  I   I365      1.0  0.55712  0.49957  0.43753  1.0000
  I   I366      1.0  0.64148  0.40494  0.78201  1.0000
  I   I367      1.0  0.81921  0.52742  0.17178  1.0000
  I   I368      1.0  0.82491  0.57445  0.36644  1.0000
  I   I369      1.0  0.87193  0.49236  0.89509  1.0000
  I   I370      1.0  0.68712  0.74828  0.78131  1.0000
  I   I371      1.0  0.59710  0.75448  0.18238  1.0000
  I   I372      1.0  0.72883  0.71560  0.41245  1.0000
  I   I373      1.0  0.69443  0.23217  0.82119  1.0000
  I   I374      1.0  0.78858  0.24852  0.04195  1.0000
  I   I375      1.0  0.77140  0.25949  0.46541  1.0000
  I   I376      1.0  0.93502  0.26907  0.07621  1.0000
  I   I377      1.0  0.99769  0.22272  0.68479  1.0000
  I   I378      1.0  0.22312  0.92814  0.46236  1.0000
  I   I379      1.0  0.08593  0.56717  0.06118  1.0000
  I   I380      1.0  0.94603  0.59024  0.35616  1.0000
  I   I381      1.0  0.98645  0.59376  0.70252  1.0000
  I   I382      1.0  0.64630  0.98988  0.23814  1.0000
  I   I383      1.0  0.69320  0.95257  0.51921  1.0000
  I   I384      1.0  0.61692  0.02040  0.77765  1.0000
