data_image0
_chemical_formula_structural       Ti96I384
_chemical_formula_sum              "Ti96 I384"
_cell_length_a       72.1976
_cell_length_b       72.1301
_cell_length_c       35.3
_cell_angle_alpha    88.7757
_cell_angle_beta     88.7757
_cell_angle_gamma    62.1586

_space_group_name_H-M_alt    "P 1"
_space_group_IT_number       1

loop_
  _space_group_symop_operation_xyz
  'x, y, z'

loop_
  _atom_site_type_symbol
  _atom_site_label
  _atom_site_symmetry_multiplicity
  _atom_site_fract_x
  _atom_site_fract_y
  _atom_site_fract_z
  _atom_site_occupancy
  Ti  Ti1       1.0  0.47362  0.58772  0.41365  1.0000
  Ti  Ti2       1.0  0.14363  0.94203  0.10043  1.0000
  Ti  Ti3       1.0  0.33529  0.07596  0.65338  1.0000
  Ti  Ti4       1.0  0.95086  0.57811  0.03995  1.0000
  Ti  Ti5       1.0  0.54483  0.47296  0.24398  1.0000
  Ti  Ti6       1.0  0.64205  0.00772  0.35492  1.0000
  Ti  Ti7       1.0  0.56615  0.91364  0.37468  1.0000
  Ti  Ti8       1.0  0.15958  0.55306  0.09899  1.0000
  Ti  Ti9       1.0  0.43597  0.31895  0.43982  1.0000
  Ti  Ti10      1.0  0.51347  0.56986  0.74774  1.0000
  Ti  Ti11      1.0  0.26204  0.21830  0.57079  1.0000
  Ti  Ti12      1.0  0.91669  0.35291  0.02719  1.0000
  Ti  Ti13      1.0  0.72910  0.65175  0.23358  1.0000
  Ti  Ti14      1.0  0.96966  0.54254  0.94442  1.0000
  Ti  Ti15      1.0  0.66875  0.64162  0.56105  1.0000
  Ti  Ti16      1.0  0.39764  0.57103  0.73681  1.0000
  Ti  Ti17      1.0  0.21744  0.18920  0.93230  1.0000
  Ti  Ti18      1.0  0.28561  0.17706  0.15634  1.0000
  Ti  Ti19      1.0  0.16489  0.73744  0.39158  1.0000
  Ti  Ti20      1.0  0.24955  0.81512  0.45129  1.0000
  Ti  Ti21      1.0  0.16677  0.59951  0.19223  1.0000
  Ti  Ti22      1.0  0.97476  0.42907  0.30427  1.0000
  Ti  Ti23      1.0  0.20386  0.05389  0.33072  1.0000
  Ti  Ti24      1.0  0.85826  0.95674  0.47692  1.0000
  Ti  Ti25      1.0  0.46127  0.42796  0.30937  1.0000
  Ti  Ti26      1.0  0.65126  0.90621  0.64919  1.0000
  Ti  Ti27      1.0  0.78211  0.34214  0.20308  1.0000
  Ti  Ti28      1.0  0.29321  0.04906  0.04103  1.0000
  Ti  Ti29      1.0  0.21003  0.81994  0.02284  1.0000
  Ti  Ti30      1.0  0.28587  0.89136  0.79636  1.0000
  Ti  Ti31      1.0  0.38624  0.06226  0.40513  1.0000
  Ti  Ti32      1.0  0.35088  0.86735  0.04157  1.0000
  Ti  Ti33      1.0  0.31034  0.60802  0.59430  1.0000
  Ti  Ti34      1.0  0.72680  0.50347  0.02156  1.0000
  Ti  Ti35      1.0  0.07604  0.48644  0.32480  1.0000
  Ti  Ti36      1.0  0.88127  0.20030  0.85606  1.0000
  Ti  Ti37      1.0  0.16904  0.13109  0.75579  1.0000
  Ti  Ti38      1.0  0.69579  0.97243  0.79434  1.0000
  Ti  Ti39      1.0  0.49316  0.84757  0.03204  1.0000
  Ti  Ti40      1.0  0.44927  0.73290  0.80621  1.0000
  Ti  Ti41      1.0  0.54344  0.43514  0.74315  1.0000
  Ti  Ti42      1.0  0.95013  0.73775  0.62552  1.0000
  Ti  Ti43      1.0  0.02765  0.04282  0.40725  1.0000
  Ti  Ti44      1.0  0.57146  0.38790  0.83355  1.0000
  Ti  Ti45      1.0  0.14205  0.20324  0.45190  1.0000
  Ti  Ti46      1.0  0.39261  0.04067  0.64993  1.0000
  Ti  Ti47      1.0  0.94724  0.02968  0.85360  1.0000
  Ti  Ti48      1.0  0.07380  0.87047  0.32653  1.0000
  Ti  Ti49      1.0  0.95506  0.83554  0.82979  1.0000
  Ti  Ti50      1.0  0.81591  0.53137  0.20456  1.0000
  Ti  Ti51      1.0  0.18933  0.89897  0.09778  1.0000
  Ti  Ti52      1.0  0.72059  0.40247  0.58008  1.0000
  Ti  Ti53      1.0  0.70277  0.67477  0.01493  1.0000
  Ti  Ti54      1.0  0.65194  0.06528  0.11267  1.0000
  Ti  Ti55      1.0  0.61206  0.84353  0.33692  1.0000
  Ti  Ti56      1.0  0.23604  0.62866  0.89984  1.0000
  Ti  Ti57      1.0  0.39320  0.28978  0.39907  1.0000
  Ti  Ti58      1.0  0.37924  0.53131  0.43493  1.0000
  Ti  Ti59      1.0  0.81842  0.88924  0.26280  1.0000
  Ti  Ti60      1.0  0.92758  0.41164  0.03398  1.0000
  Ti  Ti61      1.0  0.65317  0.62011  0.49717  1.0000
  Ti  Ti62      1.0  0.73630  0.63916  0.32339  1.0000
  Ti  Ti63      1.0  0.01217  0.76505  0.19219  1.0000
  Ti  Ti64      1.0  0.26708  0.19694  0.22822  1.0000
  Ti  Ti65      1.0  0.02497  0.66851  0.35199  1.0000
  Ti  Ti66      1.0  0.78143  0.20235  0.50184  1.0000
  Ti  Ti67      1.0  0.87161  0.61247  0.24828  1.0000
  Ti  Ti68      1.0  0.13300  0.73438  0.35260  1.0000
  Ti  Ti69      1.0  0.67948  0.85223  0.68413  1.0000
  Ti  Ti70      1.0  0.86544  0.64187  0.15339  1.0000
  Ti  Ti71      1.0  0.21251  0.08505  0.41283  1.0000
  Ti  Ti72      1.0  0.97317  0.04755  0.81061  1.0000
  Ti  Ti73      1.0  0.82677  0.29343  0.14619  1.0000
  Ti  Ti74      1.0  0.48737  0.39885  0.42222  1.0000
  Ti  Ti75      1.0  0.44458  0.05956  0.05626  1.0000
  Ti  Ti76      1.0  0.23633  0.06474  0.09216  1.0000
  Ti  Ti77      1.0  0.12125  0.62494  0.44078  1.0000
  Ti  Ti78      1.0  0.26084  0.78025  0.00826  1.0000
  Ti  Ti79      1.0  0.81111  0.73289  0.33714  1.0000
  Ti  Ti80      1.0  0.96825  0.41121  0.75443  1.0000
  Ti  Ti81      1.0  0.35822  0.92680  0.99415  1.0000
  Ti  Ti82      1.0  0.96931  0.16740  0.55285  1.0000
  Ti  Ti83      1.0  0.03901  0.48802  0.41303  1.0000
  Ti  Ti84      1.0  0.87132  0.16718  0.87990  1.0000
  Ti  Ti85      1.0  0.12909  0.16201  0.73062  1.0000
  Ti  Ti86      1.0  0.73467  0.25208  0.58256  1.0000
  Ti  Ti87      1.0  0.10406  0.23473  0.50884  1.0000
  Ti  Ti88      1.0  0.70664  0.44807  0.52461  1.0000
  Ti  Ti89      1.0  0.42038  0.37406  0.69532  1.0000
  Ti  Ti90      1.0  0.99240  0.74534  0.60279  1.0000
  Ti  Ti91      1.0  0.28904  0.50069  0.39409  1.0000
  Ti  Ti92      1.0  0.52770  0.68607  0.48048  1.0000
  Ti  Ti93      1.0  0.07476  0.19136  0.86485  1.0000
  Ti  Ti94      1.0  0.03412  0.88582  0.29461  1.0000
  Ti  Ti95      1.0  0.35847  0.48579  0.10063  1.0000
  Ti  Ti96      1.0  0.86816  0.36406  0.30324  1.0000
  I   I1        1.0  0.95950  0.05545  0.89055  1.0000
  I   I2        1.0  0.16161  0.96020  0.04701  1.0000
  I   I3        1.0  0.97034  0.80099  0.79528  1.0000
  I   I4        1.0  0.68767  0.65843  0.97318  1.0000
  I   I5        1.0  0.63463  0.99564  0.41724  1.0000
  I   I6        1.0  0.66711  0.03202  0.15556  1.0000
  I   I7        1.0  0.12898  0.62585  0.17131  1.0000
  I   I8        1.0  0.20807  0.62685  0.94172  1.0000
  I   I9        1.0  0.35468  0.29621  0.41794  1.0000
  I   I10       1.0  0.49234  0.55008  0.77136  1.0000
  I   I11       1.0  0.22735  0.25031  0.60960  1.0000
  I   I12       1.0  0.51085  0.49506  0.28773  1.0000
  I   I13       1.0  0.72934  0.68789  0.26454  1.0000
  I   I14       1.0  0.99916  0.74731  0.14608  1.0000
  I   I15       1.0  0.67821  0.62336  0.62725  1.0000
  I   I16       1.0  0.51662  0.56548  0.66877  1.0000
  I   I17       1.0  0.77102  0.19043  0.44172  1.0000
  I   I18       1.0  0.31968  0.14746  0.14227  1.0000
  I   I19       1.0  0.24792  0.82596  0.52090  1.0000
  I   I20       1.0  0.28721  0.23280  0.53502  1.0000
  I   I21       1.0  0.17914  0.58614  0.11306  1.0000
  I   I22       1.0  0.20088  0.02515  0.28993  1.0000
  I   I23       1.0  0.20175  0.12391  0.40997  1.0000
  I   I24       1.0  0.83883  0.60044  0.26470  1.0000
  I   I25       1.0  0.42488  0.43876  0.29008  1.0000
  I   I26       1.0  0.47879  0.02392  0.05861  1.0000
  I   I27       1.0  0.74049  0.35402  0.21666  1.0000
  I   I28       1.0  0.33661  0.02833  0.02372  1.0000
  I   I29       1.0  0.18939  0.84829  0.96725  1.0000
  I   I30       1.0  0.30270  0.91583  0.80998  1.0000
  I   I31       1.0  0.00710  0.39187  0.73392  1.0000
  I   I32       1.0  0.37942  0.83658  0.01184  1.0000
  I   I33       1.0  0.79722  0.70724  0.30235  1.0000
  I   I34       1.0  0.04003  0.45313  0.38775  1.0000
  I   I35       1.0  0.87950  0.23826  0.86572  1.0000
  I   I36       1.0  0.72062  0.53451  0.06705  1.0000
  I   I37       1.0  0.14975  0.17539  0.78243  1.0000
  I   I38       1.0  0.47554  0.88505  0.99420  1.0000
  I   I39       1.0  0.14983  0.12141  0.69127  1.0000
  I   I40       1.0  0.56083  0.39961  0.90304  1.0000
  I   I41       1.0  0.97316  0.72687  0.54879  1.0000
  I   I42       1.0  0.48295  0.69851  0.79024  1.0000
  I   I43       1.0  0.37640  0.50295  0.39356  1.0000
  I   I44       1.0  0.55346  0.36841  0.80944  1.0000
  I   I45       1.0  0.14405  0.23034  0.50782  1.0000
  I   I46       1.0  0.32180  0.52020  0.09962  1.0000
  I   I47       1.0  0.90716  0.05980  0.84013  1.0000
  I   I48       1.0  0.02253  0.91095  0.23735  1.0000
  I   I49       1.0  0.92597  0.84570  0.88925  1.0000
  I   I50       1.0  0.20562  0.91608  0.13665  1.0000
  I   I51       1.0  0.15314  0.91092  0.15187  1.0000
  I   I52       1.0  0.96116  0.44430  0.79938  1.0000
  I   I53       1.0  0.70247  0.70685  0.98363  1.0000
  I   I54       1.0  0.66468  0.05478  0.04428  1.0000
  I   I55       1.0  0.61029  0.88708  0.37861  1.0000
  I   I56       1.0  0.17083  0.62733  0.24289  1.0000
  I   I57       1.0  0.38895  0.29179  0.32678  1.0000
  I   I58       1.0  0.50409  0.60311  0.77661  1.0000
  I   I59       1.0  0.81847  0.85662  0.22722  1.0000
  I   I60       1.0  0.89283  0.35410  0.97613  1.0000
  I   I61       1.0  0.74884  0.64916  0.38954  1.0000
  I   I62       1.0  0.69326  0.66327  0.33907  1.0000
  I   I63       1.0  0.00215  0.80039  0.15925  1.0000
  I   I64       1.0  0.41289  0.54921  0.79699  1.0000
  I   I65       1.0  0.03562  0.64623  0.28791  1.0000
  I   I66       1.0  0.82177  0.17433  0.50896  1.0000
  I   I67       1.0  0.19572  0.72408  0.44346  1.0000
  I   I68       1.0  0.28541  0.78279  0.43387  1.0000
  I   I69       1.0  0.64190  0.87399  0.72942  1.0000
  I   I70       1.0  0.83675  0.64733  0.23529  1.0000
  I   I71       1.0  0.18872  0.07917  0.27221  1.0000
  I   I72       1.0  0.99460  0.00747  0.85590  1.0000
  I   I73       1.0  0.84796  0.30609  0.10288  1.0000
  I   I74       1.0  0.67704  0.90306  0.58907  1.0000
  I   I75       1.0  0.68688  0.88710  0.70605  1.0000
  I   I76       1.0  0.15807  0.58941  0.44499  1.0000
  I   I77       1.0  0.10041  0.60759  0.46742  1.0000
  I   I78       1.0  0.44562  0.62025  0.43926  1.0000
  I   I79       1.0  0.28101  0.64442  0.61355  1.0000
  I   I80       1.0  0.40920  0.02949  0.36135  1.0000
  I   I81       1.0  0.33159  0.96506  0.00549  1.0000
  I   I82       1.0  0.99886  0.15799  0.50113  1.0000
  I   I83       1.0  0.09597  0.45044  0.29268  1.0000
  I   I84       1.0  0.87107  0.21757  0.78331  1.0000
  I   I85       1.0  0.13979  0.13239  0.80675  1.0000
  I   I86       1.0  0.79848  0.22587  0.50505  1.0000
  I   I87       1.0  0.47712  0.83874  0.09105  1.0000
  I   I88       1.0  0.41145  0.74094  0.78998  1.0000
  I   I89       1.0  0.53399  0.47677  0.74809  1.0000
  I   I90       1.0  0.03086  0.71339  0.61145  1.0000
  I   I91       1.0  0.28619  0.53884  0.39037  1.0000
  I   I92       1.0  0.55022  0.69374  0.53214  1.0000
  I   I93       1.0  0.61521  0.36703  0.84120  1.0000
  I   I94       1.0  0.06499  0.85458  0.25408  1.0000
  I   I95       1.0  0.42354  0.04613  0.61717  1.0000
  I   I96       1.0  0.88649  0.38270  0.26175  1.0000
  I   I97       1.0  0.35367  0.04498  0.70480  1.0000
  I   I98       1.0  0.44962  0.57103  0.39756  1.0000
  I   I99       1.0  0.21603  0.89179  0.03473  1.0000
  I   I100      1.0  0.92890  0.58161  0.96902  1.0000
  I   I101      1.0  0.70466  0.37633  0.54981  1.0000
  I   I102      1.0  0.55544  0.43139  0.25589  1.0000
  I   I103      1.0  0.57346  0.94425  0.37251  1.0000
  I   I104      1.0  0.58091  0.83563  0.34444  1.0000
  I   I105      1.0  0.42025  0.34123  0.37944  1.0000
  I   I106      1.0  0.89217  0.34521  0.07125  1.0000
  I   I107      1.0  0.55370  0.54850  0.75960  1.0000
  I   I108      1.0  0.92009  0.38456  0.99091  1.0000
  I   I109      1.0  0.68736  0.66443  0.56058  1.0000
  I   I110      1.0  0.74370  0.60583  0.35507  1.0000
  I   I111      1.0  0.05224  0.74359  0.18428  1.0000
  I   I112      1.0  0.25899  0.16397  0.20990  1.0000
  I   I113      1.0  0.03381  0.70138  0.34869  1.0000
  I   I114      1.0  0.23492  0.19713  0.99526  1.0000
  I   I115      1.0  0.87778  0.61336  0.32107  1.0000
  I   I116      1.0  0.83960  0.68066  0.14347  1.0000
  I   I117      1.0  0.17832  0.69700  0.37005  1.0000
  I   I118      1.0  0.98053  0.39218  0.31665  1.0000
  I   I119      1.0  0.88731  0.63268  0.09105  1.0000
  I   I120      1.0  0.95331  0.02082  0.77895  1.0000
  I   I121      1.0  0.82244  0.31499  0.21243  1.0000
  I   I122      1.0  0.49113  0.39418  0.27771  1.0000
  I   I123      1.0  0.43665  0.07552  0.98869  1.0000
  I   I124      1.0  0.30578  0.86625  0.73928  1.0000
  I   I125      1.0  0.28892  0.03673  0.11758  1.0000
  I   I126      1.0  0.23189  0.78897  0.08336  1.0000
  I   I127      1.0  0.32470  0.61998  0.52644  1.0000
  I   I128      1.0  0.95885  0.58399  0.10825  1.0000
  I   I129      1.0  0.38539  0.93735  0.02136  1.0000
  I   I130      1.0  0.87074  0.16871  0.80849  1.0000
  I   I131      1.0  0.95274  0.13854  0.57616  1.0000
  I   I132      1.0  0.11374  0.48227  0.34107  1.0000
  I   I133      1.0  0.52601  0.85306  0.02600  1.0000
  I   I134      1.0  0.68416  0.01278  0.77467  1.0000
  I   I135      1.0  0.72785  0.25048  0.51428  1.0000
  I   I136      1.0  0.99452  0.76352  0.66831  1.0000
  I   I137      1.0  0.68759  0.46238  0.45951  1.0000
  I   I138      1.0  0.44862  0.34708  0.73997  1.0000
  I   I139      1.0  0.31474  0.47949  0.44321  1.0000
  I   I140      1.0  0.48771  0.71442  0.47594  1.0000
  I   I141      1.0  0.04835  0.21594  0.91431  1.0000
  I   I142      1.0  0.04845  0.85851  0.36655  1.0000
  I   I143      1.0  0.38973  0.00393  0.63755  1.0000
  I   I144      1.0  0.87607  0.33514  0.25469  1.0000
  I   I145      1.0  0.50954  0.57976  0.44436  1.0000
  I   I146      1.0  0.10584  0.94652  0.07452  1.0000
  I   I147      1.0  0.36247  0.06063  0.58836  1.0000
  I   I148      1.0  0.73635  0.45721  0.50519  1.0000
  I   I149      1.0  0.57157  0.48514  0.27031  1.0000
  I   I150      1.0  0.65306  0.03821  0.35677  1.0000
  I   I151      1.0  0.63381  0.80748  0.37239  1.0000
  I   I152      1.0  0.14765  0.57106  0.03606  1.0000
  I   I153      1.0  0.43187  0.28488  0.39240  1.0000
  I   I154      1.0  0.99846  0.03387  0.42457  1.0000
  I   I155      1.0  0.23163  0.20694  0.54880  1.0000
  I   I156      1.0  0.94695  0.41887  0.97583  1.0000
  I   I157      1.0  0.63352  0.67210  0.58324  1.0000
  I   I158      1.0  0.99557  0.75910  0.25514  1.0000
  I   I159      1.0  0.60746  0.64789  0.48781  1.0000
  I   I160      1.0  0.26266  0.18916  0.30214  1.0000
  I   I161      1.0  0.20957  0.21283  0.86436  1.0000
  I   I162      1.0  0.25831  0.18488  0.09200  1.0000
  I   I163      1.0  0.12634  0.75195  0.42676  1.0000
  I   I164      1.0  0.14748  0.71713  0.28294  1.0000
  I   I165      1.0  0.15186  0.56456  0.17762  1.0000
  I   I166      1.0  0.95086  0.45258  0.35713  1.0000
  I   I167      1.0  0.17884  0.08659  0.38276  1.0000
  I   I168      1.0  0.85371  0.95551  0.55002  1.0000
  I   I169      1.0  0.48568  0.36497  0.43045  1.0000
  I   I170      1.0  0.49610  0.41583  0.36059  1.0000
  I   I171      1.0  0.85732  0.25928  0.17792  1.0000
  I   I172      1.0  0.25411  0.04562  0.02792  1.0000
  I   I173      1.0  0.21946  0.78952  0.97982  1.0000
  I   I174      1.0  0.29835  0.85580  0.83713  1.0000
  I   I175      1.0  0.34790  0.09260  0.38717  1.0000
  I   I176      1.0  0.32330  0.85343  0.02602  1.0000
  I   I177      1.0  0.81921  0.74041  0.26520  1.0000
  I   I178      1.0  0.92831  0.18959  0.54026  1.0000
  I   I179      1.0  0.03308  0.50084  0.33452  1.0000
  I   I180      1.0  0.88477  0.12926  0.89693  1.0000
  I   I181      1.0  0.13492  0.17803  0.66311  1.0000
  I   I182      1.0  0.70557  0.29237  0.58782  1.0000
  I   I183      1.0  0.13443  0.18356  0.39457  1.0000
  I   I184      1.0  0.67408  0.43661  0.55852  1.0000
  I   I185      1.0  0.38276  0.37614  0.70407  1.0000
  I   I186      1.0  0.92333  0.72407  0.59964  1.0000
  I   I187      1.0  0.56145  0.66012  0.44233  1.0000
  I   I188      1.0  0.57621  0.39697  0.74868  1.0000
  I   I189      1.0  0.18323  0.18403  0.45764  1.0000
  I   I190      1.0  0.36209  0.09298  0.66690  1.0000
  I   I191      1.0  0.80789  0.56903  0.21828  1.0000
  I   I192      1.0  0.00962  0.92379  0.32843  1.0000
  I   I193      1.0  0.18067  0.81801  0.06320  1.0000
  I   I194      1.0  0.84959  0.51546  0.24625  1.0000
  I   I195      1.0  0.30642  0.11876  0.66708  1.0000
  I   I196      1.0  0.96035  0.61003  0.02147  1.0000
  I   I197      1.0  0.40050  0.51345  0.49591  1.0000
  I   I198      1.0  0.66812  0.99290  0.30227  1.0000
  I   I199      1.0  0.58122  0.88399  0.31304  1.0000
  I   I200      1.0  0.27567  0.60141  0.87283  1.0000
  I   I201      1.0  0.47450  0.29451  0.44423  1.0000
  I   I202      1.0  0.79491  0.91913  0.21855  1.0000
  I   I203      1.0  0.66296  0.86489  0.61569  1.0000
  I   I204      1.0  0.89490  0.44292  0.05937  1.0000
  I   I205      1.0  0.73879  0.66053  0.15870  1.0000
  I   I206      1.0  0.95693  0.51301  0.94780  1.0000
  I   I207      1.0  0.69639  0.59576  0.51978  1.0000
  I   I208      1.0  0.42287  0.58823  0.72409  1.0000
  I   I209      1.0  0.18552  0.19022  0.96646  1.0000
  I   I210      1.0  0.77441  0.76610  0.35225  1.0000
  I   I211      1.0  0.89371  0.57387  0.22527  1.0000
  I   I212      1.0  0.25363  0.84553  0.41525  1.0000
  I   I213      1.0  0.68214  0.81670  0.70729  1.0000
  I   I214      1.0  0.01089  0.42864  0.31952  1.0000
  I   I215      1.0  0.22078  0.02900  0.39260  1.0000
  I   I216      1.0  0.84322  0.99649  0.46500  1.0000
  I   I217      1.0  0.44591  0.42348  0.38782  1.0000
  I   I218      1.0  0.44284  0.08670  0.10522  1.0000
  I   I219      1.0  0.77733  0.37708  0.17417  1.0000
  I   I220      1.0  0.10105  0.65627  0.39839  1.0000
  I   I221      1.0  0.24267  0.82454  0.02716  1.0000
  I   I222      1.0  0.19746  0.08921  0.07641  1.0000
  I   I223      1.0  0.37497  0.03805  0.44636  1.0000
  I   I224      1.0  0.38227  0.88984  0.02795  1.0000
  I   I225      1.0  0.34082  0.60462  0.63221  1.0000
  I   I226      1.0  0.96024  0.20298  0.58636  1.0000
  I   I227      1.0  0.07135  0.51475  0.26972  1.0000
  I   I228      1.0  0.83713  0.18811  0.93097  1.0000
  I   I229      1.0  0.19303  0.14387  0.72515  1.0000
  I   I230      1.0  0.72861  0.96337  0.83407  1.0000
  I   I231      1.0  0.50058  0.81410  0.99108  1.0000
  I   I232      1.0  0.95314  0.53803  0.02416  1.0000
  I   I233      1.0  0.50553  0.44989  0.77211  1.0000
  I   I234      1.0  0.94555  0.77492  0.60482  1.0000
  I   I235      1.0  0.06128  0.00310  0.40400  1.0000
  I   I236      1.0  0.09865  0.15619  0.90790  1.0000
  I   I237      1.0  0.29136  0.48501  0.32529  1.0000
  I   I238      1.0  0.38331  0.49356  0.13567  1.0000
  I   I239      1.0  0.88794  0.35144  0.36560  1.0000
  I   I240      1.0  0.07712  0.88261  0.39103  1.0000
  I   I241      1.0  0.46761  0.60393  0.34370  1.0000
  I   I242      1.0  0.12407  0.97035  0.14817  1.0000
  I   I243      1.0  0.30557  0.06688  0.62590  1.0000
  I   I244      1.0  0.71451  0.45201  0.60047  1.0000
  I   I245      1.0  0.67906  0.69127  0.07827  1.0000
  I   I246      1.0  0.60907  0.03261  0.31238  1.0000
  I   I247      1.0  0.56415  0.91655  0.45884  1.0000
  I   I248      1.0  0.18849  0.51924  0.07792  1.0000
  I   I249      1.0  0.43743  0.34166  0.49274  1.0000
  I   I250      1.0  0.80859  0.89541  0.33821  1.0000
  I   I251      1.0  0.28553  0.20233  0.62646  1.0000
  I   I252      1.0  0.95649  0.32349  0.00087  1.0000
  I   I253      1.0  0.69025  0.67821  0.21100  1.0000
  I   I254      1.0  0.01038  0.50844  0.94460  1.0000
  I   I255      1.0  0.65383  0.65368  0.46818  1.0000
  I   I256      1.0  0.03586  0.64860  0.41745  1.0000
  I   I257      1.0  0.23415  0.15198  0.90545  1.0000
  I   I258      1.0  0.22668  0.22870  0.21591  1.0000
  I   I259      1.0  0.89913  0.62904  0.20045  1.0000
  I   I260      1.0  0.15349  0.77898  0.38617  1.0000
  I   I261      1.0  0.12638  0.54806  0.10635  1.0000
  I   I262      1.0  0.96985  0.44425  0.23622  1.0000
  I   I263      1.0  0.23051  0.06974  0.33952  1.0000
  I   I264      1.0  0.83299  0.94360  0.45081  1.0000
  I   I265      1.0  0.46426  0.46227  0.29393  1.0000
  I   I266      1.0  0.61820  0.91174  0.60950  1.0000
  I   I267      1.0  0.81734  0.27098  0.08958  1.0000
  I   I268      1.0  0.29064  0.05447  0.96334  1.0000
  I   I269      1.0  0.25879  0.79438  0.94088  1.0000
  I   I270      1.0  0.22915  0.03632  0.12757  1.0000
  I   I271      1.0  0.41632  0.07599  0.40162  1.0000
  I   I272      1.0  0.32885  0.90424  0.98750  1.0000
  I   I273      1.0  0.30630  0.57580  0.60936  1.0000
  I   I274      1.0  0.74862  0.50537  0.96101  1.0000
  I   I275      1.0  0.06567  0.51181  0.39267  1.0000
  I   I276      1.0  0.89048  0.17913  0.93102  1.0000
  I   I277      1.0  0.99403  0.13685  0.60060  1.0000
  I   I278      1.0  0.65736  0.98652  0.82229  1.0000
  I   I279      1.0  0.10346  0.23274  0.42453  1.0000
  I   I280      1.0  0.71293  0.40816  0.65028  1.0000
  I   I281      1.0  0.54019  0.43192  0.67302  1.0000
  I   I282      1.0  0.97824  0.70536  0.66754  1.0000
  I   I283      1.0  0.02399  0.05469  0.33676  1.0000
  I   I284      1.0  0.05980  0.17013  0.82862  1.0000
  I   I285      1.0  0.10185  0.23670  0.58622  1.0000
  I   I286      1.0  0.36681  0.48584  0.02997  1.0000
  I   I287      1.0  0.99495  0.03534  0.74540  1.0000
  I   I288      1.0  0.11016  0.83356  0.31675  1.0000
  I   I289      1.0  0.92613  0.86000  0.78490  1.0000
  I   I290      1.0  0.78278  0.52460  0.22440  1.0000
  I   I291      1.0  0.15965  0.90418  0.04924  1.0000
  I   I292      1.0  0.75895  0.39491  0.58007  1.0000
  I   I293      1.0  0.73525  0.64898  0.05432  1.0000
  I   I294      1.0  0.64656  0.10512  0.10108  1.0000
  I   I295      1.0  0.62681  0.82916  0.27401  1.0000
  I   I296      1.0  0.21387  0.64658  0.83894  1.0000
  I   I297      1.0  0.39571  0.31493  0.44883  1.0000
  I   I298      1.0  0.34336  0.54890  0.47373  1.0000
  I   I299      1.0  0.39696  0.55411  0.67454  1.0000
  I   I300      1.0  0.95621  0.40597  0.08693  1.0000
  I   I301      1.0  0.64828  0.58747  0.48252  1.0000
  I   I302      1.0  0.71200  0.62838  0.25348  1.0000
  I   I303      1.0  0.44646  0.73977  0.87737  1.0000
  I   I304      1.0  0.30745  0.16623  0.22774  1.0000
  I   I305      1.0  0.35761  0.60146  0.73184  1.0000
  I   I306      1.0  0.71812  0.24838  0.64969  1.0000
  I   I307      1.0  0.17453  0.74505  0.31935  1.0000
  I   I308      1.0  0.22321  0.80748  0.40688  1.0000
  I   I309      1.0  0.20122  0.56428  0.22853  1.0000
  I   I310      1.0  0.01459  0.07913  0.43642  1.0000
  I   I311      1.0  0.25070  0.05506  0.43781  1.0000
  I   I312      1.0  0.93118  0.01223  0.90982  1.0000
  I   I313      1.0  0.78452  0.31724  0.14210  1.0000
  I   I314      1.0  0.46766  0.42070  0.48158  1.0000
  I   I315      1.0  0.41918  0.04832  0.08100  1.0000
  I   I316      1.0  0.22834  0.09452  0.14426  1.0000
  I   I317      1.0  0.29439  0.08180  0.05514  1.0000
  I   I318      1.0  0.27739  0.73899  0.01523  1.0000
  I   I319      1.0  0.81610  0.69946  0.38419  1.0000
  I   I320      1.0  0.98770  0.55661  0.99550  1.0000
  I   I321      1.0  0.36026  0.85995  0.11370  1.0000
  I   I322      1.0  0.69580  0.49500  0.02304  1.0000
  I   I323      1.0  0.06597  0.45905  0.46475  1.0000
  I   I324      1.0  0.91199  0.16106  0.83975  1.0000
  I   I325      1.0  0.08747  0.18653  0.74420  1.0000
  I   I326      1.0  0.76077  0.20567  0.56995  1.0000
  I   I327      1.0  0.06732  0.23674  0.54167  1.0000
  I   I328      1.0  0.46900  0.75486  0.78257  1.0000
  I   I329      1.0  0.42601  0.35528  0.63485  1.0000
  I   I330      1.0  0.01014  0.76477  0.56971  1.0000
  I   I331      1.0  0.08345  0.27700  0.50607  1.0000
  I   I332      1.0  0.38426  0.56395  0.41103  1.0000
  I   I333      1.0  0.56428  0.42959  0.81209  1.0000
  I   I334      1.0  0.08234  0.89925  0.27585  1.0000
  I   I335      1.0  0.41970  0.03389  0.71085  1.0000
  I   I336      1.0  0.82794  0.38645  0.31526  1.0000
  I   I337      1.0  0.98039  0.85036  0.84169  1.0000
  I   I338      1.0  0.83242  0.51455  0.13678  1.0000
  I   I339      1.0  0.20703  0.85739  0.11492  1.0000
  I   I340      1.0  0.94557  0.43737  0.69951  1.0000
  I   I341      1.0  0.54296  0.48739  0.17818  1.0000
  I   I342      1.0  0.61316  0.07300  0.10674  1.0000
  I   I343      1.0  0.52820  0.92632  0.33999  1.0000
  I   I344      1.0  0.22620  0.66754  0.92108  1.0000
  I   I345      1.0  0.40325  0.24928  0.40141  1.0000
  I   I346      1.0  0.84532  0.61973  0.13765  1.0000
  I   I347      1.0  0.85273  0.89044  0.25598  1.0000
  I   I348      1.0  0.91517  0.38018  0.09039  1.0000
  I   I349      1.0  0.64033  0.62344  0.56753  1.0000
  I   I350      1.0  0.76485  0.63148  0.26676  1.0000
  I   I351      1.0  0.96925  0.54422  0.87271  1.0000
  I   I352      1.0  0.28648  0.21154  0.16607  1.0000
  I   I353      1.0  0.98560  0.68990  0.35728  1.0000
  I   I354      1.0  0.76968  0.25318  0.60846  1.0000
  I   I355      1.0  0.10865  0.77201  0.32246  1.0000
  I   I356      1.0  0.11420  0.71311  0.37185  1.0000
  I   I357      1.0  0.64042  0.94366  0.67159  1.0000
  I   I358      1.0  0.89765  0.92444  0.46896  1.0000
  I   I359      1.0  0.20664  0.07937  0.48778  1.0000
  I   I360      1.0  0.94617  0.07999  0.77739  1.0000
  I   I361      1.0  0.77908  0.33271  0.28158  1.0000
  I   I362      1.0  0.52822  0.38567  0.43730  1.0000
  I   I363      1.0  0.71772  0.83240  0.66459  1.0000
  I   I364      1.0  0.24790  0.92169  0.81632  1.0000
  I   I365      1.0  0.12098  0.64803  0.49695  1.0000
  I   I366      1.0  0.30327  0.76771  0.98938  1.0000
  I   I367      1.0  0.83459  0.74807  0.36249  1.0000
  I   I368      1.0  0.96754  0.37638  0.78798  1.0000
  I   I369      1.0  0.38020  0.91794  0.92741  1.0000
  I   I370      1.0  0.74978  0.47594  0.06931  1.0000
  I   I371      1.0  0.99880  0.50939  0.42489  1.0000
  I   I372      1.0  0.83548  0.23014  0.87034  1.0000
  I   I373      1.0  0.19340  0.12475  0.82255  1.0000
  I   I374      1.0  0.71080  0.94316  0.74779  1.0000
  I   I375      1.0  0.12376  0.18988  0.51717  1.0000
  I   I376      1.0  0.72436  0.40620  0.49527  1.0000
  I   I377      1.0  0.41621  0.41010  0.69174  1.0000
  I   I378      1.0  0.92276  0.74339  0.68244  1.0000
  I   I379      1.0  0.25747  0.50106  0.42998  1.0000
  I   I380      1.0  0.51749  0.66273  0.52241  1.0000
  I   I381      1.0  0.09280  0.20830  0.82546  1.0000
  I   I382      1.0  0.00274  0.87340  0.29377  1.0000
  I   I383      1.0  0.37401  0.44458  0.12120  1.0000
  I   I384      1.0  0.99959  0.05924  0.83926  1.0000
