data_image0
_chemical_formula_structural       Ti96I384
_chemical_formula_sum              "Ti96 I384"
_cell_length_a       45.7632
_cell_length_b       45.4946
_cell_length_c       22.8643
_cell_angle_alpha    88.7757
_cell_angle_beta     88.7757
_cell_angle_gamma    62.1586

_space_group_name_H-M_alt    "P 1"
_space_group_IT_number       1

loop_
  _space_group_symop_operation_xyz
  'x, y, z'

loop_
  _atom_site_type_symbol
  _atom_site_label
  _atom_site_symmetry_multiplicity
  _atom_site_fract_x
  _atom_site_fract_y
  _atom_site_fract_z
  _atom_site_occupancy
  Ti  Ti1       1.0  0.29774  0.08740  0.68382  1.0000
  Ti  Ti2       1.0  0.20828  0.02464  0.11437  1.0000
  Ti  Ti3       1.0  0.30211  0.06231  0.33224  1.0000
  Ti  Ti4       1.0  0.26349  0.24780  0.24447  1.0000
  Ti  Ti5       1.0  0.18688  0.29223  0.60281  1.0000
  Ti  Ti6       1.0  0.22261  0.28280  0.91208  1.0000
  Ti  Ti7       1.0  0.05293  0.61798  0.52197  1.0000
  Ti  Ti8       1.0  0.90623  0.77000  0.85830  1.0000
  Ti  Ti9       1.0  0.03575  0.72492  0.23651  1.0000
  Ti  Ti10      1.0  0.96246  0.92717  0.20876  1.0000
  Ti  Ti11      1.0  0.15146  0.88708  0.59708  1.0000
  Ti  Ti12      1.0  0.14610  0.83696  0.89425  1.0000
  Ti  Ti13      1.0  0.44339  0.14722  0.27805  1.0000
  Ti  Ti14      1.0  0.45946  0.11314  0.62863  1.0000
  Ti  Ti15      1.0  0.45658  0.12887  0.95684  1.0000
  Ti  Ti16      1.0  0.35689  0.41412  0.86124  1.0000
  Ti  Ti17      1.0  0.22477  0.46389  0.09926  1.0000
  Ti  Ti18      1.0  0.42359  0.42376  0.53928  1.0000
  Ti  Ti19      1.0  0.28917  0.82992  0.32688  1.0000
  Ti  Ti20      1.0  0.42640  0.66473  0.92024  1.0000
  Ti  Ti21      1.0  0.27099  0.66628  0.36733  1.0000
  Ti  Ti22      1.0  0.30377  0.90414  0.70778  1.0000
  Ti  Ti23      1.0  0.46487  0.88904  0.06336  1.0000
  Ti  Ti24      1.0  0.48485  0.77316  0.61317  1.0000
  Ti  Ti25      1.0  0.65317  0.19191  0.45365  1.0000
  Ti  Ti26      1.0  0.66001  0.21334  0.76691  1.0000
  Ti  Ti27      1.0  0.66809  0.19185  0.12042  1.0000
  Ti  Ti28      1.0  0.61239  0.39850  0.10304  1.0000
  Ti  Ti29      1.0  0.71540  0.36482  0.53165  1.0000
  Ti  Ti30      1.0  0.65734  0.36997  0.79770  1.0000
  Ti  Ti31      1.0  0.61679  0.63273  0.27235  1.0000
  Ti  Ti32      1.0  0.72622  0.55375  0.66344  1.0000
  Ti  Ti33      1.0  0.69370  0.57322  0.98451  1.0000
  Ti  Ti34      1.0  0.71545  0.76019  0.19568  1.0000
  Ti  Ti35      1.0  0.75051  0.74855  0.53141  1.0000
  Ti  Ti36      1.0  0.73544  0.75796  0.84896  1.0000
  Ti  Ti37      1.0  0.88967  0.13024  0.15553  1.0000
  Ti  Ti38      1.0  0.86050  0.12670  0.47504  1.0000
  Ti  Ti39      1.0  0.87130  0.12687  0.81233  1.0000
  Ti  Ti40      1.0  0.99149  0.28221  0.02750  1.0000
  Ti  Ti41      1.0  0.98969  0.21505  0.37609  1.0000
  Ti  Ti42      1.0  0.10142  0.10913  0.63260  1.0000
  Ti  Ti43      1.0  0.96402  0.44837  0.29591  1.0000
  Ti  Ti44      1.0  0.91381  0.47522  0.63714  1.0000
  Ti  Ti45      1.0  0.90746  0.52188  0.95287  1.0000
  Ti  Ti46      1.0  0.76336  0.94135  0.25061  1.0000
  Ti  Ti47      1.0  0.72567  0.98031  0.55618  1.0000
  Ti  Ti48      1.0  0.68886  0.98538  0.85990  1.0000
  Ti  Ti49      1.0  0.29274  0.11419  0.50382  1.0000
  Ti  Ti50      1.0  0.15819  0.02747  0.99396  1.0000
  Ti  Ti51      1.0  0.19737  0.09014  0.26040  1.0000
  Ti  Ti52      1.0  0.19451  0.29792  0.09983  1.0000
  Ti  Ti53      1.0  0.11308  0.31865  0.47021  1.0000
  Ti  Ti54      1.0  0.13416  0.33345  0.79161  1.0000
  Ti  Ti55      1.0  0.00747  0.68975  0.40243  1.0000
  Ti  Ti56      1.0  0.97396  0.79361  0.76829  1.0000
  Ti  Ti57      1.0  0.93707  0.77294  0.15987  1.0000
  Ti  Ti58      1.0  0.96731  0.91948  0.02313  1.0000
  Ti  Ti59      1.0  0.93035  0.94033  0.36754  1.0000
  Ti  Ti60      1.0  0.13782  0.83335  0.69618  1.0000
  Ti  Ti61      1.0  0.40437  0.19729  0.11173  1.0000
  Ti  Ti62      1.0  0.41631  0.22956  0.41463  1.0000
  Ti  Ti63      1.0  0.41726  0.17161  0.78705  1.0000
  Ti  Ti64      1.0  0.37145  0.40677  0.65250  1.0000
  Ti  Ti65      1.0  0.24448  0.45309  0.89269  1.0000
  Ti  Ti66      1.0  0.16832  0.47345  0.23819  1.0000
  Ti  Ti67      1.0  0.25595  0.76436  0.29886  1.0000
  Ti  Ti68      1.0  0.34618  0.66976  0.91681  1.0000
  Ti  Ti69      1.0  0.27805  0.58928  0.27147  1.0000
  Ti  Ti70      1.0  0.38621  0.82986  0.65137  1.0000
  Ti  Ti71      1.0  0.49211  0.88860  0.90546  1.0000
  Ti  Ti72      1.0  0.47178  0.86798  0.24057  1.0000
  Ti  Ti73      1.0  0.61162  0.19415  0.28374  1.0000
  Ti  Ti74      1.0  0.59845  0.20688  0.64210  1.0000
  Ti  Ti75      1.0  0.61849  0.19536  0.94946  1.0000
  Ti  Ti76      1.0  0.58301  0.38939  0.92953  1.0000
  Ti  Ti77      1.0  0.55510  0.39141  0.24669  1.0000
  Ti  Ti78      1.0  0.62088  0.41649  0.61255  1.0000
  Ti  Ti79      1.0  0.59745  0.64632  0.09135  1.0000
  Ti  Ti80      1.0  0.54400  0.62047  0.37179  1.0000
  Ti  Ti81      1.0  0.68270  0.55866  0.80000  1.0000
  Ti  Ti82      1.0  0.66489  0.80661  0.02401  1.0000
  Ti  Ti83      1.0  0.66688  0.79888  0.37982  1.0000
  Ti  Ti84      1.0  0.68392  0.80630  0.68855  1.0000
  Ti  Ti85      1.0  0.86619  0.18571  0.98234  1.0000
  Ti  Ti86      1.0  0.84103  0.18565  0.30263  1.0000
  Ti  Ti87      1.0  0.83317  0.19481  0.64305  1.0000
  Ti  Ti88      1.0  0.94414  0.33499  0.90298  1.0000
  Ti  Ti89      1.0  0.91114  0.31972  0.35371  1.0000
  Ti  Ti90      1.0  0.00517  0.15878  0.55070  1.0000
  Ti  Ti91      1.0  0.90024  0.60227  0.03679  1.0000
  Ti  Ti92      1.0  0.90426  0.48478  0.44946  1.0000
  Ti  Ti93      1.0  0.88250  0.56636  0.76229  1.0000
  Ti  Ti94      1.0  0.63935  0.98485  0.04093  1.0000
  Ti  Ti95      1.0  0.68880  0.99098  0.38461  1.0000
  Ti  Ti96      1.0  0.64222  0.00596  0.69311  1.0000
  I   I1        1.0  0.16721  0.97145  0.95224  1.0000
  I   I2        1.0  0.18235  0.03956  0.25711  1.0000
  I   I3        1.0  0.27144  0.07576  0.44546  1.0000
  I   I4        1.0  0.09102  0.27647  0.42836  1.0000
  I   I5        1.0  0.13068  0.30132  0.69217  1.0000
  I   I6        1.0  0.17984  0.27344  0.01436  1.0000
  I   I7        1.0  0.03308  0.74740  0.73778  1.0000
  I   I8        1.0  0.84935  0.81435  0.90184  1.0000
  I   I9        1.0  0.99874  0.68966  0.28311  1.0000
  I   I10       1.0  0.89427  0.96792  0.25748  1.0000
  I   I11       1.0  0.17560  0.79522  0.60084  1.0000
  I   I12       1.0  0.02093  0.86610  0.99600  1.0000
  I   I13       1.0  0.39050  0.19862  0.33953  1.0000
  I   I14       1.0  0.39393  0.14559  0.69554  1.0000
  I   I15       1.0  0.38775  0.16923  0.02058  1.0000
  I   I16       1.0  0.29922  0.40071  0.84242  1.0000
  I   I17       1.0  0.16555  0.45727  0.11644  1.0000
  I   I18       1.0  0.40548  0.36657  0.56661  1.0000
  I   I19       1.0  0.42599  0.69415  0.01925  1.0000
  I   I20       1.0  0.22014  0.60657  0.22365  1.0000
  I   I21       1.0  0.22444  0.73859  0.35683  1.0000
  I   I22       1.0  0.46955  0.87679  0.80665  1.0000
  I   I23       1.0  0.41302  0.90666  0.99039  1.0000
  I   I24       1.0  0.43893  0.76905  0.69157  1.0000
  I   I25       1.0  0.60400  0.17991  0.53004  1.0000
  I   I26       1.0  0.64672  0.16114  0.83992  1.0000
  I   I27       1.0  0.64470  0.15135  0.19788  1.0000
  I   I28       1.0  0.59013  0.35195  0.15932  1.0000
  I   I29       1.0  0.65027  0.37535  0.51996  1.0000
  I   I30       1.0  0.61578  0.34061  0.83373  1.0000
  I   I31       1.0  0.53950  0.66913  0.29875  1.0000
  I   I32       1.0  0.72129  0.49810  0.73496  1.0000
  I   I33       1.0  0.62230  0.60032  0.01172  1.0000
  I   I34       1.0  0.65315  0.77695  0.28412  1.0000
  I   I35       1.0  0.68960  0.76481  0.59343  1.0000
  I   I36       1.0  0.67618  0.76335  0.91842  1.0000
  I   I37       1.0  0.82393  0.17679  0.17705  1.0000
  I   I38       1.0  0.80617  0.18226  0.54930  1.0000
  I   I39       1.0  0.82719  0.18133  0.87470  1.0000
  I   I40       1.0  0.91947  0.32003  0.24395  1.0000
  I   I41       1.0  0.99278  0.15412  0.41887  1.0000
  I   I42       1.0  0.90799  0.31165  0.86237  1.0000
  I   I43       1.0  0.88032  0.47517  0.35566  1.0000
  I   I44       1.0  0.86685  0.55110  0.65340  1.0000
  I   I45       1.0  0.84583  0.59490  0.98315  1.0000
  I   I46       1.0  0.70150  0.95083  0.29028  1.0000
  I   I47       1.0  0.66697  0.97145  0.59164  1.0000
  I   I48       1.0  0.64455  0.96091  0.92217  1.0000
  I   I49       1.0  0.29049  0.14268  0.62563  1.0000
  I   I50       1.0  0.15160  0.08011  0.07078  1.0000
  I   I51       1.0  0.24775  0.11614  0.28951  1.0000
  I   I52       1.0  0.23295  0.30738  0.17144  1.0000
  I   I53       1.0  0.14439  0.34920  0.53328  1.0000
  I   I54       1.0  0.15625  0.35432  0.88971  1.0000
  I   I55       1.0  0.01285  0.68906  0.52792  1.0000
  I   I56       1.0  0.90282  0.83180  0.80212  1.0000
  I   I57       1.0  0.97322  0.79279  0.22975  1.0000
  I   I58       1.0  0.95335  0.96495  0.11512  1.0000
  I   I59       1.0  0.88864  0.91915  0.40470  1.0000
  I   I60       1.0  0.10166  0.86196  0.81169  1.0000
  I   I61       1.0  0.44727  0.19865  0.18936  1.0000
  I   I62       1.0  0.44989  0.23766  0.49969  1.0000
  I   I63       1.0  0.43741  0.19028  0.88522  1.0000
  I   I64       1.0  0.34314  0.45548  0.76363  1.0000
  I   I65       1.0  0.20331  0.50410  0.99343  1.0000
  I   I66       1.0  0.18193  0.49466  0.33799  1.0000
  I   I67       1.0  0.30150  0.78652  0.24126  1.0000
  I   I68       1.0  0.43101  0.70919  0.85167  1.0000
  I   I69       1.0  0.28157  0.65929  0.24967  1.0000
  I   I70       1.0  0.34385  0.89045  0.61341  1.0000
  I   I71       1.0  0.51238  0.90379  0.01367  1.0000
  I   I72       1.0  0.50675  0.81383  0.29648  1.0000
  I   I73       1.0  0.60214  0.23330  0.38168  1.0000
  I   I74       1.0  0.59494  0.25373  0.72466  1.0000
  I   I75       1.0  0.61020  0.23057  0.05174  1.0000
  I   I76       1.0  0.55723  0.42258  0.02466  1.0000
  I   I77       1.0  0.55225  0.34226  0.30419  1.0000
  I   I78       1.0  0.61790  0.42509  0.72786  1.0000
  I   I79       1.0  0.59844  0.68400  0.18629  1.0000
  I   I80       1.0  0.57400  0.61079  0.47490  1.0000
  I   I81       1.0  0.67251  0.61182  0.87281  1.0000
  I   I82       1.0  0.68187  0.82084  0.12905  1.0000
  I   I83       1.0  0.69957  0.81478  0.45935  1.0000
  I   I84       1.0  0.69093  0.83006  0.78840  1.0000
  I   I85       1.0  0.89917  0.18232  0.08455  1.0000
  I   I86       1.0  0.86920  0.17860  0.41432  1.0000
  I   I87       1.0  0.87541  0.18551  0.73206  1.0000
  I   I88       1.0  0.99604  0.34138  0.96974  1.0000
  I   I89       1.0  0.91674  0.26827  0.42374  1.0000
  I   I90       1.0  0.03893  0.17053  0.63240  1.0000
  I   I91       1.0  0.87459  0.61155  0.14159  1.0000
  I   I92       1.0  0.94766  0.48615  0.53406  1.0000
  I   I93       1.0  0.91639  0.56590  0.87563  1.0000
  I   I94       1.0  0.64412  0.01491  0.13523  1.0000
  I   I95       1.0  0.69176  0.03367  0.48003  1.0000
  I   I96       1.0  0.62938  0.03209  0.80287  1.0000
  I   I97       1.0  0.32491  0.10425  0.38840  1.0000
  I   I98       1.0  0.25389  0.09990  0.76693  1.0000
  I   I99       1.0  0.23410  0.06726  0.15693  1.0000
  I   I100      1.0  0.23222  0.31715  0.00046  1.0000
  I   I101      1.0  0.21890  0.24345  0.30473  1.0000
  I   I102      1.0  0.18681  0.33250  0.70425  1.0000
  I   I103      1.0  0.05046  0.72079  0.35614  1.0000
  I   I104      1.0  0.01575  0.61612  0.61242  1.0000
  I   I105      1.0  0.90823  0.80879  0.06380  1.0000
  I   I106      1.0  0.12101  0.87293  0.98473  1.0000
  I   I107      1.0  0.97625  0.96003  0.29707  1.0000
  I   I108      1.0  0.15650  0.88449  0.71456  1.0000
  I   I109      1.0  0.46625  0.17047  0.02245  1.0000
  I   I110      1.0  0.46650  0.16634  0.38719  1.0000
  I   I111      1.0  0.47902  0.10739  0.74510  1.0000
  I   I112      1.0  0.43113  0.41177  0.66341  1.0000
  I   I113      1.0  0.30658  0.44924  0.93941  1.0000
  I   I114      1.0  0.18962  0.51917  0.17432  1.0000
  I   I115      1.0  0.30994  0.69935  0.33441  1.0000
  I   I116      1.0  0.24443  0.87185  0.40786  1.0000
  I   I117      1.0  0.39840  0.63773  0.84168  1.0000
  I   I118      1.0  0.44577  0.83721  0.68259  1.0000
  I   I119      1.0  0.25601  0.95512  0.67096  1.0000
  I   I120      1.0  0.43075  0.94811  0.11698  1.0000
  I   I121      1.0  0.64604  0.22811  0.23576  1.0000
  I   I122      1.0  0.64095  0.22117  0.56941  1.0000
  I   I123      1.0  0.64708  0.23554  0.88738  1.0000
  I   I124      1.0  0.62027  0.42032  0.89344  1.0000
  I   I125      1.0  0.56894  0.44087  0.18728  1.0000
  I   I126      1.0  0.67899  0.41873  0.61924  1.0000
  I   I127      1.0  0.68110  0.62256  0.05733  1.0000
  I   I128      1.0  0.62060  0.67352  0.34894  1.0000
  I   I129      1.0  0.74547  0.56530  0.77813  1.0000
  I   I130      1.0  0.72847  0.79741  0.94424  1.0000
  I   I131      1.0  0.71630  0.79213  0.30354  1.0000
  I   I132      1.0  0.75431  0.77860  0.63559  1.0000
  I   I133      1.0  0.90849  0.13834  0.89623  1.0000
  I   I134      1.0  0.90746  0.14591  0.25564  1.0000
  I   I135      1.0  0.88868  0.14210  0.57432  1.0000
  I   I136      1.0  0.13539  0.13689  0.61272  1.0000
  I   I137      1.0  0.04500  0.27957  0.07197  1.0000
  I   I138      1.0  0.99892  0.22038  0.49218  1.0000
  I   I139      1.0  0.93894  0.53230  0.04447  1.0000
  I   I140      1.0  0.96771  0.42233  0.41977  1.0000
  I   I141      1.0  0.93508  0.50429  0.72730  1.0000
  I   I142      1.0  0.65872  0.02046  0.96753  1.0000
  I   I143      1.0  0.74831  0.99025  0.33201  1.0000
  I   I144      1.0  0.69979  0.01532  0.66003  1.0000
  I   I145      1.0  0.34761  0.06641  0.55820  1.0000
  I   I146      1.0  0.16630  0.99767  0.10663  1.0000
  I   I147      1.0  0.26612  0.02962  0.30577  1.0000
  I   I148      1.0  0.24134  0.22953  0.13533  1.0000
  I   I149      1.0  0.16504  0.26413  0.51822  1.0000
  I   I150      1.0  0.19142  0.26551  0.83808  1.0000
  I   I151      1.0  0.07114  0.63493  0.40805  1.0000
  I   I152      1.0  0.89356  0.76075  0.74994  1.0000
  I   I153      1.0  0.00271  0.74824  0.11860  1.0000
  I   I154      1.0  0.96132  0.87930  0.11458  1.0000
  I   I155      1.0  0.12115  0.95268  0.59254  1.0000
  I   I156      1.0  0.17438  0.79239  0.78565  1.0000
  I   I157      1.0  0.42280  0.13562  0.18037  1.0000
  I   I158      1.0  0.41399  0.13119  0.54406  1.0000
  I   I159      1.0  0.41787  0.11860  0.86645  1.0000
  I   I160      1.0  0.39603  0.36971  0.75827  1.0000
  I   I161      1.0  0.25384  0.41692  0.00440  1.0000
  I   I162      1.0  0.40212  0.42505  0.42526  1.0000
  I   I163      1.0  0.28814  0.77709  0.40419  1.0000
  I   I164      1.0  0.29985  0.65194  0.93886  1.0000
  I   I165      1.0  0.23296  0.63256  0.36836  1.0000
  I   I166      1.0  0.36559  0.84534  0.76632  1.0000
  I   I167      1.0  0.49305  0.83874  0.97300  1.0000
  I   I168      1.0  0.49585  0.72001  0.55727  1.0000
  I   I169      1.0  0.67128  0.15762  0.34321  1.0000
  I   I170      1.0  0.66422  0.16608  0.68941  1.0000
  I   I171      1.0  0.68055  0.16807  0.00907  1.0000
  I   I172      1.0  0.64377  0.35123  0.01981  1.0000
  I   I173      1.0  0.73401  0.39552  0.45624  1.0000
  I   I174      1.0  0.66118  0.34671  0.68662  1.0000
  I   I175      1.0  0.61245  0.59236  0.16949  1.0000
  I   I176      1.0  0.69605  0.53312  0.59886  1.0000
  I   I177      1.0  0.71373  0.52571  0.89986  1.0000
  I   I178      1.0  0.70861  0.74478  0.08318  1.0000
  I   I179      1.0  0.72144  0.73025  0.43573  1.0000
  I   I180      1.0  0.71392  0.73771  0.75540  1.0000
  I   I181      1.0  0.86093  0.13159  0.03253  1.0000
  I   I182      1.0  0.83561  0.13053  0.36483  1.0000
  I   I183      1.0  0.83607  0.13108  0.70627  1.0000
  I   I184      1.0  0.92206  0.32453  0.02090  1.0000
  I   I185      1.0  0.95303  0.21678  0.28377  1.0000
  I   I186      1.0  0.07216  0.10667  0.52620  1.0000
  I   I187      1.0  0.95124  0.47932  0.19548  1.0000
  I   I188      1.0  0.88477  0.45772  0.54684  1.0000
  I   I189      1.0  0.86436  0.53659  0.85942  1.0000
  I   I190      1.0  0.75942  0.91886  0.15138  1.0000
  I   I191      1.0  0.73257  0.93963  0.46310  1.0000
  I   I192      1.0  0.69136  0.94733  0.76163  1.0000
  I   I193      1.0  0.34962  0.07093  0.74457  1.0000
  I   I194      1.0  0.24779  0.00724  0.02627  1.0000
  I   I195      1.0  0.33253  0.04614  0.22711  1.0000
  I   I196      1.0  0.28627  0.26845  0.32261  1.0000
  I   I197      1.0  0.23655  0.29827  0.56717  1.0000
  I   I198      1.0  0.25027  0.30636  0.84705  1.0000
  I   I199      1.0  0.11112  0.59815  0.56827  1.0000
  I   I200      1.0  0.96881  0.75900  0.86902  1.0000
  I   I201      1.0  0.07167  0.75293  0.21526  1.0000
  I   I202      1.0  0.02645  0.88965  0.18641  1.0000
  I   I203      1.0  0.20483  0.89569  0.58821  1.0000
  I   I204      1.0  0.19840  0.84508  0.87669  1.0000
  I   I205      1.0  0.50884  0.10744  0.26209  1.0000
  I   I206      1.0  0.51206  0.10173  0.56964  1.0000
  I   I207      1.0  0.52170  0.09400  0.92914  1.0000
  I   I208      1.0  0.39806  0.43308  0.90077  1.0000
  I   I209      1.0  0.28432  0.46265  0.11428  1.0000
  I   I210      1.0  0.42270  0.47943  0.51087  1.0000
  I   I211      1.0  0.27698  0.88084  0.25687  1.0000
  I   I212      1.0  0.39914  0.61848  0.97338  1.0000
  I   I213      1.0  0.31703  0.60083  0.34926  1.0000
  I   I214      1.0  0.32486  0.93484  0.78153  1.0000
  I   I215      1.0  0.51744  0.86335  0.15629  1.0000
  I   I216      1.0  0.50720  0.80116  0.53966  1.0000
  I   I217      1.0  0.68858  0.22109  0.41990  1.0000
  I   I218      1.0  0.67572  0.25391  0.69810  1.0000
  I   I219      1.0  0.69467  0.22975  0.09707  1.0000
  I   I220      1.0  0.62468  0.44279  0.06823  1.0000
  I   I221      1.0  0.76057  0.35418  0.61502  1.0000
  I   I222      1.0  0.71019  0.38643  0.79444  1.0000
  I   I223      1.0  0.68133  0.61043  0.25881  1.0000
  I   I224      1.0  0.73110  0.59817  0.59757  1.0000
  I   I225      1.0  0.75197  0.57102  0.95387  1.0000
  I   I226      1.0  0.77547  0.75125  0.16560  1.0000
  I   I227      1.0  0.80311  0.75087  0.48663  1.0000
  I   I228      1.0  0.78637  0.76478  0.80751  1.0000
  I   I229      1.0  0.94805  0.07671  0.16010  1.0000
  I   I230      1.0  0.92227  0.08578  0.43305  1.0000
  I   I231      1.0  0.92603  0.08277  0.77278  1.0000
  I   I232      1.0  0.99333  0.25716  0.92450  1.0000
  I   I233      1.0  0.98858  0.27330  0.34968  1.0000
  I   I234      1.0  0.13900  0.04881  0.62221  1.0000
  I   I235      1.0  0.02941  0.41986  0.29984  1.0000
  I   I236      1.0  0.95712  0.41218  0.64195  1.0000
  I   I237      1.0  0.95604  0.47027  0.90051  1.0000
  I   I238      1.0  0.81051  0.95659  0.22302  1.0000
  I   I239      1.0  0.77459  0.99353  0.55603  1.0000
  I   I240      1.0  0.71492  0.02022  0.81410  1.0000
  I   I241      1.0  0.30530  0.02400  0.68205  1.0000
  I   I242      1.0  0.25699  0.97521  0.17529  1.0000
  I   I243      1.0  0.34295  0.00301  0.37699  1.0000
  I   I244      1.0  0.31139  0.18792  0.25113  1.0000
  I   I245      1.0  0.21972  0.23674  0.66780  1.0000
  I   I246      1.0  0.27453  0.22452  0.94143  1.0000
  I   I247      1.0  0.06110  0.56112  0.48428  1.0000
  I   I248      1.0  0.92363  0.71460  0.91501  1.0000
  I   I249      1.0  0.08438  0.66146  0.22104  1.0000
  I   I250      1.0  0.94867  0.88579  0.28205  1.0000
  I   I251      1.0  0.15532  0.86656  0.48381  1.0000
  I   I252      1.0  0.14321  0.78615  0.94076  1.0000
  I   I253      1.0  0.43302  0.10174  0.32191  1.0000
  I   I254      1.0  0.46447  0.05295  0.62992  1.0000
  I   I255      1.0  0.46526  0.08198  0.02576  1.0000
  I   I256      1.0  0.38012  0.35637  0.91235  1.0000
  I   I257      1.0  0.23501  0.43026  0.19858  1.0000
  I   I258      1.0  0.48633  0.38820  0.50677  1.0000
  I   I259      1.0  0.34477  0.82687  0.36250  1.0000
  I   I260      1.0  0.49018  0.62425  0.93578  1.0000
  I   I261      1.0  0.27685  0.67177  0.48186  1.0000
  I   I262      1.0  0.27379  0.87511  0.75997  1.0000
  I   I263      1.0  0.44396  0.85381  0.13099  1.0000
  I   I264      1.0  0.53899  0.75207  0.67523  1.0000
  I   I265      1.0  0.69898  0.13802  0.50426  1.0000
  I   I266      1.0  0.72312  0.17845  0.78809  1.0000
  I   I267      1.0  0.72186  0.13719  0.16015  1.0000
  I   I268      1.0  0.65578  0.37625  0.19232  1.0000
  I   I269      1.0  0.73785  0.30378  0.48822  1.0000
  I   I270      1.0  0.70077  0.31033  0.82883  1.0000
  I   I271      1.0  0.62120  0.58471  0.34465  1.0000
  I   I272      1.0  0.78599  0.50127  0.64212  1.0000
  I   I273      1.0  0.71023  0.53137  0.07770  1.0000
  I   I274      1.0  0.72913  0.70011  0.23338  1.0000
  I   I275      1.0  0.78259  0.68853  0.56460  1.0000
  I   I276      1.0  0.76942  0.69602  0.88606  1.0000
  I   I277      1.0  0.86383  0.09318  0.20601  1.0000
  I   I278      1.0  0.83596  0.09068  0.51633  1.0000
  I   I279      1.0  0.85576  0.08786  0.87205  1.0000
  I   I280      1.0  0.97630  0.23965  0.09216  1.0000
  I   I281      1.0  0.05379  0.18132  0.33845  1.0000
  I   I282      1.0  0.09913  0.10339  0.74279  1.0000
  I   I283      1.0  0.96054  0.39530  0.26979  1.0000
  I   I284      1.0  0.88227  0.46495  0.72217  1.0000
  I   I285      1.0  0.88263  0.48655  0.00397  1.0000
  I   I286      1.0  0.79450  0.88850  0.31338  1.0000
  I   I287      1.0  0.75945  0.92386  0.62183  1.0000
  I   I288      1.0  0.73878  0.92583  0.88396  1.0000
  I   I289      1.0  0.24463  0.11121  0.58497  1.0000
  I   I290      1.0  0.09429  0.06606  0.99514  1.0000
  I   I291      1.0  0.17163  0.10473  0.36569  1.0000
  I   I292      1.0  0.15446  0.28974  0.17489  1.0000
  I   I293      1.0  0.05025  0.35386  0.50392  1.0000
  I   I294      1.0  0.08701  0.32813  0.84389  1.0000
  I   I295      1.0  0.98182  0.64702  0.39964  1.0000
  I   I296      1.0  0.95800  0.81859  0.66156  1.0000
  I   I297      1.0  0.91750  0.72748  0.14012  1.0000
  I   I298      1.0  0.91926  0.92150  0.96255  1.0000
  I   I299      1.0  0.91270  0.99657  0.41221  1.0000
  I   I300      1.0  0.10322  0.80256  0.68806  1.0000
  I   I301      1.0  0.34308  0.23810  0.15622  1.0000
  I   I302      1.0  0.36226  0.24432  0.46880  1.0000
  I   I303      1.0  0.35980  0.21827  0.81713  1.0000
  I   I304      1.0  0.32081  0.39656  0.66087  1.0000
  I   I305      1.0  0.17937  0.46822  0.88789  1.0000
  I   I306      1.0  0.17236  0.42088  0.29418  1.0000
  I   I307      1.0  0.20583  0.82815  0.31753  1.0000
  I   I308      1.0  0.32341  0.71661  0.83507  1.0000
  I   I309      1.0  0.31218  0.55930  0.18278  1.0000
  I   I310      1.0  0.33658  0.81629  0.62846  1.0000
  I   I311      1.0  0.45264  0.95483  0.87980  1.0000
  I   I312      1.0  0.42018  0.87960  0.29779  1.0000
  I   I313      1.0  0.58897  0.15613  0.33417  1.0000
  I   I314      1.0  0.56729  0.17506  0.69056  1.0000
  I   I315      1.0  0.59614  0.15314  0.98314  1.0000
  I   I316      1.0  0.56611  0.34119  0.95787  1.0000
  I   I317      1.0  0.49255  0.42590  0.23079  1.0000
  I   I318      1.0  0.56679  0.40812  0.61884  1.0000
  I   I319      1.0  0.53308  0.65956  0.10653  1.0000
  I   I320      1.0  0.53712  0.56585  0.35644  1.0000
  I   I321      1.0  0.62854  0.55814  0.83305  1.0000
  I   I322      1.0  0.61252  0.80248  0.04701  1.0000
  I   I323      1.0  0.62668  0.78657  0.44698  1.0000
  I   I324      1.0  0.62561  0.81094  0.72660  1.0000
  I   I325      1.0  0.80908  0.22090  0.02289  1.0000
  I   I326      1.0  0.77969  0.21886  0.33533  1.0000
  I   I327      1.0  0.77921  0.23526  0.70077  1.0000
  I   I328      1.0  0.88792  0.39515  0.91331  1.0000
  I   I329      1.0  0.84557  0.34895  0.37019  1.0000
  I   I330      1.0  0.99202  0.11237  0.58600  1.0000
  I   I331      1.0  0.87922  0.65563  0.97776  1.0000
  I   I332      1.0  0.86263  0.54345  0.47183  1.0000
  I   I333      1.0  0.82839  0.62146  0.79444  1.0000
  I   I334      1.0  0.66416  0.92889  0.10458  1.0000
  I   I335      1.0  0.63334  0.98483  0.41277  1.0000
  I   I336      1.0  0.59670  0.98561  0.71565  1.0000
  I   I337      1.0  0.25422  0.17438  0.47645  1.0000
  I   I338      1.0  0.17256  0.05625  0.91055  1.0000
  I   I339      1.0  0.16273  0.14606  0.20309  1.0000
  I   I340      1.0  0.15223  0.35671  0.07117  1.0000
  I   I341      1.0  0.13126  0.33288  0.37629  1.0000
  I   I342      1.0  0.09768  0.39750  0.76329  1.0000
  I   I343      1.0  0.95320  0.74677  0.41191  1.0000
  I   I344      1.0  0.99621  0.82716  0.82112  1.0000
  I   I345      1.0  0.88717  0.81130  0.22416  1.0000
  I   I346      1.0  0.98493  0.95696  0.96319  1.0000
  I   I347      1.0  0.98328  0.90410  0.42648  1.0000
  I   I348      1.0  0.09247  0.88167  0.62630  1.0000
  I   I349      1.0  0.39904  0.24813  0.05485  1.0000
  I   I350      1.0  0.40377  0.28190  0.35133  1.0000
  I   I351      1.0  0.43649  0.20293  0.70952  1.0000
  I   I352      1.0  0.35167  0.45680  0.58144  1.0000
  I   I353      1.0  0.23664  0.50802  0.84576  1.0000
  I   I354      1.0  0.10726  0.51797  0.25022  1.0000
  I   I355      1.0  0.23386  0.75538  0.20371  1.0000
  I   I356      1.0  0.32427  0.71362  0.00649  1.0000
  I   I357      1.0  0.28023  0.53522  0.31482  1.0000
  I   I358      1.0  0.42200  0.80690  0.54024  1.0000
  I   I359      1.0  0.55313  0.87067  0.86741  1.0000
  I   I360      1.0  0.48259  0.91625  0.29480  1.0000
  I   I361      1.0  0.55241  0.24267  0.24352  1.0000
  I   I362      1.0  0.54494  0.25529  0.59423  1.0000
  I   I363      1.0  0.56284  0.23722  0.90827  1.0000
  I   I364      1.0  0.52970  0.41607  0.85590  1.0000
  I   I365      1.0  0.55853  0.42119  0.34375  1.0000
  I   I366      1.0  0.58970  0.48036  0.58667  1.0000
  I   I367      1.0  0.58614  0.69523  0.00868  1.0000
  I   I368      1.0  0.48542  0.65273  0.41843  1.0000
  I   I369      1.0  0.66109  0.60830  0.71562  1.0000
  I   I370      1.0  0.64428  0.86581  0.97469  1.0000
  I   I371      1.0  0.62091  0.86109  0.35206  1.0000
  I   I372      1.0  0.65021  0.86149  0.63325  1.0000
  I   I373      1.0  0.87480  0.23480  0.94343  1.0000
  I   I374      1.0  0.84675  0.23627  0.26929  1.0000
  I   I375      1.0  0.84941  0.23737  0.59049  1.0000
  I   I376      1.0  0.96421  0.34683  0.80523  1.0000
  I   I377      1.0  0.92428  0.36256  0.40812  1.0000
  I   I378      1.0  0.95010  0.20576  0.59812  1.0000
  I   I379      1.0  0.95729  0.60112  0.05777  1.0000
  I   I380      1.0  0.93547  0.50766  0.35485  1.0000
  I   I381      1.0  0.90817  0.60440  0.71628  1.0000
  I   I382      1.0  0.57709  0.01838  0.02842  1.0000
  I   I383      1.0  0.65267  0.04191  0.31930  1.0000
  I   I384      1.0  0.60909  0.06698  0.64774  1.0000
