data_image0
_chemical_formula_structural       Ti96I384
_chemical_formula_sum              "Ti96 I384"
_cell_length_a       77.6837
_cell_length_b       77.7927
_cell_length_c       38.0434
_cell_angle_alpha    88.7757
_cell_angle_beta     88.7757
_cell_angle_gamma    62.1586

_space_group_name_H-M_alt    "P 1"
_space_group_IT_number       1

loop_
  _space_group_symop_operation_xyz
  'x, y, z'

loop_
  _atom_site_type_symbol
  _atom_site_label
  _atom_site_symmetry_multiplicity
  _atom_site_fract_x
  _atom_site_fract_y
  _atom_site_fract_z
  _atom_site_occupancy
  Ti  Ti1       1.0  0.77579  0.76049  0.09449  1.0000
  Ti  Ti2       1.0  0.55025  0.81896  0.61942  1.0000
  Ti  Ti3       1.0  0.08285  0.13289  0.50198  1.0000
  Ti  Ti4       1.0  0.26861  0.10108  0.94655  1.0000
  Ti  Ti5       1.0  0.60430  0.08542  0.43114  1.0000
  Ti  Ti6       1.0  0.53576  0.72716  0.25923  1.0000
  Ti  Ti7       1.0  0.69082  0.94162  0.43235  1.0000
  Ti  Ti8       1.0  0.86262  0.24421  0.11750  1.0000
  Ti  Ti9       1.0  0.16903  0.16895  0.78059  1.0000
  Ti  Ti10      1.0  0.79087  0.54159  0.39034  1.0000
  Ti  Ti11      1.0  0.98258  0.95467  0.40709  1.0000
  Ti  Ti12      1.0  0.26758  0.00416  0.11947  1.0000
  Ti  Ti13      1.0  0.75165  0.64425  0.80213  1.0000
  Ti  Ti14      1.0  0.24723  0.08051  0.88547  1.0000
  Ti  Ti15      1.0  0.92102  0.17303  0.49096  1.0000
  Ti  Ti16      1.0  0.09378  0.12440  0.09589  1.0000
  Ti  Ti17      1.0  0.25400  0.20704  0.13722  1.0000
  Ti  Ti18      1.0  0.68736  0.31311  0.07604  1.0000
  Ti  Ti19      1.0  0.42725  0.11527  0.50035  1.0000
  Ti  Ti20      1.0  0.16127  0.49319  0.64648  1.0000
  Ti  Ti21      1.0  0.84172  0.23042  0.05428  1.0000
  Ti  Ti22      1.0  0.54174  0.50487  0.38719  1.0000
  Ti  Ti23      1.0  0.24839  0.38962  0.77633  1.0000
  Ti  Ti24      1.0  0.33528  0.36823  0.55099  1.0000
  Ti  Ti25      1.0  0.77476  0.26965  0.38397  1.0000
  Ti  Ti26      1.0  0.18115  0.73432  0.22823  1.0000
  Ti  Ti27      1.0  0.81930  0.71044  0.50374  1.0000
  Ti  Ti28      1.0  0.38364  0.94368  0.22348  1.0000
  Ti  Ti29      1.0  0.00835  0.94754  0.65049  1.0000
  Ti  Ti30      1.0  0.20223  0.60814  0.12623  1.0000
  Ti  Ti31      1.0  0.84390  0.12025  0.41647  1.0000
  Ti  Ti32      1.0  0.42369  0.82554  0.51658  1.0000
  Ti  Ti33      1.0  0.56802  0.25400  0.18177  1.0000
  Ti  Ti34      1.0  0.38865  0.39811  0.09010  1.0000
  Ti  Ti35      1.0  0.61652  0.02043  0.77476  1.0000
  Ti  Ti36      1.0  0.52244  0.16783  0.23858  1.0000
  Ti  Ti37      1.0  0.40130  0.14787  0.83576  1.0000
  Ti  Ti38      1.0  0.43400  0.46731  0.70746  1.0000
  Ti  Ti39      1.0  0.84282  0.53100  0.43663  1.0000
  Ti  Ti40      1.0  0.71330  0.54493  0.89514  1.0000
  Ti  Ti41      1.0  0.24395  0.61498  0.64240  1.0000
  Ti  Ti42      1.0  0.93847  0.62225  0.44157  1.0000
  Ti  Ti43      1.0  0.23998  0.88506  0.30018  1.0000
  Ti  Ti44      1.0  0.97746  0.32068  0.89417  1.0000
  Ti  Ti45      1.0  0.88209  0.39910  0.96071  1.0000
  Ti  Ti46      1.0  0.84541  0.42154  0.69851  1.0000
  Ti  Ti47      1.0  0.74167  0.20649  0.73647  1.0000
  Ti  Ti48      1.0  0.82367  0.84493  0.07553  1.0000
  Ti  Ti49      1.0  0.24400  0.87017  0.42436  1.0000
  Ti  Ti50      1.0  0.16585  0.48214  0.52489  1.0000
  Ti  Ti51      1.0  0.56257  0.86099  0.55497  1.0000
  Ti  Ti52      1.0  0.43577  0.62949  0.51314  1.0000
  Ti  Ti53      1.0  0.15791  0.73848  0.55750  1.0000
  Ti  Ti54      1.0  0.37402  0.77010  0.82468  1.0000
  Ti  Ti55      1.0  0.57545  0.57656  0.57619  1.0000
  Ti  Ti56      1.0  0.73171  0.06802  0.63582  1.0000
  Ti  Ti57      1.0  0.14492  0.15506  0.81558  1.0000
  Ti  Ti58      1.0  0.43733  0.21217  0.15618  1.0000
  Ti  Ti59      1.0  0.13318  0.05573  0.08583  1.0000
  Ti  Ti60      1.0  0.01453  0.23147  0.20686  1.0000
  Ti  Ti61      1.0  0.49012  0.19444  0.97537  1.0000
  Ti  Ti62      1.0  0.79127  0.64537  0.80413  1.0000
  Ti  Ti63      1.0  0.11337  0.71596  0.35848  1.0000
  Ti  Ti64      1.0  0.66024  0.36285  0.10329  1.0000
  Ti  Ti65      1.0  0.84623  0.61415  0.93089  1.0000
  Ti  Ti66      1.0  0.37569  0.91862  0.30423  1.0000
  Ti  Ti67      1.0  0.19615  0.61855  0.93486  1.0000
  Ti  Ti68      1.0  0.81179  0.45950  0.77136  1.0000
  Ti  Ti69      1.0  0.19306  0.68673  0.18435  1.0000
  Ti  Ti70      1.0  0.27544  0.03066  0.49394  1.0000
  Ti  Ti71      1.0  0.28532  0.71029  0.10441  1.0000
  Ti  Ti72      1.0  0.77340  0.17011  0.78492  1.0000
  Ti  Ti73      1.0  0.60081  0.32937  0.43406  1.0000
  Ti  Ti74      1.0  0.74703  0.26207  0.27452  1.0000
  Ti  Ti75      1.0  0.77651  0.66441  0.23402  1.0000
  Ti  Ti76      1.0  0.88910  0.03736  0.20194  1.0000
  Ti  Ti77      1.0  0.95396  0.13073  0.51822  1.0000
  Ti  Ti78      1.0  0.02666  0.99388  0.66814  1.0000
  Ti  Ti79      1.0  0.49000  0.93734  0.40490  1.0000
  Ti  Ti80      1.0  0.83620  0.55195  0.61642  1.0000
  Ti  Ti81      1.0  0.28413  0.38630  0.80510  1.0000
  Ti  Ti82      1.0  0.73445  0.43463  0.05412  1.0000
  Ti  Ti83      1.0  0.84050  0.43772  0.00179  1.0000
  Ti  Ti84      1.0  0.55807  0.10537  0.24470  1.0000
  Ti  Ti85      1.0  0.43081  0.15059  0.78894  1.0000
  Ti  Ti86      1.0  0.68059  0.92870  0.36096  1.0000
  Ti  Ti87      1.0  0.59807  0.78730  0.88042  1.0000
  Ti  Ti88      1.0  0.04292  0.05397  0.37226  1.0000
  Ti  Ti89      1.0  0.05777  0.35025  0.87390  1.0000
  Ti  Ti90      1.0  0.26840  0.17900  0.05698  1.0000
  Ti  Ti91      1.0  0.62298  0.42003  0.62669  1.0000
  Ti  Ti92      1.0  0.47211  0.59318  0.98336  1.0000
  Ti  Ti93      1.0  0.34964  0.62845  0.80074  1.0000
  Ti  Ti94      1.0  0.78835  0.85173  0.03628  1.0000
  Ti  Ti95      1.0  0.73490  0.03971  0.35585  1.0000
  Ti  Ti96      1.0  0.55132  0.36700  0.13413  1.0000
  I   I1        1.0  0.73953  0.17256  0.79961  1.0000
  I   I2        1.0  0.53667  0.89185  0.58819  1.0000
  I   I3        1.0  0.21678  0.88983  0.47234  1.0000
  I   I4        1.0  0.17561  0.72922  0.62205  1.0000
  I   I5        1.0  0.55256  0.74688  0.26613  1.0000
  I   I6        1.0  0.34552  0.76038  0.83376  1.0000
  I   I7        1.0  0.83182  0.26784  0.06602  1.0000
  I   I8        1.0  0.74305  0.07401  0.69830  1.0000
  I   I9        1.0  0.14080  0.18912  0.74364  1.0000
  I   I10       1.0  0.69265  0.53053  0.86904  1.0000
  I   I11       1.0  0.02105  0.94004  0.39521  1.0000
  I   I12       1.0  0.62349  0.07818  0.48970  1.0000
  I   I13       1.0  0.77449  0.67028  0.75744  1.0000
  I   I14       1.0  0.09835  0.72004  0.42063  1.0000
  I   I15       1.0  0.94650  0.16582  0.54870  1.0000
  I   I16       1.0  0.74185  0.54602  0.85289  1.0000
  I   I17       1.0  0.40419  0.93155  0.27954  1.0000
  I   I18       1.0  0.65980  0.29894  0.07063  1.0000
  I   I19       1.0  0.09327  0.75258  0.36597  1.0000
  I   I20       1.0  0.96304  0.94882  0.36070  1.0000
  I   I21       1.0  0.85915  0.22721  0.17527  1.0000
  I   I22       1.0  0.23916  0.36930  0.72425  1.0000
  I   I23       1.0  0.05570  0.03294  0.31437  1.0000
  I   I24       1.0  0.24915  0.03917  0.54043  1.0000
  I   I25       1.0  0.78274  0.24976  0.44027  1.0000
  I   I26       1.0  0.79427  0.63214  0.19440  1.0000
  I   I27       1.0  0.59339  0.04669  0.81827  1.0000
  I   I28       1.0  0.37463  0.93220  0.16575  1.0000
  I   I29       1.0  0.00445  0.94769  0.58292  1.0000
  I   I30       1.0  0.17779  0.64436  0.09874  1.0000
  I   I31       1.0  0.81844  0.54416  0.56170  1.0000
  I   I32       1.0  0.29294  0.40208  0.85538  1.0000
  I   I33       1.0  0.46904  0.92521  0.37346  1.0000
  I   I34       1.0  0.65138  0.00018  0.80115  1.0000
  I   I35       1.0  0.56731  0.08947  0.18676  1.0000
  I   I36       1.0  0.39491  0.40041  0.01402  1.0000
  I   I37       1.0  0.43823  0.11396  0.81838  1.0000
  I   I38       1.0  0.82999  0.51860  0.36351  1.0000
  I   I39       1.0  0.36177  0.17811  0.83985  1.0000
  I   I40       1.0  0.97231  0.33976  0.95215  1.0000
  I   I41       1.0  0.15595  0.50994  0.47408  1.0000
  I   I42       1.0  0.72786  0.53414  0.95417  1.0000
  I   I43       1.0  0.45309  0.17572  0.15147  1.0000
  I   I44       1.0  0.96932  0.34994  0.84961  1.0000
  I   I45       1.0  0.86930  0.43000  0.04746  1.0000
  I   I46       1.0  0.70015  0.04843  0.38695  1.0000
  I   I47       1.0  0.74556  0.23703  0.70899  1.0000
  I   I48       1.0  0.78449  0.84830  0.10677  1.0000
  I   I49       1.0  0.26958  0.87458  0.47394  1.0000
  I   I50       1.0  0.52233  0.82509  0.66598  1.0000
  I   I51       1.0  0.53161  0.84053  0.56293  1.0000
  I   I52       1.0  0.80942  0.57154  0.66128  1.0000
  I   I53       1.0  0.15953  0.76527  0.50879  1.0000
  I   I54       1.0  0.40240  0.76336  0.78155  1.0000
  I   I55       1.0  0.64553  0.94499  0.33129  1.0000
  I   I56       1.0  0.88025  0.24212  0.05984  1.0000
  I   I57       1.0  0.75043  0.06005  0.37554  1.0000
  I   I58       1.0  0.81061  0.52765  0.45199  1.0000
  I   I59       1.0  0.11357  0.04015  0.06398  1.0000
  I   I60       1.0  0.98932  0.22609  0.24619  1.0000
  I   I61       1.0  0.77277  0.64078  0.86175  1.0000
  I   I62       1.0  0.79170  0.67926  0.83787  1.0000
  I   I63       1.0  0.17642  0.51289  0.68010  1.0000
  I   I64       1.0  0.13364  0.08808  0.06415  1.0000
  I   I65       1.0  0.83427  0.65381  0.93029  1.0000
  I   I66       1.0  0.40297  0.95906  0.18184  1.0000
  I   I67       1.0  0.40940  0.09339  0.50330  1.0000
  I   I68       1.0  0.18341  0.46307  0.68314  1.0000
  I   I69       1.0  0.19242  0.69840  0.25467  1.0000
  I   I70       1.0  0.30939  0.00675  0.51629  1.0000
  I   I71       1.0  0.21123  0.40704  0.78733  1.0000
  I   I72       1.0  0.76509  0.20870  0.79719  1.0000
  I   I73       1.0  0.82402  0.73883  0.53307  1.0000
  I   I74       1.0  0.20295  0.74811  0.25198  1.0000
  I   I75       1.0  0.15342  0.75323  0.27609  1.0000
  I   I76       1.0  0.91696  0.14098  0.51387  1.0000
  I   I77       1.0  0.89081  0.20186  0.51321  1.0000
  I   I78       1.0  0.87028  0.09103  0.45560  1.0000
  I   I79       1.0  0.53675  0.28367  0.19793  1.0000
  I   I80       1.0  0.78868  0.78357  0.11844  1.0000
  I   I81       1.0  0.45636  0.82695  0.51141  1.0000
  I   I82       1.0  0.72689  0.41691  0.11516  1.0000
  I   I83       1.0  0.85001  0.39813  0.00377  1.0000
  I   I84       1.0  0.54489  0.18140  0.20360  1.0000
  I   I85       1.0  0.42487  0.18281  0.75489  1.0000
  I   I86       1.0  0.36054  0.94018  0.35721  1.0000
  I   I87       1.0  0.87468  0.49937  0.41591  1.0000
  I   I88       1.0  0.75868  0.56446  0.41629  1.0000
  I   I89       1.0  0.42559  0.39014  0.09306  1.0000
  I   I90       1.0  0.20023  0.48061  0.52733  1.0000
  I   I91       1.0  0.60078  0.42085  0.68297  1.0000
  I   I92       1.0  0.44502  0.61405  0.94589  1.0000
  I   I93       1.0  0.94716  0.31619  0.90662  1.0000
  I   I94       1.0  0.82844  0.80757  0.06000  1.0000
  I   I95       1.0  0.86246  0.38384  0.69589  1.0000
  I   I96       1.0  0.57278  0.48069  0.34623  1.0000
  I   I97       1.0  0.08142  0.11722  0.56739  1.0000
  I   I98       1.0  0.78459  0.72848  0.13745  1.0000
  I   I99       1.0  0.56587  0.83287  0.66915  1.0000
  I   I100      1.0  0.28788  0.08499  0.88412  1.0000
  I   I101      1.0  0.06301  0.07339  0.36805  1.0000
  I   I102      1.0  0.61887  0.09349  0.37381  1.0000
  I   I103      1.0  0.71494  0.90655  0.39906  1.0000
  I   I104      1.0  0.55947  0.58999  0.50926  1.0000
  I   I105      1.0  0.17291  0.13700  0.75127  1.0000
  I   I106      1.0  0.27539  0.98883  0.18328  1.0000
  I   I107      1.0  0.78560  0.55937  0.32313  1.0000
  I   I108      1.0  0.29613  0.98214  0.08349  1.0000
  I   I109      1.0  0.94305  0.18959  0.47062  1.0000
  I   I110      1.0  0.76721  0.60810  0.78189  1.0000
  I   I111      1.0  0.14231  0.51301  0.58266  1.0000
  I   I112      1.0  0.65552  0.39555  0.07024  1.0000
  I   I113      1.0  0.83479  0.60882  0.99664  1.0000
  I   I114      1.0  0.25082  0.17022  0.11836  1.0000
  I   I115      1.0  0.22608  0.58538  0.91778  1.0000
  I   I116      1.0  0.17537  0.64048  0.88682  1.0000
  I   I117      1.0  0.77667  0.46342  0.76301  1.0000
  I   I118      1.0  0.52123  0.40055  0.11760  1.0000
  I   I119      1.0  0.17362  0.60678  0.96116  1.0000
  I   I120      1.0  0.71084  0.23554  0.75969  1.0000
  I   I121      1.0  0.57674  0.31490  0.44347  1.0000
  I   I122      1.0  0.80201  0.27794  0.38184  1.0000
  I   I123      1.0  0.75313  0.68825  0.18547  1.0000
  I   I124      1.0  0.18382  0.61032  0.18783  1.0000
  I   I125      1.0  0.92647  0.02626  0.21006  1.0000
  I   I126      1.0  0.00305  0.02234  0.62494  1.0000
  I   I127      1.0  0.56637  0.24726  0.11383  1.0000
  I   I128      1.0  0.25337  0.06135  0.94410  1.0000
  I   I129      1.0  0.30092  0.39597  0.74065  1.0000
  I   I130      1.0  0.55895  0.13863  0.27120  1.0000
  I   I131      1.0  0.70160  0.46239  0.03703  1.0000
  I   I132      1.0  0.60956  0.99240  0.75736  1.0000
  I   I133      1.0  0.86051  0.54734  0.46810  1.0000
  I   I134      1.0  0.41412  0.50072  0.74747  1.0000
  I   I135      1.0  0.35115  0.90503  0.32010  1.0000
  I   I136      1.0  0.92987  0.63066  0.50993  1.0000
  I   I137      1.0  0.44629  0.64097  0.45272  1.0000
  I   I138      1.0  0.02411  0.35301  0.88308  1.0000
  I   I139      1.0  0.64479  0.43490  0.64960  1.0000
  I   I140      1.0  0.50194  0.58081  0.94096  1.0000
  I   I141      1.0  0.33797  0.60274  0.79962  1.0000
  I   I142      1.0  0.77751  0.83228  0.99370  1.0000
  I   I143      1.0  0.11691  0.11016  0.47961  1.0000
  I   I144      1.0  0.52196  0.53003  0.43558  1.0000
  I   I145      1.0  0.74589  0.77744  0.05176  1.0000
  I   I146      1.0  0.58043  0.82192  0.57618  1.0000
  I   I147      1.0  0.07073  0.11484  0.45676  1.0000
  I   I148      1.0  0.43853  0.65314  0.56584  1.0000
  I   I149      1.0  0.56903  0.09447  0.40703  1.0000
  I   I150      1.0  0.51972  0.72728  0.31530  1.0000
  I   I151      1.0  0.61074  0.57428  0.59066  1.0000
  I   I152      1.0  0.85729  0.21966  0.98914  1.0000
  I   I153      1.0  0.20057  0.16814  0.74476  1.0000
  I   I154      1.0  0.23034  0.92177  0.29119  1.0000
  I   I155      1.0  0.96363  0.95091  0.45948  1.0000
  I   I156      1.0  0.03065  0.24661  0.24815  1.0000
  I   I157      1.0  0.96863  0.11398  0.57551  1.0000
  I   I158      1.0  0.08996  0.70961  0.31926  1.0000
  I   I159      1.0  0.48951  0.17046  0.02445  1.0000
  I   I160      1.0  0.63914  0.37525  0.15637  1.0000
  I   I161      1.0  0.26299  0.19115  0.19882  1.0000
  I   I162      1.0  0.65145  0.34583  0.05080  1.0000
  I   I163      1.0  0.40155  0.14147  0.45705  1.0000
  I   I164      1.0  0.81500  0.46584  0.84077  1.0000
  I   I165      1.0  0.87005  0.27068  0.13779  1.0000
  I   I166      1.0  0.53005  0.35010  0.12814  1.0000
  I   I167      1.0  0.25804  0.42646  0.80340  1.0000
  I   I168      1.0  0.36860  0.34757  0.51658  1.0000
  I   I169      1.0  0.71137  0.26877  0.29311  1.0000
  I   I170      1.0  0.77116  0.23975  0.32794  1.0000
  I   I171      1.0  0.78855  0.71842  0.46512  1.0000
  I   I172      1.0  0.88426  0.00811  0.22024  1.0000
  I   I173      1.0  0.04539  0.00854  0.70210  1.0000
  I   I174      1.0  0.21636  0.57191  0.12418  1.0000
  I   I175      1.0  0.85903  0.14570  0.40953  1.0000
  I   I176      1.0  0.40351  0.85802  0.47728  1.0000
  I   I177      1.0  0.48493  0.93194  0.47523  1.0000
  I   I178      1.0  0.74255  0.44647  0.11671  1.0000
  I   I179      1.0  0.84236  0.47153  0.00016  1.0000
  I   I180      1.0  0.51119  0.16706  0.30551  1.0000
  I   I181      1.0  0.40141  0.13145  0.90056  1.0000
  I   I182      1.0  0.65581  0.97128  0.40933  1.0000
  I   I183      1.0  0.62962  0.77417  0.90821  1.0000
  I   I184      1.0  0.00648  0.08196  0.37623  1.0000
  I   I185      1.0  0.07009  0.35418  0.93586  1.0000
  I   I186      1.0  0.96113  0.61000  0.38183  1.0000
  I   I187      1.0  0.48006  0.60704  0.03788  1.0000
  I   I188      1.0  0.01199  0.28686  0.89578  1.0000
  I   I189      1.0  0.57530  0.81764  0.84696  1.0000
  I   I190      1.0  0.86513  0.43418  0.73489  1.0000
  I   I191      1.0  0.24350  0.18834  0.00261  1.0000
  I   I192      1.0  0.09195  0.16297  0.50526  1.0000
  I   I193      1.0  0.97812  0.94487  0.67582  1.0000
  I   I194      1.0  0.16672  0.46137  0.59600  1.0000
  I   I195      1.0  0.04541  0.16017  0.49168  1.0000
  I   I196      1.0  0.26630  0.13482  0.93430  1.0000
  I   I197      1.0  0.40084  0.22438  0.14362  1.0000
  I   I198      1.0  0.51290  0.74008  0.20658  1.0000
  I   I199      1.0  0.41605  0.80707  0.46622  1.0000
  I   I200      1.0  0.75838  0.04273  0.58752  1.0000
  I   I201      1.0  0.14489  0.18909  0.84407  1.0000
  I   I202      1.0  0.06140  0.14758  0.12345  1.0000
  I   I203      1.0  0.19787  0.72328  0.16057  1.0000
  I   I204      1.0  0.23319  0.00224  0.11164  1.0000
  I   I205      1.0  0.80530  0.61794  0.75310  1.0000
  I   I206      1.0  0.30042  0.09374  0.97909  1.0000
  I   I207      1.0  0.95766  0.09669  0.48527  1.0000
  I   I208      1.0  0.12248  0.13119  0.11396  1.0000
  I   I209      1.0  0.25271  0.24022  0.16304  1.0000
  I   I210      1.0  0.45821  0.97458  0.40465  1.0000
  I   I211      1.0  0.26751  0.05530  0.43797  1.0000
  I   I212      1.0  0.14261  0.67687  0.37036  1.0000
  I   I213      1.0  0.16558  0.69908  0.13887  1.0000
  I   I214      1.0  0.52658  0.48277  0.41106  1.0000
  I   I215      1.0  0.25222  0.41170  0.71681  1.0000
  I   I216      1.0  0.32622  0.66324  0.82620  1.0000
  I   I217      1.0  0.74741  0.29754  0.41822  1.0000
  I   I218      1.0  0.80698  0.65713  0.27809  1.0000
  I   I219      1.0  0.61578  0.32267  0.49607  1.0000
  I   I220      1.0  0.91340  0.18232  0.42000  1.0000
  I   I221      1.0  0.99024  0.98668  0.65188  1.0000
  I   I222      1.0  0.85798  0.05763  0.25110  1.0000
  I   I223      1.0  0.86415  0.10026  0.35849  1.0000
  I   I224      1.0  0.40671  0.82194  0.57395  1.0000
  I   I225      1.0  0.59778  0.26057  0.18548  1.0000
  I   I226      1.0  0.71801  0.42633  0.99199  1.0000
  I   I227      1.0  0.61868  0.03098  0.71154  1.0000
  I   I228      1.0  0.49480  0.20489  0.23325  1.0000
  I   I229      1.0  0.43843  0.21341  0.22709  1.0000
  I   I230      1.0  0.44550  0.44091  0.76491  1.0000
  I   I231      1.0  0.78617  0.51186  0.38539  1.0000
  I   I232      1.0  0.27223  0.05431  0.83084  1.0000
  I   I233      1.0  0.23081  0.64953  0.67169  1.0000
  I   I234      1.0  0.28690  0.19267  0.01502  1.0000
  I   I235      1.0  0.25993  0.86357  0.25107  1.0000
  I   I236      1.0  0.36640  0.63691  0.74970  1.0000
  I   I237      1.0  0.59851  0.43794  0.57274  1.0000
  I   I238      1.0  0.76407  0.00710  0.33387  1.0000
  I   I239      1.0  0.56754  0.36162  0.19936  1.0000
  I   I240      1.0  0.81542  0.88235  0.08025  1.0000
  I   I241      1.0  0.80168  0.75182  0.04113  1.0000
  I   I242      1.0  0.56264  0.77968  0.59664  1.0000
  I   I243      1.0  0.82233  0.41795  0.65096  1.0000
  I   I244      1.0  0.04098  0.02663  0.41015  1.0000
  I   I245      1.0  0.17268  0.70179  0.54904  1.0000
  I   I246      1.0  0.55847  0.69050  0.24721  1.0000
  I   I247      1.0  0.66397  0.91399  0.39852  1.0000
  I   I248      1.0  0.82367  0.22809  0.11907  1.0000
  I   I249      1.0  0.18893  0.13978  0.82886  1.0000
  I   I250      1.0  0.09440  0.08777  0.10625  1.0000
  I   I251      1.0  0.96351  0.99078  0.41116  1.0000
  I   I252      1.0  0.99372  0.25875  0.16260  1.0000
  I   I253      1.0  0.71996  0.65799  0.83901  1.0000
  I   I254      1.0  0.23300  0.11667  0.90226  1.0000
  I   I255      1.0  0.51394  0.17393  0.92241  1.0000
  I   I256      1.0  0.88355  0.60312  0.92417  1.0000
  I   I257      1.0  0.42127  0.16702  0.85823  1.0000
  I   I258      1.0  0.70764  0.28488  0.03058  1.0000
  I   I259      1.0  0.22022  0.62552  0.97225  1.0000
  I   I260      1.0  0.80448  0.49508  0.76762  1.0000
  I   I261      1.0  0.80611  0.24227  0.02750  1.0000
  I   I262      1.0  0.52583  0.52550  0.33230  1.0000
  I   I263      1.0  0.27333  0.72233  0.16644  1.0000
  I   I264      1.0  0.52273  0.13476  0.21246  1.0000
  I   I265      1.0  0.75382  0.28506  0.32084  1.0000
  I   I266      1.0  0.15661  0.76357  0.18149  1.0000
  I   I267      1.0  0.57999  0.36178  0.39548  1.0000
  I   I268      1.0  0.34927  0.97282  0.25348  1.0000
  I   I269      1.0  0.05206  0.96601  0.62132  1.0000
  I   I270      1.0  0.40283  0.89566  0.34791  1.0000
  I   I271      1.0  0.81366  0.13863  0.45943  1.0000
  I   I272      1.0  0.25722  0.38817  0.85215  1.0000
  I   I273      1.0  0.58528  0.22134  0.21375  1.0000
  I   I274      1.0  0.22069  0.62421  0.58665  1.0000
  I   I275      1.0  0.85070  0.68058  0.48724  1.0000
  I   I276      1.0  0.53168  0.09343  0.27061  1.0000
  I   I277      1.0  0.76045  0.44042  0.01693  1.0000
  I   I278      1.0  0.47028  0.46466  0.69261  1.0000
  I   I279      1.0  0.90803  0.37090  0.00935  1.0000
  I   I280      1.0  0.41270  0.61583  0.51155  1.0000
  I   I281      1.0  0.28200  0.59948  0.64225  1.0000
  I   I282      1.0  0.90396  0.64966  0.42060  1.0000
  I   I283      1.0  0.21770  0.90363  0.37360  1.0000
  I   I284      1.0  0.33443  0.40440  0.54562  1.0000
  I   I285      1.0  0.60417  0.76864  0.82205  1.0000
  I   I286      1.0  0.74067  0.02043  0.42714  1.0000
  I   I287      1.0  0.80672  0.16205  0.82591  1.0000
  I   I288      1.0  0.81999  0.85734  0.00757  1.0000
  I   I289      1.0  0.26107  0.87034  0.35936  1.0000
  I   I290      1.0  0.22515  0.21489  0.08251  1.0000
  I   I291      1.0  0.59534  0.85841  0.56197  1.0000
  I   I292      1.0  0.46388  0.60293  0.54772  1.0000
  I   I293      1.0  0.12054  0.75718  0.56110  1.0000
  I   I294      1.0  0.39976  0.75569  0.87050  1.0000
  I   I295      1.0  0.67051  0.94817  0.48981  1.0000
  I   I296      1.0  0.70286  0.05992  0.65522  1.0000
  I   I297      1.0  0.13312  0.13938  0.86179  1.0000
  I   I298      1.0  0.47206  0.21217  0.13674  1.0000
  I   I299      1.0  0.08739  0.13908  0.03304  1.0000
  I   I300      1.0  0.38613  0.62669  0.83490  1.0000
  I   I301      1.0  0.49080  0.22722  0.99583  1.0000
  I   I302      1.0  0.72977  0.65876  0.74562  1.0000
  I   I303      1.0  0.68672  0.58021  0.89493  1.0000
  I   I304      1.0  0.67829  0.32547  0.14570  1.0000
  I   I305      1.0  0.15132  0.05470  0.14490  1.0000
  I   I306      1.0  0.71501  0.95381  0.44617  1.0000
  I   I307      1.0  0.42398  0.13896  0.54659  1.0000
  I   I308      1.0  0.13270  0.48435  0.66828  1.0000
  I   I309      1.0  0.87455  0.20490  0.08336  1.0000
  I   I310      1.0  0.20859  0.88619  0.28950  1.0000
  I   I311      1.0  0.27478  0.74768  0.07493  1.0000
  I   I312      1.0  0.78211  0.17873  0.71858  1.0000
  I   I313      1.0  0.63095  0.31164  0.39169  1.0000
  I   I314      1.0  0.74953  0.27722  0.21156  1.0000
  I   I315      1.0  0.75149  0.65511  0.26354  1.0000
  I   I316      1.0  0.89063  0.04728  0.13394  1.0000
  I   I317      1.0  0.35965  0.92131  0.23969  1.0000
  I   I318      1.0  0.03027  0.91199  0.67784  1.0000
  I   I319      1.0  0.51458  0.95115  0.41455  1.0000
  I   I320      1.0  0.24074  0.11716  0.99402  1.0000
  I   I321      1.0  0.59951  0.54743  0.53966  1.0000
  I   I322      1.0  0.35661  0.43145  0.09709  1.0000
  I   I323      1.0  0.90452  0.41332  0.95092  1.0000
  I   I324      1.0  0.57936  0.07659  0.29423  1.0000
  I   I325      1.0  0.46422  0.14230  0.74805  1.0000
  I   I326      1.0  0.69337  0.90949  0.30044  1.0000
  I   I327      1.0  0.88973  0.37136  0.92181  1.0000
  I   I328      1.0  0.82199  0.56874  0.41300  1.0000
  I   I329      1.0  0.05133  0.38049  0.83692  1.0000
  I   I330      1.0  0.29662  0.14097  0.04736  1.0000
  I   I331      1.0  0.57013  0.78625  0.91801  1.0000
  I   I332      1.0  0.29080  0.18335  0.10558  1.0000
  I   I333      1.0  0.38681  0.37186  0.13227  1.0000
  I   I334      1.0  0.75838  0.88400  0.03154  1.0000
  I   I335      1.0  0.82880  0.41799  0.76408  1.0000
  I   I336      1.0  0.58392  0.34891  0.10077  1.0000
  I   I337      1.0  0.23797  0.83704  0.41729  1.0000
  I   I338      1.0  0.18149  0.44682  0.50306  1.0000
  I   I339      1.0  0.55448  0.86010  0.48841  1.0000
  I   I340      1.0  0.85323  0.51645  0.64218  1.0000
  I   I341      1.0  0.61398  0.04770  0.41865  1.0000
  I   I342      1.0  0.35754  0.80647  0.82664  1.0000
  I   I343      1.0  0.55927  0.56769  0.63057  1.0000
  I   I344      1.0  0.71162  0.10044  0.60146  1.0000
  I   I345      1.0  0.12191  0.15170  0.77110  1.0000
  I   I346      1.0  0.27417  0.00253  0.46792  1.0000
  I   I347      1.0  0.16359  0.02813  0.05866  1.0000
  I   I348      1.0  0.02788  0.19721  0.18593  1.0000
  I   I349      1.0  0.45377  0.20908  0.96402  1.0000
  I   I350      1.0  0.82717  0.62890  0.84045  1.0000
  I   I351      1.0  0.21366  0.08277  0.86027  1.0000
  I   I352      1.0  0.69534  0.34099  0.05910  1.0000
  I   I353      1.0  0.85741  0.57621  0.91976  1.0000
  I   I354      1.0  0.68674  0.95966  0.34088  1.0000
  I   I355      1.0  0.45589  0.09151  0.45981  1.0000
  I   I356      1.0  0.81687  0.46177  0.70014  1.0000
  I   I357      1.0  0.22455  0.66951  0.14391  1.0000
  I   I358      1.0  0.30017  0.37457  0.56696  1.0000
  I   I359      1.0  0.25928  0.70395  0.07652  1.0000
  I   I360      1.0  0.78670  0.13191  0.80384  1.0000
  I   I361      1.0  0.81089  0.69658  0.56513  1.0000
  I   I362      1.0  0.76514  0.22823  0.24133  1.0000
  I   I363      1.0  0.19288  0.65415  0.20656  1.0000
  I   I364      1.0  0.23208  0.60622  0.08611  1.0000
  I   I365      1.0  0.97952  0.14093  0.47758  1.0000
  I   I366      1.0  0.03361  0.96498  0.71492  1.0000
  I   I367      1.0  0.51121  0.89891  0.40811  1.0000
  I   I368      1.0  0.85184  0.57522  0.59880  1.0000
  I   I369      1.0  0.28221  0.35474  0.76901  1.0000
  I   I370      1.0  0.25243  0.57790  0.64414  1.0000
  I   I371      1.0  0.84588  0.42731  0.93036  1.0000
  I   I372      1.0  0.34870  0.35280  0.61223  1.0000
  I   I373      1.0  0.39260  0.15558  0.76826  1.0000
  I   I374      1.0  0.39524  0.47454  0.69616  1.0000
  I   I375      1.0  0.80478  0.45778  0.03340  1.0000
  I   I376      1.0  0.31442  0.67595  0.10208  1.0000
  I   I377      1.0  0.07699  0.31811  0.83945  1.0000
  I   I378      1.0  0.97302  0.59251  0.47068  1.0000
  I   I379      1.0  0.65274  0.39119  0.59829  1.0000
  I   I380      1.0  0.46965  0.56239  0.00068  1.0000
  I   I381      1.0  0.26095  0.03725  0.08262  1.0000
  I   I382      1.0  0.85934  0.83201  0.09023  1.0000
  I   I383      1.0  0.72358  0.05109  0.29318  1.0000
  I   I384      1.0  0.72904  0.19422  0.69066  1.0000
