data_image0
_chemical_formula_structural       Ti96I384
_chemical_formula_sum              "Ti96 I384"
_cell_length_a       71.903
_cell_length_b       71.8654
_cell_length_c       35.1757
_cell_angle_alpha    88.7757
_cell_angle_beta     88.7757
_cell_angle_gamma    62.1586

_space_group_name_H-M_alt    "P 1"
_space_group_IT_number       1

loop_
  _space_group_symop_operation_xyz
  'x, y, z'

loop_
  _atom_site_type_symbol
  _atom_site_label
  _atom_site_symmetry_multiplicity
  _atom_site_fract_x
  _atom_site_fract_y
  _atom_site_fract_z
  _atom_site_occupancy
  Ti  Ti1       1.0  0.42776  0.64333  0.30208  1.0000
  Ti  Ti2       1.0  0.09123  0.98937  0.08641  1.0000
  Ti  Ti3       1.0  0.26699  0.17603  0.53765  1.0000
  Ti  Ti4       1.0  0.94608  0.63457  0.97316  1.0000
  Ti  Ti5       1.0  0.46367  0.51757  0.23513  1.0000
  Ti  Ti6       1.0  0.71450  0.94772  0.39537  1.0000
  Ti  Ti7       1.0  0.55948  0.93846  0.36829  1.0000
  Ti  Ti8       1.0  0.12044  0.55924  0.20669  1.0000
  Ti  Ti9       1.0  0.41549  0.29587  0.55282  1.0000
  Ti  Ti10      1.0  0.46551  0.56447  0.76122  1.0000
  Ti  Ti11      1.0  0.26348  0.26911  0.49313  1.0000
  Ti  Ti12      1.0  0.94159  0.43728  0.03939  1.0000
  Ti  Ti13      1.0  0.75331  0.59519  0.13706  1.0000
  Ti  Ti14      1.0  0.98016  0.63680  0.83963  1.0000
  Ti  Ti15      1.0  0.66968  0.63117  0.60296  1.0000
  Ti  Ti16      1.0  0.47352  0.51059  0.70431  1.0000
  Ti  Ti17      1.0  0.24690  0.26393  0.85874  1.0000
  Ti  Ti18      1.0  0.30458  0.13035  0.29255  1.0000
  Ti  Ti19      1.0  0.19840  0.67933  0.47156  1.0000
  Ti  Ti20      1.0  0.23777  0.82592  0.43489  1.0000
  Ti  Ti21      1.0  0.17316  0.56504  0.25029  1.0000
  Ti  Ti22      1.0  0.89381  0.50356  0.35981  1.0000
  Ti  Ti23      1.0  0.16258  0.09145  0.40967  1.0000
  Ti  Ti24      1.0  0.86813  0.90862  0.60337  1.0000
  Ti  Ti25      1.0  0.44712  0.41584  0.33364  1.0000
  Ti  Ti26      1.0  0.66682  0.92137  0.70537  1.0000
  Ti  Ti27      1.0  0.75562  0.29916  0.18463  1.0000
  Ti  Ti28      1.0  0.32695  0.02859  0.99876  1.0000
  Ti  Ti29      1.0  0.21348  0.80109  0.90876  1.0000
  Ti  Ti30      1.0  0.28816  0.86930  0.91225  1.0000
  Ti  Ti31      1.0  0.46653  0.09535  0.32313  1.0000
  Ti  Ti32      1.0  0.32617  0.89169  0.11789  1.0000
  Ti  Ti33      1.0  0.30536  0.60450  0.63114  1.0000
  Ti  Ti34      1.0  0.68679  0.50977  0.95943  1.0000
  Ti  Ti35      1.0  0.09310  0.44757  0.38650  1.0000
  Ti  Ti36      1.0  0.87676  0.23756  0.80881  1.0000
  Ti  Ti37      1.0  0.19566  0.11176  0.64605  1.0000
  Ti  Ti38      1.0  0.80275  0.01223  0.69201  1.0000
  Ti  Ti39      1.0  0.49168  0.76423  0.13574  1.0000
  Ti  Ti40      1.0  0.42529  0.70619  0.82273  1.0000
  Ti  Ti41      1.0  0.51531  0.37632  0.70649  1.0000
  Ti  Ti42      1.0  0.00795  0.75962  0.54758  1.0000
  Ti  Ti43      1.0  0.07752  0.97000  0.44270  1.0000
  Ti  Ti44      1.0  0.54018  0.39995  0.75451  1.0000
  Ti  Ti45      1.0  0.12786  0.23715  0.40469  1.0000
  Ti  Ti46      1.0  0.37113  0.01053  0.55994  1.0000
  Ti  Ti47      1.0  0.87342  0.06464  0.80402  1.0000
  Ti  Ti48      1.0  0.06024  0.88676  0.30568  1.0000
  Ti  Ti49      1.0  0.97413  0.86857  0.99205  1.0000
  Ti  Ti50      1.0  0.77801  0.45150  0.19829  1.0000
  Ti  Ti51      1.0  0.15073  0.95026  0.10301  1.0000
  Ti  Ti52      1.0  0.70337  0.37167  0.54022  1.0000
  Ti  Ti53      1.0  0.58710  0.68939  0.84309  1.0000
  Ti  Ti54      1.0  0.73217  0.95743  0.01677  1.0000
  Ti  Ti55      1.0  0.58712  0.88822  0.45047  1.0000
  Ti  Ti56      1.0  0.28235  0.60598  0.87232  1.0000
  Ti  Ti57      1.0  0.37443  0.27801  0.55400  1.0000
  Ti  Ti58      1.0  0.40657  0.55019  0.47294  1.0000
  Ti  Ti59      1.0  0.88409  0.93794  0.11405  1.0000
  Ti  Ti60      1.0  0.96609  0.43861  0.14588  1.0000
  Ti  Ti61      1.0  0.63230  0.62074  0.52251  1.0000
  Ti  Ti62      1.0  0.72376  0.63679  0.22711  1.0000
  Ti  Ti63      1.0  0.95362  0.81336  0.22093  1.0000
  Ti  Ti64      1.0  0.29557  0.16932  0.35112  1.0000
  Ti  Ti65      1.0  0.06158  0.74613  0.30867  1.0000
  Ti  Ti66      1.0  0.79490  0.19512  0.66122  1.0000
  Ti  Ti67      1.0  0.85402  0.64905  0.16407  1.0000
  Ti  Ti68      1.0  0.20468  0.69327  0.37357  1.0000
  Ti  Ti69      1.0  0.71266  0.86053  0.69962  1.0000
  Ti  Ti70      1.0  0.82914  0.68442  0.05520  1.0000
  Ti  Ti71      1.0  0.20728  0.07160  0.34067  1.0000
  Ti  Ti72      1.0  0.93374  0.03651  0.78984  1.0000
  Ti  Ti73      1.0  0.82623  0.26174  0.14906  1.0000
  Ti  Ti74      1.0  0.45416  0.38918  0.42823  1.0000
  Ti  Ti75      1.0  0.43574  0.04274  0.04554  1.0000
  Ti  Ti76      1.0  0.23539  0.02334  0.07973  1.0000
  Ti  Ti77      1.0  0.17210  0.52464  0.47612  1.0000
  Ti  Ti78      1.0  0.25640  0.75623  0.01802  1.0000
  Ti  Ti79      1.0  0.78298  0.71273  0.47528  1.0000
  Ti  Ti80      1.0  0.97707  0.36701  0.72592  1.0000
  Ti  Ti81      1.0  0.35840  0.90487  0.03988  1.0000
  Ti  Ti82      1.0  0.99427  0.20495  0.70336  1.0000
  Ti  Ti83      1.0  0.11303  0.38128  0.46901  1.0000
  Ti  Ti84      1.0  0.88323  0.19928  0.78007  1.0000
  Ti  Ti85      1.0  0.19006  0.10594  0.53764  1.0000
  Ti  Ti86      1.0  0.75871  0.26296  0.67951  1.0000
  Ti  Ti87      1.0  0.08725  0.26222  0.45503  1.0000
  Ti  Ti88      1.0  0.68375  0.40911  0.48227  1.0000
  Ti  Ti89      1.0  0.46261  0.32654  0.87276  1.0000
  Ti  Ti90      1.0  0.95648  0.77643  0.46511  1.0000
  Ti  Ti91      1.0  0.27644  0.50919  0.38322  1.0000
  Ti  Ti92      1.0  0.45762  0.70345  0.52650  1.0000
  Ti  Ti93      1.0  0.06664  0.25924  0.92047  1.0000
  Ti  Ti94      1.0  0.99310  0.90429  0.31705  1.0000
  Ti  Ti95      1.0  0.36750  0.55575  0.11715  1.0000
  Ti  Ti96      1.0  0.89214  0.33843  0.22120  1.0000
  I   I1        1.0  0.86099  0.07526  0.87661  1.0000
  I   I2        1.0  0.12469  0.99435  0.09269  1.0000
  I   I3        1.0  0.01801  0.83809  0.98779  1.0000
  I   I4        1.0  0.57512  0.66124  0.83713  1.0000
  I   I5        1.0  0.73474  0.94425  0.32992  1.0000
  I   I6        1.0  0.70414  0.97374  0.95450  1.0000
  I   I7        1.0  0.17246  0.59309  0.29911  1.0000
  I   I8        1.0  0.29274  0.58975  0.80403  1.0000
  I   I9        1.0  0.35116  0.29001  0.60742  1.0000
  I   I10       1.0  0.49789  0.54029  0.70919  1.0000
  I   I11       1.0  0.25877  0.30582  0.51150  1.0000
  I   I12       1.0  0.45786  0.55025  0.19709  1.0000
  I   I13       1.0  0.79173  0.58145  0.11177  1.0000
  I   I14       1.0  0.92905  0.85270  0.22239  1.0000
  I   I15       1.0  0.63707  0.66278  0.62849  1.0000
  I   I16       1.0  0.44900  0.60818  0.75925  1.0000
  I   I17       1.0  0.78424  0.17781  0.60161  1.0000
  I   I18       1.0  0.33188  0.09383  0.26960  1.0000
  I   I19       1.0  0.20210  0.85211  0.46103  1.0000
  I   I20       1.0  0.23577  0.25545  0.47108  1.0000
  I   I21       1.0  0.14934  0.57425  0.18593  1.0000
  I   I22       1.0  0.20300  0.06250  0.41419  1.0000
  I   I23       1.0  0.16464  0.12680  0.40129  1.0000
  I   I24       1.0  0.84828  0.66736  0.22830  1.0000
  I   I25       1.0  0.46404  0.40297  0.26498  1.0000
  I   I26       1.0  0.40200  0.05522  0.08996  1.0000
  I   I27       1.0  0.73066  0.29075  0.14113  1.0000
  I   I28       1.0  0.31057  0.06534  0.96448  1.0000
  I   I29       1.0  0.23269  0.81321  0.85811  1.0000
  I   I30       1.0  0.28820  0.83429  0.93670  1.0000
  I   I31       1.0  0.99358  0.37986  0.66632  1.0000
  I   I32       1.0  0.32774  0.86416  0.16889  1.0000
  I   I33       1.0  0.77072  0.69087  0.51489  1.0000
  I   I34       1.0  0.13703  0.37976  0.52426  1.0000
  I   I35       1.0  0.87121  0.26193  0.86791  1.0000
  I   I36       1.0  0.66821  0.50671  0.89968  1.0000
  I   I37       1.0  0.18762  0.14975  0.67721  1.0000
  I   I38       1.0  0.49225  0.72673  0.13320  1.0000
  I   I39       1.0  0.19970  0.07938  0.60299  1.0000
  I   I40       1.0  0.55373  0.37633  0.81978  1.0000
  I   I41       1.0  0.95404  0.76764  0.39519  1.0000
  I   I42       1.0  0.44227  0.66585  0.81666  1.0000
  I   I43       1.0  0.42804  0.55761  0.52745  1.0000
  I   I44       1.0  0.58279  0.39737  0.75498  1.0000
  I   I45       1.0  0.13650  0.26527  0.45173  1.0000
  I   I46       1.0  0.33733  0.56063  0.16711  1.0000
  I   I47       1.0  0.85778  0.09820  0.76247  1.0000
  I   I48       1.0  0.97832  0.94346  0.29615  1.0000
  I   I49       1.0  0.95375  0.85403  0.02951  1.0000
  I   I50       1.0  0.16109  0.97012  0.16055  1.0000
  I   I51       1.0  0.09490  0.96417  0.14325  1.0000
  I   I52       1.0  0.93841  0.37693  0.75367  1.0000
  I   I53       1.0  0.57048  0.71717  0.78805  1.0000
  I   I54       1.0  0.71785  0.93269  0.04958  1.0000
  I   I55       1.0  0.59672  0.91373  0.40100  1.0000
  I   I56       1.0  0.19480  0.57700  0.20489  1.0000
  I   I57       1.0  0.34929  0.28824  0.49805  1.0000
  I   I58       1.0  0.45066  0.55637  0.83226  1.0000
  I   I59       1.0  0.86196  0.95898  0.05740  1.0000
  I   I60       1.0  0.96482  0.39985  0.01783  1.0000
  I   I61       1.0  0.72984  0.64874  0.29083  1.0000
  I   I62       1.0  0.69530  0.66873  0.19161  1.0000
  I   I63       1.0  0.95896  0.77404  0.22527  1.0000
  I   I64       1.0  0.50167  0.49897  0.64629  1.0000
  I   I65       1.0  0.07341  0.77410  0.32985  1.0000
  I   I66       1.0  0.77108  0.19584  0.71954  1.0000
  I   I67       1.0  0.22023  0.64183  0.51824  1.0000
  I   I68       1.0  0.24660  0.80777  0.36936  1.0000
  I   I69       1.0  0.67565  0.87928  0.73109  1.0000
  I   I70       1.0  0.80230  0.71845  0.01549  1.0000
  I   I71       1.0  0.12302  0.09799  0.40180  1.0000
  I   I72       1.0  0.90650  0.02632  0.83261  1.0000
  I   I73       1.0  0.82927  0.23696  0.09341  1.0000
  I   I74       1.0  0.66531  0.95111  0.65265  1.0000
  I   I75       1.0  0.68570  0.89425  0.64411  1.0000
  I   I76       1.0  0.15592  0.55529  0.52076  1.0000
  I   I77       1.0  0.17027  0.53431  0.40499  1.0000
  I   I78       1.0  0.46321  0.62152  0.26509  1.0000
  I   I79       1.0  0.29983  0.57497  0.61058  1.0000
  I   I80       1.0  0.46753  0.10824  0.39496  1.0000
  I   I81       1.0  0.32034  0.93735  0.02060  1.0000
  I   I82       1.0  0.96432  0.19393  0.69801  1.0000
  I   I83       1.0  0.10127  0.42871  0.32606  1.0000
  I   I84       1.0  0.91243  0.23946  0.78650  1.0000
  I   I85       1.0  0.15656  0.13569  0.61163  1.0000
  I   I86       1.0  0.83743  0.17763  0.64768  1.0000
  I   I87       1.0  0.50221  0.75847  0.20766  1.0000
  I   I88       1.0  0.44421  0.71600  0.87391  1.0000
  I   I89       1.0  0.51757  0.34014  0.72281  1.0000
  I   I90       1.0  0.94757  0.81738  0.44291  1.0000
  I   I91       1.0  0.26312  0.51410  0.30768  1.0000
  I   I92       1.0  0.48142  0.69146  0.58346  1.0000
  I   I93       1.0  0.52756  0.43274  0.79926  1.0000
  I   I94       1.0  0.09379  0.85810  0.27690  1.0000
  I   I95       1.0  0.36902  0.99704  0.49070  1.0000
  I   I96       1.0  0.85071  0.36788  0.21243  1.0000
  I   I97       1.0  0.24536  0.19876  0.59845  1.0000
  I   I98       1.0  0.39915  0.68190  0.31544  1.0000
  I   I99       1.0  0.18312  0.94791  0.05425  1.0000
  I   I100      1.0  0.91382  0.66804  0.95027  1.0000
  I   I101      1.0  0.69150  0.34651  0.58779  1.0000
  I   I102      1.0  0.46409  0.49777  0.17177  1.0000
  I   I103      1.0  0.55021  0.92320  0.30535  1.0000
  I   I104      1.0  0.57184  0.86807  0.49221  1.0000
  I   I105      1.0  0.44936  0.28663  0.51399  1.0000
  I   I106      1.0  0.92961  0.45756  0.97589  1.0000
  I   I107      1.0  0.49846  0.56422  0.79915  1.0000
  I   I108      1.0  0.97628  0.44575  0.06533  1.0000
  I   I109      1.0  0.68742  0.60976  0.66180  1.0000
  I   I110      1.0  0.69652  0.62245  0.23693  1.0000
  I   I111      1.0  0.99205  0.80380  0.23262  1.0000
  I   I112      1.0  0.26559  0.15128  0.32912  1.0000
  I   I113      1.0  0.08723  0.70731  0.32890  1.0000
  I   I114      1.0  0.27261  0.27482  0.81310  1.0000
  I   I115      1.0  0.89293  0.62390  0.17262  1.0000
  I   I116      1.0  0.83249  0.65629  0.00882  1.0000
  I   I117      1.0  0.19940  0.66244  0.39938  1.0000
  I   I118      1.0  0.89430  0.53864  0.38865  1.0000
  I   I119      1.0  0.86239  0.69373  0.04602  1.0000
  I   I120      1.0  0.91170  0.07681  0.81702  1.0000
  I   I121      1.0  0.79320  0.29529  0.20123  1.0000
  I   I122      1.0  0.46786  0.43568  0.35085  1.0000
  I   I123      1.0  0.43566  0.05752  0.97547  1.0000
  I   I124      1.0  0.25093  0.90276  0.92011  1.0000
  I   I125      1.0  0.31405  0.01927  0.06536  1.0000
  I   I126      1.0  0.18322  0.83846  0.92634  1.0000
  I   I127      1.0  0.31246  0.61424  0.56468  1.0000
  I   I128      1.0  0.92230  0.61807  0.99641  1.0000
  I   I129      1.0  0.37050  0.93697  0.04321  1.0000
  I   I130      1.0  0.85866  0.17974  0.76792  1.0000
  I   I131      1.0  0.97332  0.22889  0.64512  1.0000
  I   I132      1.0  0.12444  0.45809  0.37334  1.0000
  I   I133      1.0  0.45333  0.78455  0.16078  1.0000
  I   I134      1.0  0.78943  0.05093  0.66967  1.0000
  I   I135      1.0  0.79856  0.23426  0.69517  1.0000
  I   I136      1.0  0.99782  0.75087  0.46660  1.0000
  I   I137      1.0  0.65251  0.45095  0.48857  1.0000
  I   I138      1.0  0.42692  0.32500  0.86658  1.0000
  I   I139      1.0  0.27592  0.52866  0.44616  1.0000
  I   I140      1.0  0.43313  0.68786  0.52105  1.0000
  I   I141      1.0  0.07581  0.21894  0.90541  1.0000
  I   I142      1.0  0.02913  0.87534  0.26641  1.0000
  I   I143      1.0  0.34561  0.00187  0.59813  1.0000
  I   I144      1.0  0.89348  0.30434  0.25457  1.0000
  I   I145      1.0  0.44077  0.63697  0.37626  1.0000
  I   I146      1.0  0.07022  0.98435  0.02730  1.0000
  I   I147      1.0  0.26774  0.14293  0.56655  1.0000
  I   I148      1.0  0.71939  0.39758  0.44191  1.0000
  I   I149      1.0  0.43224  0.52066  0.27955  1.0000
  I   I150      1.0  0.71078  0.98097  0.42545  1.0000
  I   I151      1.0  0.60675  0.89438  0.51176  1.0000
  I   I152      1.0  0.08372  0.59217  0.18667  1.0000
  I   I153      1.0  0.40250  0.27613  0.49683  1.0000
  I   I154      1.0  0.03950  0.97689  0.46808  1.0000
  I   I155      1.0  0.28979  0.24179  0.54252  1.0000
  I   I156      1.0  0.99868  0.45092  0.14717  1.0000
  I   I157      1.0  0.70015  0.64060  0.59111  1.0000
  I   I158      1.0  0.95367  0.81297  0.14476  1.0000
  I   I159      1.0  0.64502  0.65515  0.50939  1.0000
  I   I160      1.0  0.29913  0.19729  0.38467  1.0000
  I   I161      1.0  0.27062  0.22332  0.85048  1.0000
  I   I162      1.0  0.29473  0.14918  0.22519  1.0000
  I   I163      1.0  0.18587  0.70029  0.53632  1.0000
  I   I164      1.0  0.21204  0.72543  0.36406  1.0000
  I   I165      1.0  0.13129  0.57704  0.27310  1.0000
  I   I166      1.0  0.86783  0.52025  0.30156  1.0000
  I   I167      1.0  0.15962  0.10483  0.49151  1.0000
  I   I168      1.0  0.85943  0.87857  0.61815  1.0000
  I   I169      1.0  0.49062  0.35702  0.40671  1.0000
  I   I170      1.0  0.43184  0.43032  0.41770  1.0000
  I   I171      1.0  0.84333  0.28329  0.11783  1.0000
  I   I172      1.0  0.22611  0.05552  0.04035  1.0000
  I   I173      1.0  0.21632  0.76567  0.96977  1.0000
  I   I174      1.0  0.31199  0.88346  0.93772  1.0000
  I   I175      1.0  0.49574  0.06291  0.28079  1.0000
  I   I176      1.0  0.29003  0.89752  0.09810  1.0000
  I   I177      1.0  0.82268  0.69522  0.50504  1.0000
  I   I178      1.0  0.02604  0.15994  0.69676  1.0000
  I   I179      1.0  0.11255  0.40210  0.40936  1.0000
  I   I180      1.0  0.87900  0.22029  0.71007  1.0000
  I   I181      1.0  0.22815  0.07608  0.52577  1.0000
  I   I182      1.0  0.75467  0.29153  0.62838  1.0000
  I   I183      1.0  0.12743  0.22975  0.33739  1.0000
  I   I184      1.0  0.66353  0.40893  0.54984  1.0000
  I   I185      1.0  0.49314  0.29759  0.91250  1.0000
  I   I186      1.0  0.00015  0.75749  0.61695  1.0000
  I   I187      1.0  0.42732  0.74335  0.51031  1.0000
  I   I188      1.0  0.52564  0.41117  0.67642  1.0000
  I   I189      1.0  0.08778  0.27486  0.37727  1.0000
  I   I190      1.0  0.38033  0.03760  0.58430  1.0000
  I   I191      1.0  0.75310  0.43545  0.16499  1.0000
  I   I192      1.0  0.98240  0.89818  0.38834  1.0000
  I   I193      1.0  0.20089  0.78404  0.85766  1.0000
  I   I194      1.0  0.75908  0.45795  0.26565  1.0000
  I   I195      1.0  0.30436  0.16831  0.56524  1.0000
  I   I196      1.0  0.96489  0.65098  0.02307  1.0000
  I   I197      1.0  0.37317  0.58765  0.47901  1.0000
  I   I198      1.0  0.68000  0.94597  0.40590  1.0000
  I   I199      1.0  0.55860  0.88821  0.38880  1.0000
  I   I200      1.0  0.30614  0.60994  0.92425  1.0000
  I   I201      1.0  0.42475  0.32267  0.59471  1.0000
  I   I202      1.0  0.85800  0.94340  0.16738  1.0000
  I   I203      1.0  0.70638  0.82915  0.68022  1.0000
  I   I204      1.0  0.96487  0.43466  0.21650  1.0000
  I   I205      1.0  0.77079  0.55581  0.16164  1.0000
  I   I206      1.0  0.99663  0.65920  0.85798  1.0000
  I   I207      1.0  0.63434  0.61125  0.59976  1.0000
  I   I208      1.0  0.44530  0.55154  0.70769  1.0000
  I   I209      1.0  0.21019  0.29667  0.84009  1.0000
  I   I210      1.0  0.79367  0.68626  0.41316  1.0000
  I   I211      1.0  0.83962  0.62191  0.16113  1.0000
  I   I212      1.0  0.24961  0.79293  0.48466  1.0000
  I   I213      1.0  0.73330  0.83539  0.76406  1.0000
  I   I214      1.0  0.92970  0.47081  0.33144  1.0000
  I   I215      1.0  0.22374  0.03952  0.29401  1.0000
  I   I216      1.0  0.87807  0.91421  0.66803  1.0000
  I   I217      1.0  0.44414  0.37968  0.36026  1.0000
  I   I218      1.0  0.44602  0.00508  0.02503  1.0000
  I   I219      1.0  0.78372  0.29254  0.11558  1.0000
  I   I220      1.0  0.14801  0.51102  0.51604  1.0000
  I   I221      1.0  0.24490  0.79474  0.95896  1.0000
  I   I222      1.0  0.19937  0.02185  0.07920  1.0000
  I   I223      1.0  0.43487  0.09057  0.30398  1.0000
  I   I224      1.0  0.37043  0.88478  0.10747  1.0000
  I   I225      1.0  0.26931  0.63307  0.65451  1.0000
  I   I226      1.0  0.97614  0.21876  0.77283  1.0000
  I   I227      1.0  0.06892  0.48425  0.35682  1.0000
  I   I228      1.0  0.90627  0.15650  0.76935  1.0000
  I   I229      1.0  0.23265  0.10393  0.61044  1.0000
  I   I230      1.0  0.82754  0.98370  0.74047  1.0000
  I   I231      1.0  0.49715  0.77535  0.06777  1.0000
  I   I232      1.0  0.95566  0.63131  0.88983  1.0000
  I   I233      1.0  0.56276  0.36152  0.71319  1.0000
  I   I234      1.0  0.96567  0.79000  0.54273  1.0000
  I   I235      1.0  0.09722  0.92917  0.42872  1.0000
  I   I236      1.0  0.06938  0.25623  0.99804  1.0000
  I   I237      1.0  0.31767  0.49002  0.35984  1.0000
  I   I238      1.0  0.34872  0.55547  0.05281  1.0000
  I   I239      1.0  0.89470  0.33681  0.14785  1.0000
  I   I240      1.0  0.03089  0.88215  0.36390  1.0000
  I   I241      1.0  0.39769  0.63160  0.27629  1.0000
  I   I242      1.0  0.06179  0.02225  0.11716  1.0000
  I   I243      1.0  0.26710  0.16920  0.46638  1.0000
  I   I244      1.0  0.68686  0.36896  0.47699  1.0000
  I   I245      1.0  0.58255  0.70673  0.91157  1.0000
  I   I246      1.0  0.74174  0.92520  0.44988  1.0000
  I   I247      1.0  0.57076  0.96688  0.35598  1.0000
  I   I248      1.0  0.13688  0.53076  0.14872  1.0000
  I   I249      1.0  0.37151  0.32390  0.54936  1.0000
  I   I250      1.0  0.91266  0.90013  0.10061  1.0000
  I   I251      1.0  0.28866  0.27114  0.43785  1.0000
  I   I252      1.0  0.90515  0.44429  0.05561  1.0000
  I   I253      1.0  0.71881  0.59341  0.12838  1.0000
  I   I254      1.0  0.96205  0.65366  0.77457  1.0000
  I   I255      1.0  0.67852  0.60351  0.54288  1.0000
  I   I256      1.0  0.05512  0.73985  0.23708  1.0000
  I   I257      1.0  0.22358  0.26458  0.91781  1.0000
  I   I258      1.0  0.26910  0.20144  0.31114  1.0000
  I   I259      1.0  0.81020  0.68149  0.12745  1.0000
  I   I260      1.0  0.23206  0.68288  0.46391  1.0000
  I   I261      1.0  0.10827  0.54722  0.26471  1.0000
  I   I262      1.0  0.88349  0.48463  0.41068  1.0000
  I   I263      1.0  0.16762  0.07069  0.32354  1.0000
  I   I264      1.0  0.85004  0.94251  0.55899  1.0000
  I   I265      1.0  0.41122  0.44363  0.31059  1.0000
  I   I266      1.0  0.62699  0.93242  0.71249  1.0000
  I   I267      1.0  0.85616  0.23895  0.19805  1.0000
  I   I268      1.0  0.36641  0.01813  0.01958  1.0000
  I   I269      1.0  0.29198  0.73911  0.97725  1.0000
  I   I270      1.0  0.26063  0.99101  0.04079  1.0000
  I   I271      1.0  0.45320  0.12965  0.28096  1.0000
  I   I272      1.0  0.34400  0.87834  0.03568  1.0000
  I   I273      1.0  0.34530  0.58307  0.64991  1.0000
  I   I274      1.0  0.70248  0.47732  0.00426  1.0000
  I   I275      1.0  0.08394  0.44577  0.46357  1.0000
  I   I276      1.0  0.85515  0.21955  0.84378  1.0000
  I   I277      1.0  0.02084  0.21835  0.69502  1.0000
  I   I278      1.0  0.77084  0.00933  0.72033  1.0000
  I   I279      1.0  0.11164  0.21399  0.44145  1.0000
  I   I280      1.0  0.72065  0.37053  0.61423  1.0000
  I   I281      1.0  0.49466  0.38353  0.64783  1.0000
  I   I282      1.0  0.04523  0.72976  0.53539  1.0000
  I   I283      1.0  0.07031  0.00543  0.40589  1.0000
  I   I284      1.0  0.08871  0.27948  0.92440  1.0000
  I   I285      1.0  0.09029  0.24509  0.52391  1.0000
  I   I286      1.0  0.40435  0.52924  0.08875  1.0000
  I   I287      1.0  0.90557  0.03953  0.73643  1.0000
  I   I288      1.0  0.07750  0.89187  0.36583  1.0000
  I   I289      1.0  0.96891  0.87208  0.91913  1.0000
  I   I290      1.0  0.81960  0.44030  0.19819  1.0000
  I   I291      1.0  0.12778  0.94687  0.04897  1.0000
  I   I292      1.0  0.74579  0.35420  0.51236  1.0000
  I   I293      1.0  0.62470  0.67912  0.82135  1.0000
  I   I294      1.0  0.73208  0.98888  0.04749  1.0000
  I   I295      1.0  0.61631  0.85546  0.42358  1.0000
  I   I296      1.0  0.26760  0.64590  0.85148  1.0000
  I   I297      1.0  0.42011  0.27223  0.61437  1.0000
  I   I298      1.0  0.40443  0.51558  0.48173  1.0000
  I   I299      1.0  0.44596  0.49864  0.68192  1.0000
  I   I300      1.0  0.98893  0.39949  0.12339  1.0000
  I   I301      1.0  0.63965  0.59559  0.46474  1.0000
  I   I302      1.0  0.74867  0.63387  0.14861  1.0000
  I   I303      1.0  0.41677  0.71630  0.75293  1.0000
  I   I304      1.0  0.30715  0.12881  0.38215  1.0000
  I   I305      1.0  0.49189  0.50375  0.77658  1.0000
  I   I306      1.0  0.72145  0.27029  0.69346  1.0000
  I   I307      1.0  0.23717  0.67521  0.33639  1.0000
  I   I308      1.0  0.26295  0.84182  0.41986  1.0000
  I   I309      1.0  0.19312  0.52625  0.25336  1.0000
  I   I310      1.0  0.10483  0.96506  0.49342  1.0000
  I   I311      1.0  0.19430  0.10363  0.28659  1.0000
  I   I312      1.0  0.83969  0.05966  0.78740  1.0000
  I   I313      1.0  0.76536  0.26114  0.22013  1.0000
  I   I314      1.0  0.43065  0.38358  0.48172  1.0000
  I   I315      1.0  0.46278  0.04755  0.08752  1.0000
  I   I316      1.0  0.25221  0.03180  0.13523  1.0000
  I   I317      1.0  0.33525  0.00225  0.93556  1.0000
  I   I318      1.0  0.25049  0.72873  0.05911  1.0000
  I   I319      1.0  0.74440  0.74087  0.44588  1.0000
  I   I320      1.0  0.97912  0.59575  0.98079  1.0000
  I   I321      1.0  0.31391  0.92710  0.14940  1.0000
  I   I322      1.0  0.65818  0.53492  0.00484  1.0000
  I   I323      1.0  0.07764  0.39732  0.50651  1.0000
  I   I324      1.0  0.91127  0.19878  0.84073  1.0000
  I   I325      1.0  0.18570  0.13698  0.49735  1.0000
  I   I326      1.0  0.76787  0.23308  0.62538  1.0000
  I   I327      1.0  0.04864  0.26918  0.43682  1.0000
  I   I328      1.0  0.38738  0.72417  0.84618  1.0000
  I   I329      1.0  0.45079  0.36463  0.89917  1.0000
  I   I330      1.0  0.94371  0.75151  0.50979  1.0000
  I   I331      1.0  0.08461  0.29603  0.48534  1.0000
  I   I332      1.0  0.42328  0.54997  0.40150  1.0000
  I   I333      1.0  0.49509  0.39075  0.77243  1.0000
  I   I334      1.0  0.04076  0.91751  0.25752  1.0000
  I   I335      1.0  0.40592  0.97382  0.56382  1.0000
  I   I336      1.0  0.92208  0.34228  0.25259  1.0000
  I   I337      1.0  0.96594  0.90584  0.01107  1.0000
  I   I338      1.0  0.76533  0.48531  0.15813  1.0000
  I   I339      1.0  0.15080  0.91773  0.13579  1.0000
  I   I340      1.0  0.99185  0.32891  0.70935  1.0000
  I   I341      1.0  0.49663  0.50963  0.26986  1.0000
  I   I342      1.0  0.77109  0.93213  0.02023  1.0000
  I   I343      1.0  0.54346  0.94225  0.43880  1.0000
  I   I344      1.0  0.25164  0.60185  0.89475  1.0000
  I   I345      1.0  0.38578  0.23632  0.54601  1.0000
  I   I346      1.0  0.86881  0.65148  0.08386  1.0000
  I   I347      1.0  0.90885  0.95277  0.14280  1.0000
  I   I348      1.0  0.93159  0.46781  0.12022  1.0000
  I   I349      1.0  0.59229  0.63886  0.52044  1.0000
  I   I350      1.0  0.75861  0.59820  0.21600  1.0000
  I   I351      1.0  0.00392  0.59718  0.82880  1.0000
  I   I352      1.0  0.32672  0.15540  0.30517  1.0000
  I   I353      1.0  0.02585  0.75640  0.33384  1.0000
  I   I354      1.0  0.76614  0.27464  0.75189  1.0000
  I   I355      1.0  0.16814  0.71373  0.43400  1.0000
  I   I356      1.0  0.17703  0.70803  0.31892  1.0000
  I   I357      1.0  0.68443  0.93590  0.75185  1.0000
  I   I358      1.0  0.90471  0.89104  0.56592  1.0000
  I   I359      1.0  0.24029  0.07651  0.35577  1.0000
  I   I360      1.0  0.95933  0.04119  0.74555  1.0000
  I   I361      1.0  0.72796  0.33303  0.21253  1.0000
  I   I362      1.0  0.48095  0.39219  0.47725  1.0000
  I   I363      1.0  0.74907  0.85902  0.67369  1.0000
  I   I364      1.0  0.30691  0.85206  0.85035  1.0000
  I   I365      1.0  0.20886  0.49341  0.49819  1.0000
  I   I366      1.0  0.26960  0.77645  0.06993  1.0000
  I   I367      1.0  0.78193  0.73594  0.53618  1.0000
  I   I368      1.0  0.00075  0.36638  0.78442  1.0000
  I   I369      1.0  0.36999  0.89411  0.96822  1.0000
  I   I370      1.0  0.71252  0.52564  0.94591  1.0000
  I   I371      1.0  0.11569  0.34553  0.46088  1.0000
  I   I372      1.0  0.84362  0.26201  0.76658  1.0000
  I   I373      1.0  0.20233  0.10232  0.71986  1.0000
  I   I374      1.0  0.82614  0.98376  0.63744  1.0000
  I   I375      1.0  0.16534  0.21325  0.41187  1.0000
  I   I376      1.0  0.65094  0.42019  0.42910  1.0000
  I   I377      1.0  0.48611  0.31539  0.81503  1.0000
  I   I378      1.0  0.01018  0.79582  0.54057  1.0000
  I   I379      1.0  0.26082  0.48661  0.40734  1.0000
  I   I380      1.0  0.48613  0.69143  0.47206  1.0000
  I   I381      1.0  0.03590  0.28120  0.87783  1.0000
  I   I382      1.0  0.97396  0.89718  0.26388  1.0000
  I   I383      1.0  0.37722  0.58629  0.11381  1.0000
  I   I384      1.0  0.95909  0.99442  0.78897  1.0000
