data_image0
_chemical_formula_structural       Ti96I384
_chemical_formula_sum              "Ti96 I384"
_cell_length_a       63.6665
_cell_length_b       63.3508
_cell_length_c       30.987
_cell_angle_alpha    88.7757
_cell_angle_beta     88.7757
_cell_angle_gamma    62.1586

_space_group_name_H-M_alt    "P 1"
_space_group_IT_number       1

loop_
  _space_group_symop_operation_xyz
  'x, y, z'

loop_
  _atom_site_type_symbol
  _atom_site_label
  _atom_site_symmetry_multiplicity
  _atom_site_fract_x
  _atom_site_fract_y
  _atom_site_fract_z
  _atom_site_occupancy
  Ti  Ti1       1.0  0.49229  0.96336  0.53553  1.0000
  Ti  Ti2       1.0  0.47798  0.16773  0.45957  1.0000
  Ti  Ti3       1.0  0.89275  0.64748  0.04051  1.0000
  Ti  Ti4       1.0  0.78548  0.24544  0.08782  1.0000
  Ti  Ti5       1.0  0.28826  0.77669  0.91477  1.0000
  Ti  Ti6       1.0  0.24712  0.21700  0.37400  1.0000
  Ti  Ti7       1.0  0.99670  0.92484  0.00532  1.0000
  Ti  Ti8       1.0  0.41996  0.49324  0.94401  1.0000
  Ti  Ti9       1.0  0.33957  0.89990  0.83613  1.0000
  Ti  Ti10      1.0  0.81025  0.75876  0.36733  1.0000
  Ti  Ti11      1.0  0.43751  0.31240  0.64099  1.0000
  Ti  Ti12      1.0  0.18726  0.62469  0.44553  1.0000
  Ti  Ti13      1.0  0.24842  0.44741  0.27887  1.0000
  Ti  Ti14      1.0  0.08104  0.96918  0.74193  1.0000
  Ti  Ti15      1.0  0.46411  0.96915  0.25219  1.0000
  Ti  Ti16      1.0  0.63308  0.83820  0.50659  1.0000
  Ti  Ti17      1.0  0.28154  0.24207  0.06945  1.0000
  Ti  Ti18      1.0  0.96941  0.66530  0.77917  1.0000
  Ti  Ti19      1.0  0.90468  0.81584  0.47406  1.0000
  Ti  Ti20      1.0  0.26709  0.02992  0.06246  1.0000
  Ti  Ti21      1.0  0.93048  0.14229  0.27007  1.0000
  Ti  Ti22      1.0  0.59133  0.50516  0.88892  1.0000
  Ti  Ti23      1.0  0.76052  0.87637  0.91947  1.0000
  Ti  Ti24      1.0  0.13111  0.69371  0.80760  1.0000
  Ti  Ti25      1.0  0.03908  0.43802  0.60694  1.0000
  Ti  Ti26      1.0  0.04563  0.14600  0.20233  1.0000
  Ti  Ti27      1.0  0.13169  0.61290  0.11491  1.0000
  Ti  Ti28      1.0  0.56166  0.47386  0.26715  1.0000
  Ti  Ti29      1.0  0.09849  0.89816  0.26658  1.0000
  Ti  Ti30      1.0  0.87456  0.39339  0.19444  1.0000
  Ti  Ti31      1.0  0.82761  0.39364  0.61131  1.0000
  Ti  Ti32      1.0  0.66855  0.11293  0.25727  1.0000
  Ti  Ti33      1.0  0.37458  0.93132  0.38443  1.0000
  Ti  Ti34      1.0  0.58060  0.69219  0.81102  1.0000
  Ti  Ti35      1.0  0.83717  0.48131  0.74969  1.0000
  Ti  Ti36      1.0  0.01043  0.49276  0.29765  1.0000
  Ti  Ti37      1.0  0.10741  0.18292  0.39577  1.0000
  Ti  Ti38      1.0  0.39179  0.38916  0.32833  1.0000
  Ti  Ti39      1.0  0.59496  0.27526  0.27071  1.0000
  Ti  Ti40      1.0  0.64844  0.77311  0.28755  1.0000
  Ti  Ti41      1.0  0.53690  0.73385  0.51103  1.0000
  Ti  Ti42      1.0  0.60734  0.18424  0.70913  1.0000
  Ti  Ti43      1.0  0.51225  0.06851  0.01175  1.0000
  Ti  Ti44      1.0  0.73322  0.63922  0.05020  1.0000
  Ti  Ti45      1.0  0.38206  0.64854  0.97644  1.0000
  Ti  Ti46      1.0  0.17255  0.29299  0.83332  1.0000
  Ti  Ti47      1.0  0.06531  0.18512  0.90130  1.0000
  Ti  Ti48      1.0  0.45640  0.57858  0.58057  1.0000
  Ti  Ti49      1.0  0.46449  0.93191  0.57573  1.0000
  Ti  Ti50      1.0  0.33955  0.02615  0.66894  1.0000
  Ti  Ti51      1.0  0.53139  0.11546  0.40203  1.0000
  Ti  Ti52      1.0  0.78258  0.29770  0.15211  1.0000
  Ti  Ti53      1.0  0.24131  0.70045  0.24321  1.0000
  Ti  Ti54      1.0  0.23886  0.16303  0.44423  1.0000
  Ti  Ti55      1.0  0.00842  0.86789  0.99868  1.0000
  Ti  Ti56      1.0  0.40825  0.52456  0.04915  1.0000
  Ti  Ti57      1.0  0.33329  0.96426  0.88854  1.0000
  Ti  Ti58      1.0  0.49144  0.12009  0.88768  1.0000
  Ti  Ti59      1.0  0.82379  0.68119  0.39050  1.0000
  Ti  Ti60      1.0  0.19768  0.60443  0.57007  1.0000
  Ti  Ti61      1.0  0.50763  0.99246  0.26293  1.0000
  Ti  Ti62      1.0  0.19531  0.43088  0.36180  1.0000
  Ti  Ti63      1.0  0.14295  0.96953  0.72547  1.0000
  Ti  Ti64      1.0  0.95514  0.71064  0.70854  1.0000
  Ti  Ti65      1.0  0.11760  0.54934  0.70567  1.0000
  Ti  Ti66      1.0  0.41129  0.46910  0.50990  1.0000
  Ti  Ti67      1.0  0.85366  0.86439  0.47838  1.0000
  Ti  Ti68      1.0  0.13715  0.12264  0.68739  1.0000
  Ti  Ti69      1.0  0.90358  0.19202  0.31537  1.0000
  Ti  Ti70      1.0  0.60073  0.50077  0.00486  1.0000
  Ti  Ti71      1.0  0.76290  0.87215  0.01062  1.0000
  Ti  Ti72      1.0  0.98688  0.02124  0.12570  1.0000
  Ti  Ti73      1.0  0.19686  0.56826  0.08187  1.0000
  Ti  Ti74      1.0  0.08904  0.42186  0.64600  1.0000
  Ti  Ti75      1.0  0.10535  0.07463  0.24398  1.0000
  Ti  Ti76      1.0  0.83855  0.41307  0.10548  1.0000
  Ti  Ti77      1.0  0.55959  0.43610  0.33541  1.0000
  Ti  Ti78      1.0  0.02856  0.95970  0.26217  1.0000
  Ti  Ti79      1.0  0.18358  0.88503  0.42685  1.0000
  Ti  Ti80      1.0  0.87003  0.39268  0.55173  1.0000
  Ti  Ti81      1.0  0.62814  0.13665  0.12937  1.0000
  Ti  Ti82      1.0  0.55411  0.66171  0.82892  1.0000
  Ti  Ti83      1.0  0.84965  0.50171  0.88831  1.0000
  Ti  Ti84      1.0  0.98432  0.56330  0.26873  1.0000
  Ti  Ti85      1.0  0.05864  0.24434  0.31588  1.0000
  Ti  Ti86      1.0  0.39679  0.44052  0.40205  1.0000
  Ti  Ti87      1.0  0.65563  0.28963  0.31406  1.0000
  Ti  Ti88      1.0  0.70445  0.72285  0.31039  1.0000
  Ti  Ti89      1.0  0.59483  0.73064  0.57869  1.0000
  Ti  Ti90      1.0  0.65434  0.11332  0.72412  1.0000
  Ti  Ti91      1.0  0.43554  0.63875  0.92584  1.0000
  Ti  Ti92      1.0  0.87186  0.11232  0.57665  1.0000
  Ti  Ti93      1.0  0.77393  0.61543  0.13177  1.0000
  Ti  Ti94      1.0  0.39425  0.63327  0.66139  1.0000
  Ti  Ti95      1.0  0.13447  0.35448  0.86514  1.0000
  Ti  Ti96      1.0  0.12439  0.15148  0.94610  1.0000
  I   I1        1.0  0.11572  0.13074  0.88298  1.0000
  I   I2        1.0  0.48958  0.11669  0.43253  1.0000
  I   I3        1.0  0.47378  0.89365  0.52692  1.0000
  I   I4        1.0  0.28685  0.68811  0.23123  1.0000
  I   I5        1.0  0.21077  0.24869  0.32741  1.0000
  I   I6        1.0  0.23746  0.13606  0.37402  1.0000
  I   I7        1.0  0.37904  0.50884  0.08012  1.0000
  I   I8        1.0  0.37916  0.53307  0.96218  1.0000
  I   I9        1.0  0.32333  0.94976  0.96225  1.0000
  I   I10       1.0  0.79344  0.72477  0.41745  1.0000
  I   I11       1.0  0.43149  0.27855  0.61794  1.0000
  I   I12       1.0  0.29685  0.73363  0.89853  1.0000
  I   I13       1.0  0.23461  0.43625  0.37598  1.0000
  I   I14       1.0  0.17839  0.95646  0.78222  1.0000
  I   I15       1.0  0.43173  0.99152  0.19924  1.0000
  I   I16       1.0  0.61707  0.88087  0.47207  1.0000
  I   I17       1.0  0.45124  0.46616  0.53875  1.0000
  I   I18       1.0  0.97985  0.70384  0.63263  1.0000
  I   I19       1.0  0.31288  0.00393  0.07222  1.0000
  I   I20       1.0  0.41291  0.33222  0.70814  1.0000
  I   I21       1.0  0.93971  0.18600  0.25701  1.0000
  I   I22       1.0  0.78172  0.84112  0.85719  1.0000
  I   I23       1.0  0.73373  0.86026  0.96421  1.0000
  I   I24       1.0  0.63819  0.47214  0.95108  1.0000
  I   I25       1.0  0.12021  0.43568  0.64379  1.0000
  I   I26       1.0  0.08648  0.12787  0.24537  1.0000
  I   I27       1.0  0.09402  0.63561  0.06929  1.0000
  I   I28       1.0  0.59264  0.42852  0.38918  1.0000
  I   I29       1.0  0.03077  0.99898  0.29401  1.0000
  I   I30       1.0  0.82294  0.38804  0.05496  1.0000
  I   I31       1.0  0.82295  0.42060  0.53106  1.0000
  I   I32       1.0  0.64627  0.13397  0.04485  1.0000
  I   I33       1.0  0.17285  0.91285  0.49407  1.0000
  I   I34       1.0  0.81738  0.45714  0.71527  1.0000
  I   I35       1.0  0.96278  0.57924  0.18767  1.0000
  I   I36       1.0  0.59951  0.70573  0.75128  1.0000
  I   I37       1.0  0.12459  0.18488  0.47183  1.0000
  I   I38       1.0  0.57608  0.31043  0.21515  1.0000
  I   I39       1.0  0.08597  0.19225  0.30090  1.0000
  I   I40       1.0  0.63260  0.73431  0.55204  1.0000
  I   I41       1.0  0.69548  0.08699  0.76608  1.0000
  I   I42       1.0  0.68960  0.77921  0.30836  1.0000
  I   I43       1.0  0.48711  0.04599  0.99386  1.0000
  I   I44       1.0  0.79356  0.62891  0.18838  1.0000
  I   I45       1.0  0.46932  0.65439  0.93303  1.0000
  I   I46       1.0  0.21815  0.27729  0.83019  1.0000
  I   I47       1.0  0.09897  0.18665  0.00619  1.0000
  I   I48       1.0  0.46619  0.61328  0.56202  1.0000
  I   I49       1.0  0.46270  0.90478  0.63433  1.0000
  I   I50       1.0  0.43711  0.18904  0.42898  1.0000
  I   I51       1.0  0.49262  0.15309  0.53801  1.0000
  I   I52       1.0  0.82362  0.21210  0.14006  1.0000
  I   I53       1.0  0.22955  0.68423  0.17545  1.0000
  I   I54       1.0  0.27607  0.17830  0.42174  1.0000
  I   I55       1.0  0.03821  0.89117  0.96481  1.0000
  I   I56       1.0  0.44197  0.48732  0.09253  1.0000
  I   I57       1.0  0.36615  0.92404  0.84567  1.0000
  I   I58       1.0  0.84310  0.76362  0.32166  1.0000
  I   I59       1.0  0.81689  0.76816  0.44553  1.0000
  I   I60       1.0  0.18279  0.58683  0.49786  1.0000
  I   I61       1.0  0.16460  0.47367  0.35715  1.0000
  I   I62       1.0  0.18491  0.39816  0.33959  1.0000
  I   I63       1.0  0.06809  0.00418  0.79147  1.0000
  I   I64       1.0  0.59753  0.82617  0.50848  1.0000
  I   I65       1.0  0.08896  0.57644  0.65105  1.0000
  I   I66       1.0  0.39169  0.46913  0.58085  1.0000
  I   I67       1.0  0.83372  0.89779  0.41798  1.0000
  I   I68       1.0  0.23366  0.05054  0.00192  1.0000
  I   I69       1.0  0.92747  0.10332  0.23917  1.0000
  I   I70       1.0  0.60621  0.46445  0.05615  1.0000
  I   I71       1.0  0.73224  0.89801  0.85348  1.0000
  I   I72       1.0  0.99376  0.04654  0.18833  1.0000
  I   I73       1.0  0.13013  0.57116  0.11046  1.0000
  I   I74       1.0  0.02164  0.15067  0.27650  1.0000
  I   I75       1.0  0.10451  0.03223  0.24390  1.0000
  I   I76       1.0  0.58075  0.41512  0.26562  1.0000
  I   I77       1.0  0.53724  0.41239  0.35268  1.0000
  I   I78       1.0  0.11876  0.90840  0.33223  1.0000
  I   I79       1.0  0.36635  0.92975  0.30550  1.0000
  I   I80       1.0  0.87005  0.42177  0.60512  1.0000
  I   I81       1.0  0.69317  0.13092  0.28309  1.0000
  I   I82       1.0  0.58334  0.72380  0.86122  1.0000
  I   I83       1.0  0.89493  0.47324  0.87719  1.0000
  I   I84       1.0  0.01307  0.53094  0.33037  1.0000
  I   I85       1.0  0.13340  0.14070  0.37443  1.0000
  I   I86       1.0  0.39220  0.39087  0.41663  1.0000
  I   I87       1.0  0.56092  0.28228  0.32509  1.0000
  I   I88       1.0  0.63925  0.73479  0.27658  1.0000
  I   I89       1.0  0.59075  0.69846  0.52887  1.0000
  I   I90       1.0  0.65365  0.15351  0.66875  1.0000
  I   I91       1.0  0.41831  0.66240  0.00114  1.0000
  I   I92       1.0  0.84572  0.10772  0.51855  1.0000
  I   I93       1.0  0.73676  0.62800  0.96869  1.0000
  I   I94       1.0  0.40297  0.61382  0.57418  1.0000
  I   I95       1.0  0.09006  0.37329  0.82567  1.0000
  I   I96       1.0  0.16257  0.15821  0.93088  1.0000
  I   I97       1.0  0.88846  0.62431  0.98192  1.0000
  I   I98       1.0  0.50988  0.92481  0.58629  1.0000
  I   I99       1.0  0.56161  0.06812  0.43148  1.0000
  I   I100      1.0  0.82189  0.28853  0.18922  1.0000
  I   I101      1.0  0.76574  0.21962  0.07029  1.0000
  I   I102      1.0  0.28873  0.81180  0.87310  1.0000
  I   I103      1.0  0.99251  0.95286  0.93632  1.0000
  I   I104      1.0  0.97084  0.86379  0.02135  1.0000
  I   I105      1.0  0.29716  0.00613  0.89292  1.0000
  I   I106      1.0  0.23269  0.59958  0.61544  1.0000
  I   I107      1.0  0.86578  0.65132  0.37616  1.0000
  I   I108      1.0  0.18804  0.65853  0.39035  1.0000
  I   I109      1.0  0.49676  0.96001  0.32253  1.0000
  I   I110      1.0  0.28316  0.40854  0.25835  1.0000
  I   I111      1.0  0.07248  0.93019  0.75952  1.0000
  I   I112      1.0  0.98847  0.63495  0.71536  1.0000
  I   I113      1.0  0.12758  0.57391  0.76432  1.0000
  I   I114      1.0  0.26968  0.24433  0.14537  1.0000
  I   I115      1.0  0.94927  0.80659  0.47282  1.0000
  I   I116      1.0  0.89475  0.86038  0.44200  1.0000
  I   I117      1.0  0.10025  0.14913  0.73596  1.0000
  I   I118      1.0  0.55814  0.52280  0.04756  1.0000
  I   I119      1.0  0.57664  0.53188  0.82371  1.0000
  I   I120      1.0  0.96004  0.00992  0.17861  1.0000
  I   I121      1.0  0.19137  0.53606  0.03019  1.0000
  I   I122      1.0  0.99673  0.47344  0.60170  1.0000
  I   I123      1.0  0.06086  0.13420  0.11897  1.0000
  I   I124      1.0  0.86132  0.43589  0.14713  1.0000
  I   I125      1.0  0.55750  0.48294  0.17734  1.0000
  I   I126      1.0  0.05067  0.91583  0.30460  1.0000
  I   I127      1.0  0.38489  0.89166  0.42009  1.0000
  I   I128      1.0  0.80277  0.37480  0.57264  1.0000
  I   I129      1.0  0.59840  0.11693  0.12876  1.0000
  I   I130      1.0  0.98107  0.52367  0.23318  1.0000
  I   I131      1.0  0.56957  0.65928  0.74316  1.0000
  I   I132      1.0  0.84311  0.53715  0.93511  1.0000
  I   I133      1.0  0.59318  0.24412  0.22290  1.0000
  I   I134      1.0  0.39639  0.40398  0.25388  1.0000
  I   I135      1.0  0.42722  0.41017  0.34687  1.0000
  I   I136      1.0  0.56798  0.20291  0.75778  1.0000
  I   I137      1.0  0.73495  0.71870  0.36516  1.0000
  I   I138      1.0  0.52833  0.73735  0.42647  1.0000
  I   I139      1.0  0.39322  0.62592  0.05292  1.0000
  I   I140      1.0  0.83487  0.14427  0.61807  1.0000
  I   I141      1.0  0.78501  0.62184  0.04483  1.0000
  I   I142      1.0  0.44084  0.58780  0.65955  1.0000
  I   I143      1.0  0.16088  0.36228  0.79999  1.0000
  I   I144      1.0  0.03358  0.21945  0.94752  1.0000
  I   I145      1.0  0.45682  0.97407  0.61254  1.0000
  I   I146      1.0  0.48840  0.20267  0.45463  1.0000
  I   I147      1.0  0.87339  0.68993  0.98965  1.0000
  I   I148      1.0  0.77733  0.25639  0.18043  1.0000
  I   I149      1.0  0.29180  0.78656  0.99634  1.0000
  I   I150      1.0  0.28075  0.12217  0.45783  1.0000
  I   I151      1.0  0.96934  0.91006  0.95687  1.0000
  I   I152      1.0  0.43139  0.51080  0.87344  1.0000
  I   I153      1.0  0.38279  0.86161  0.82613  1.0000
  I   I154      1.0  0.51326  0.11067  0.80800  1.0000
  I   I155      1.0  0.48088  0.29222  0.67247  1.0000
  I   I156      1.0  0.18848  0.57458  0.61959  1.0000
  I   I157      1.0  0.46527  0.92922  0.23558  1.0000
  I   I158      1.0  0.16401  0.97543  0.65745  1.0000
  I   I159      1.0  0.50479  0.01632  0.32897  1.0000
  I   I160      1.0  0.00125  0.68576  0.73858  1.0000
  I   I161      1.0  0.28588  0.28014  0.04285  1.0000
  I   I162      1.0  0.95164  0.75721  0.71609  1.0000
  I   I163      1.0  0.82547  0.89253  0.53962  1.0000
  I   I164      1.0  0.17144  0.13368  0.69982  1.0000
  I   I165      1.0  0.86454  0.23175  0.28425  1.0000
  I   I166      1.0  0.60695  0.46443  0.85721  1.0000
  I   I167      1.0  0.78389  0.90099  0.92356  1.0000
  I   I168      1.0  0.15768  0.64814  0.80090  1.0000
  I   I169      1.0  0.06654  0.45355  0.55670  1.0000
  I   I170      1.0  0.03960  0.40941  0.67172  1.0000
  I   I171      1.0  0.16284  0.61095  0.04543  1.0000
  I   I172      1.0  0.86718  0.39584  0.28121  1.0000
  I   I173      1.0  0.98714  0.96289  0.28274  1.0000
  I   I174      1.0  0.87247  0.35180  0.20400  1.0000
  I   I175      1.0  0.86757  0.35237  0.56967  1.0000
  I   I176      1.0  0.61249  0.18237  0.12783  1.0000
  I   I177      1.0  0.22406  0.84595  0.44799  1.0000
  I   I178      1.0  0.57721  0.61259  0.84073  1.0000
  I   I179      1.0  0.80317  0.50634  0.89038  1.0000
  I   I180      1.0  0.97699  0.60382  0.30301  1.0000
  I   I181      1.0  0.02005  0.24364  0.36178  1.0000
  I   I182      1.0  0.42934  0.42438  0.47175  1.0000
  I   I183      1.0  0.61369  0.29509  0.34612  1.0000
  I   I184      1.0  0.67039  0.74572  0.36832  1.0000
  I   I185      1.0  0.52547  0.69766  0.53898  1.0000
  I   I186      1.0  0.63402  0.10143  0.78959  1.0000
  I   I187      1.0  0.89601  0.07937  0.62957  1.0000
  I   I188      1.0  0.68947  0.66191  0.07157  1.0000
  I   I189      1.0  0.33889  0.66130  0.96292  1.0000
  I   I190      1.0  0.17450  0.25076  0.83479  1.0000
  I   I191      1.0  0.29821  0.04961  0.63562  1.0000
  I   I192      1.0  0.41597  0.65281  0.70447  1.0000
  I   I193      1.0  0.41615  0.94460  0.55882  1.0000
  I   I194      1.0  0.36760  0.03852  0.62791  1.0000
  I   I195      1.0  0.87951  0.62873  0.10468  1.0000
  I   I196      1.0  0.80654  0.23790  0.01408  1.0000
  I   I197      1.0  0.49235  0.09684  0.07586  1.0000
  I   I198      1.0  0.20963  0.19358  0.37549  1.0000
  I   I199      1.0  0.03278  0.82904  0.95555  1.0000
  I   I200      1.0  0.38978  0.56666  0.08536  1.0000
  I   I201      1.0  0.32001  0.88530  0.90235  1.0000
  I   I202      1.0  0.82430  0.71377  0.31243  1.0000
  I   I203      1.0  0.94974  0.13512  0.34421  1.0000
  I   I204      1.0  0.14051  0.65529  0.45601  1.0000
  I   I205      1.0  0.19284  0.42617  0.44844  1.0000
  I   I206      1.0  0.12095  0.95211  0.67673  1.0000
  I   I207      1.0  0.51074  0.95832  0.20090  1.0000
  I   I208      1.0  0.65570  0.81083  0.43909  1.0000
  I   I209      1.0  0.24974  0.23420  0.03622  1.0000
  I   I210      1.0  0.90882  0.73448  0.70845  1.0000
  I   I211      1.0  0.84115  0.83304  0.45025  1.0000
  I   I212      1.0  0.25908  0.06967  0.09205  1.0000
  I   I213      1.0  0.88805  0.16461  0.36850  1.0000
  I   I214      1.0  0.63180  0.50552  0.04757  1.0000
  I   I215      1.0  0.72083  0.91121  0.97626  1.0000
  I   I216      1.0  0.09269  0.70404  0.76842  1.0000
  I   I217      1.0  0.03671  0.42126  0.52147  1.0000
  I   I218      1.0  0.14627  0.07092  0.20474  1.0000
  I   I219      1.0  0.22950  0.57466  0.04048  1.0000
  I   I220      1.0  0.60380  0.46572  0.28795  1.0000
  I   I221      1.0  0.10724  0.85515  0.27049  1.0000
  I   I222      1.0  0.92166  0.37563  0.20571  1.0000
  I   I223      1.0  0.91777  0.36304  0.56748  1.0000
  I   I224      1.0  0.62405  0.13653  0.22236  1.0000
  I   I225      1.0  0.41512  0.93427  0.36960  1.0000
  I   I226      1.0  0.51350  0.66628  0.86561  1.0000
  I   I227      1.0  0.86509  0.47882  0.68788  1.0000
  I   I228      1.0  0.02759  0.47343  0.36897  1.0000
  I   I229      1.0  0.03022  0.27198  0.25518  1.0000
  I   I230      1.0  0.42634  0.34460  0.32870  1.0000
  I   I231      1.0  0.65664  0.32334  0.36472  1.0000
  I   I232      1.0  0.62099  0.80733  0.34093  1.0000
  I   I233      1.0  0.56094  0.76175  0.50680  1.0000
  I   I234      1.0  0.60329  0.22657  0.68970  1.0000
  I   I235      1.0  0.48889  0.16334  0.90283  1.0000
  I   I236      1.0  0.79833  0.56922  0.14533  1.0000
  I   I237      1.0  0.39245  0.61070  0.92813  1.0000
  I   I238      1.0  0.15867  0.30591  0.75721  1.0000
  I   I239      1.0  0.15051  0.12327  0.00997  1.0000
  I   I240      1.0  0.37283  0.61698  0.70920  1.0000
  I   I241      1.0  0.45669  0.97172  0.47856  1.0000
  I   I242      1.0  0.50426  0.15805  0.36437  1.0000
  I   I243      1.0  0.93878  0.63262  0.04516  1.0000
  I   I244      1.0  0.76055  0.34274  0.17508  1.0000
  I   I245      1.0  0.24126  0.66627  0.28967  1.0000
  I   I246      1.0  0.24738  0.24731  0.43088  1.0000
  I   I247      1.0  0.96465  0.93548  0.06476  1.0000
  I   I248      1.0  0.46374  0.45929  0.95157  1.0000
  I   I249      1.0  0.35829  0.97967  0.93294  1.0000
  I   I250      1.0  0.82336  0.65371  0.45533  1.0000
  I   I251      1.0  0.42824  0.34982  0.59544  1.0000
  I   I252      1.0  0.20006  0.64249  0.51480  1.0000
  I   I253      1.0  0.23550  0.48032  0.21723  1.0000
  I   I254      1.0  0.12135  0.01616  0.73214  1.0000
  I   I255      1.0  0.47322  0.02660  0.21515  1.0000
  I   I256      1.0  0.15081  0.51074  0.67245  1.0000
  I   I257      1.0  0.31857  0.20284  0.05972  1.0000
  I   I258      1.0  0.94723  0.71238  0.80095  1.0000
  I   I259      1.0  0.89292  0.84665  0.54245  1.0000
  I   I260      1.0  0.12300  0.14262  0.60910  1.0000
  I   I261      1.0  0.96289  0.11953  0.20510  1.0000
  I   I262      1.0  0.55030  0.51303  0.92362  1.0000
  I   I263      1.0  0.76107  0.84736  0.08382  1.0000
  I   I264      1.0  0.15564  0.71065  0.76854  1.0000
  I   I265      1.0  0.08723  0.39470  0.58484  1.0000
  I   I266      1.0  0.06032  0.09349  0.20721  1.0000
  I   I267      1.0  0.21509  0.54008  0.14681  1.0000
  I   I268      1.0  0.53974  0.51919  0.26121  1.0000
  I   I269      1.0  0.07734  0.94682  0.24460  1.0000
  I   I270      1.0  0.82186  0.41597  0.18500  1.0000
  I   I271      1.0  0.78837  0.43177  0.64445  1.0000
  I   I272      1.0  0.67180  0.12628  0.16194  1.0000
  I   I273      1.0  0.33325  0.96555  0.41179  1.0000
  I   I274      1.0  0.61389  0.64692  0.82625  1.0000
  I   I275      1.0  0.79822  0.52507  0.72721  1.0000
  I   I276      1.0  0.97892  0.47539  0.30102  1.0000
  I   I277      1.0  0.09932  0.22562  0.38055  1.0000
  I   I278      1.0  0.36153  0.45614  0.35112  1.0000
  I   I279      1.0  0.64897  0.25664  0.26362  1.0000
  I   I280      1.0  0.69343  0.73971  0.22522  1.0000
  I   I281      1.0  0.58221  0.76789  0.62940  1.0000
  I   I282      1.0  0.63450  0.15936  0.77469  1.0000
  I   I283      1.0  0.44874  0.13233  0.87773  1.0000
  I   I284      1.0  0.74234  0.59477  0.07609  1.0000
  I   I285      1.0  0.39488  0.66294  0.88155  1.0000
  I   I286      1.0  0.12650  0.31547  0.87387  1.0000
  I   I287      1.0  0.10163  0.19249  0.87937  1.0000
  I   I288      1.0  0.43800  0.55399  0.54554  1.0000
  I   I289      1.0  0.49751  0.99688  0.58225  1.0000
  I   I290      1.0  0.33817  0.02629  0.75506  1.0000
  I   I291      1.0  0.56012  0.13367  0.42130  1.0000
  I   I292      1.0  0.80633  0.29699  0.07197  1.0000
  I   I293      1.0  0.19761  0.73899  0.25549  1.0000
  I   I294      1.0  0.28798  0.21360  0.34250  1.0000
  I   I295      1.0  0.01475  0.94260  0.06006  1.0000
  I   I296      1.0  0.44432  0.51971  0.98805  1.0000
  I   I297      1.0  0.31967  0.89154  0.76924  1.0000
  I   I298      1.0  0.48834  0.11859  0.98399  1.0000
  I   I299      1.0  0.76988  0.78920  0.33814  1.0000
  I   I300      1.0  0.15133  0.63465  0.57836  1.0000
  I   I301      1.0  0.43079  0.98233  0.31154  1.0000
  I   I302      1.0  0.21087  0.43251  0.27480  1.0000
  I   I303      1.0  0.04846  0.99023  0.68524  1.0000
  I   I304      1.0  0.92579  0.66961  0.77818  1.0000
  I   I305      1.0  0.65025  0.84439  0.57562  1.0000
  I   I306      1.0  0.36998  0.46178  0.47382  1.0000
  I   I307      1.0  0.91066  0.77624  0.49994  1.0000
  I   I308      1.0  0.23729  0.00614  0.07794  1.0000
  I   I309      1.0  0.88489  0.17238  0.25608  1.0000
  I   I310      1.0  0.60274  0.53607  0.94454  1.0000
  I   I311      1.0  0.77135  0.90437  0.04836  1.0000
  I   I312      1.0  0.96503  0.03372  0.05383  1.0000
  I   I313      1.0  0.11144  0.63235  0.18608  1.0000
  I   I314      1.0  0.05554  0.46365  0.67254  1.0000
  I   I315      1.0  0.02689  0.19325  0.20905  1.0000
  I   I316      1.0  0.88648  0.37541  0.10760  1.0000
  I   I317      1.0  0.52030  0.46657  0.27059  1.0000
  I   I318      1.0  0.02108  0.98332  0.18442  1.0000
  I   I319      1.0  0.15269  0.87300  0.42534  1.0000
  I   I320      1.0  0.88170  0.39052  0.46180  1.0000
  I   I321      1.0  0.68795  0.06796  0.24085  1.0000
  I   I322      1.0  0.52986  0.70911  0.79014  1.0000
  I   I323      1.0  0.83944  0.51939  0.81294  1.0000
  I   I324      1.0  0.04337  0.46095  0.24953  1.0000
  I   I325      1.0  0.06498  0.28273  0.31402  1.0000
  I   I326      1.0  0.41285  0.47297  0.39940  1.0000
  I   I327      1.0  0.68638  0.29040  0.25552  1.0000
  I   I328      1.0  0.62957  0.79287  0.20924  1.0000
  I   I329      1.0  0.59666  0.70125  0.64178  1.0000
  I   I330      1.0  0.59391  0.15414  0.66634  1.0000
  I   I331      1.0  0.46036  0.59826  0.96006  1.0000
  I   I332      1.0  0.55699  0.05869  0.04135  1.0000
  I   I333      1.0  0.73399  0.63337  0.18166  1.0000
  I   I334      1.0  0.35502  0.68112  0.65006  1.0000
  I   I335      1.0  0.17445  0.31538  0.91057  1.0000
  I   I336      1.0  0.04986  0.19384  0.81779  1.0000
  I   I337      1.0  0.52501  0.94747  0.47668  1.0000
  I   I338      1.0  0.35550  0.98378  0.63540  1.0000
  I   I339      1.0  0.53487  0.09919  0.33014  1.0000
  I   I340      1.0  0.75013  0.29489  0.08471  1.0000
  I   I341      1.0  0.24095  0.80093  0.93812  1.0000
  I   I342      1.0  0.22188  0.16567  0.52200  1.0000
  I   I343      1.0  0.03637  0.85258  0.06235  1.0000
  I   I344      1.0  0.39909  0.47393  0.90582  1.0000
  I   I345      1.0  0.30075  0.94937  0.85620  1.0000
  I   I346      1.0  0.52450  0.07467  0.92237  1.0000
  I   I347      1.0  0.79795  0.66512  0.34254  1.0000
  I   I348      1.0  0.19575  0.59097  0.38965  1.0000
  I   I349      1.0  0.54904  0.98911  0.24895  1.0000
  I   I350      1.0  0.27257  0.46577  0.31574  1.0000
  I   I351      1.0  0.12149  0.94864  0.79303  1.0000
  I   I352      1.0  0.99048  0.63550  0.84187  1.0000
  I   I353      1.0  0.09697  0.52644  0.74610  1.0000
  I   I354      1.0  0.38514  0.51479  0.49527  1.0000
  I   I355      1.0  0.90256  0.80908  0.39099  1.0000
  I   I356      1.0  0.14392  0.07955  0.70202  1.0000
  I   I357      1.0  0.91068  0.22590  0.35046  1.0000
  I   I358      1.0  0.12474  0.71324  0.88699  1.0000
  I   I359      1.0  0.80999  0.84655  0.99934  1.0000
  I   I360      1.0  0.02953  0.00677  0.07828  1.0000
  I   I361      1.0  0.17697  0.60213  0.14720  1.0000
  I   I362      1.0  0.11162  0.38989  0.70221  1.0000
  I   I363      1.0  0.11745  0.06127  0.32076  1.0000
  I   I364      1.0  0.80221  0.44811  0.07150  1.0000
  I   I365      1.0  0.53327  0.48594  0.37012  1.0000
  I   I366      1.0  0.13390  0.89423  0.21143  1.0000
  I   I367      1.0  0.17859  0.91400  0.36438  1.0000
  I   I368      1.0  0.85122  0.38317  0.68742  1.0000
  I   I369      1.0  0.65185  0.11258  0.33830  1.0000
  I   I370      1.0  0.56173  0.67959  0.90087  1.0000
  I   I371      1.0  0.85485  0.45410  0.83237  1.0000
  I   I372      1.0  0.02960  0.55268  0.25500  1.0000
  I   I373      1.0  0.06731  0.18568  0.43301  1.0000
  I   I374      1.0  0.35179  0.38209  0.33339  1.0000
  I   I375      1.0  0.68594  0.25147  0.35705  1.0000
  I   I376      1.0  0.70701  0.67879  0.31301  1.0000
  I   I377      1.0  0.49748  0.76754  0.53767  1.0000
  I   I378      1.0  0.65695  0.09351  0.65510  1.0000
  I   I379      1.0  0.45233  0.61554  0.84970  1.0000
  I   I380      1.0  0.89994  0.13212  0.56572  1.0000
  I   I381      1.0  0.74424  0.66985  0.10891  1.0000
  I   I382      1.0  0.50142  0.54744  0.56203  1.0000
  I   I383      1.0  0.13803  0.38049  0.92548  1.0000
  I   I384      1.0  0.05770  0.14951  0.91818  1.0000
