data_image0
_chemical_formula_structural       Ti96I384
_chemical_formula_sum              "Ti96 I384"
_cell_length_a       56.6123
_cell_length_b       57.241
_cell_length_c       27.6349
_cell_angle_alpha    88.7757
_cell_angle_beta     88.7757
_cell_angle_gamma    62.1586

_space_group_name_H-M_alt    "P 1"
_space_group_IT_number       1

loop_
  _space_group_symop_operation_xyz
  'x, y, z'

loop_
  _atom_site_type_symbol
  _atom_site_label
  _atom_site_symmetry_multiplicity
  _atom_site_fract_x
  _atom_site_fract_y
  _atom_site_fract_z
  _atom_site_occupancy
  Ti  Ti1       1.0  0.89981  0.69235  0.09368  1.0000
  Ti  Ti2       1.0  0.86353  0.93232  0.07882  1.0000
  Ti  Ti3       1.0  0.93186  0.69102  0.42950  1.0000
  Ti  Ti4       1.0  0.33400  0.09854  0.26147  1.0000
  Ti  Ti5       1.0  0.09284  0.02357  0.95648  1.0000
  Ti  Ti6       1.0  0.12423  0.11655  0.33405  1.0000
  Ti  Ti7       1.0  0.95711  0.79331  0.64558  1.0000
  Ti  Ti8       1.0  0.11331  0.95030  0.43532  1.0000
  Ti  Ti9       1.0  0.68108  0.13098  0.71507  1.0000
  Ti  Ti10      1.0  0.39656  0.93624  0.27130  1.0000
  Ti  Ti11      1.0  0.23516  0.59073  0.72082  1.0000
  Ti  Ti12      1.0  0.81350  0.80413  0.65486  1.0000
  Ti  Ti13      1.0  0.45460  0.27466  0.81299  1.0000
  Ti  Ti14      1.0  0.22983  0.36126  0.40033  1.0000
  Ti  Ti15      1.0  0.27903  0.06403  0.95381  1.0000
  Ti  Ti16      1.0  0.06570  0.83755  0.34001  1.0000
  Ti  Ti17      1.0  0.17866  0.64290  0.16647  1.0000
  Ti  Ti18      1.0  0.03437  0.32609  0.26242  1.0000
  Ti  Ti19      1.0  0.67258  0.65310  0.26405  1.0000
  Ti  Ti20      1.0  0.71795  0.85599  0.24705  1.0000
  Ti  Ti21      1.0  0.38913  0.38688  0.09684  1.0000
  Ti  Ti22      1.0  0.43517  0.01580  0.52752  1.0000
  Ti  Ti23      1.0  0.58828  0.80959  0.80173  1.0000
  Ti  Ti24      1.0  0.55139  0.96080  0.53705  1.0000
  Ti  Ti25      1.0  0.27104  0.15391  0.72115  1.0000
  Ti  Ti26      1.0  0.14158  0.43051  0.72211  1.0000
  Ti  Ti27      1.0  0.24635  0.55753  0.43922  1.0000
  Ti  Ti28      1.0  0.52236  0.70171  0.48230  1.0000
  Ti  Ti29      1.0  0.76986  0.41623  0.51565  1.0000
  Ti  Ti30      1.0  0.82109  0.48690  0.52167  1.0000
  Ti  Ti31      1.0  0.68164  0.52553  0.10573  1.0000
  Ti  Ti32      1.0  0.94019  0.09216  0.41787  1.0000
  Ti  Ti33      1.0  0.91209  0.25691  0.81937  1.0000
  Ti  Ti34      1.0  0.94901  0.77902  0.21250  1.0000
  Ti  Ti35      1.0  0.71075  0.65019  0.92723  1.0000
  Ti  Ti36      1.0  0.05247  0.59729  0.67978  1.0000
  Ti  Ti37      1.0  0.76204  0.26011  0.28054  1.0000
  Ti  Ti38      1.0  0.61681  0.27915  0.36212  1.0000
  Ti  Ti39      1.0  0.28240  0.85315  0.33345  1.0000
  Ti  Ti40      1.0  0.37774  0.76259  0.93484  1.0000
  Ti  Ti41      1.0  0.65636  0.38871  0.69228  1.0000
  Ti  Ti42      1.0  0.49191  0.72884  0.16881  1.0000
  Ti  Ti43      1.0  0.87183  0.13172  0.88123  1.0000
  Ti  Ti44      1.0  0.90715  0.55222  0.33783  1.0000
  Ti  Ti45      1.0  0.07886  0.45460  0.24254  1.0000
  Ti  Ti46      1.0  0.53888  0.19414  0.58128  1.0000
  Ti  Ti47      1.0  0.40707  0.29233  0.41150  1.0000
  Ti  Ti48      1.0  0.55382  0.37139  0.08060  1.0000
  Ti  Ti49      1.0  0.88367  0.64364  0.08334  1.0000
  Ti  Ti50      1.0  0.79083  0.95235  0.18309  1.0000
  Ti  Ti51      1.0  0.91679  0.86954  0.02004  1.0000
  Ti  Ti52      1.0  0.29498  0.12537  0.35764  1.0000
  Ti  Ti53      1.0  0.13153  0.06398  0.93299  1.0000
  Ti  Ti54      1.0  0.17038  0.04939  0.30523  1.0000
  Ti  Ti55      1.0  0.95904  0.77804  0.79819  1.0000
  Ti  Ti56      1.0  0.15844  0.89942  0.55224  1.0000
  Ti  Ti57      1.0  0.71616  0.06738  0.78200  1.0000
  Ti  Ti58      1.0  0.10444  0.95624  0.06527  1.0000
  Ti  Ti59      1.0  0.43816  0.92284  0.12814  1.0000
  Ti  Ti60      1.0  0.79321  0.81762  0.81279  1.0000
  Ti  Ti61      1.0  0.22152  0.13651  0.96821  1.0000
  Ti  Ti62      1.0  0.45518  0.21697  0.86139  1.0000
  Ti  Ti63      1.0  0.23128  0.35977  0.27028  1.0000
  Ti  Ti64      1.0  0.03707  0.32234  0.12098  1.0000
  Ti  Ti65      1.0  0.10706  0.83899  0.22840  1.0000
  Ti  Ti66      1.0  0.26296  0.77170  0.72254  1.0000
  Ti  Ti67      1.0  0.74410  0.66107  0.22400  1.0000
  Ti  Ti68      1.0  0.72219  0.85199  0.37041  1.0000
  Ti  Ti69      1.0  0.34816  0.42191  0.01551  1.0000
  Ti  Ti70      1.0  0.49106  0.97943  0.45465  1.0000
  Ti  Ti71      1.0  0.61270  0.80250  0.92929  1.0000
  Ti  Ti72      1.0  0.51495  0.81295  0.80028  1.0000
  Ti  Ti73      1.0  0.21296  0.54049  0.49509  1.0000
  Ti  Ti74      1.0  0.33812  0.11874  0.65513  1.0000
  Ti  Ti75      1.0  0.12369  0.36494  0.73169  1.0000
  Ti  Ti76      1.0  0.83233  0.54392  0.60710  1.0000
  Ti  Ti77      1.0  0.51313  0.65205  0.44535  1.0000
  Ti  Ti78      1.0  0.73964  0.49175  0.54678  1.0000
  Ti  Ti79      1.0  0.95473  0.27461  0.74396  1.0000
  Ti  Ti80      1.0  0.64435  0.47618  0.14843  1.0000
  Ti  Ti81      1.0  0.93577  0.05317  0.28880  1.0000
  Ti  Ti82      1.0  0.00946  0.72122  0.22594  1.0000
  Ti  Ti83      1.0  0.68916  0.61822  0.86025  1.0000
  Ti  Ti84      1.0  0.01139  0.55182  0.61806  1.0000
  Ti  Ti85      1.0  0.72007  0.30148  0.15460  1.0000
  Ti  Ti86      1.0  0.54853  0.33020  0.38420  1.0000
  Ti  Ti87      1.0  0.27381  0.90263  0.40414  1.0000
  Ti  Ti88      1.0  0.35754  0.83690  0.93167  1.0000
  Ti  Ti89      1.0  0.60916  0.38561  0.77952  1.0000
  Ti  Ti90      1.0  0.50533  0.73087  0.01072  1.0000
  Ti  Ti91      1.0  0.05257  0.47202  0.10507  1.0000
  Ti  Ti92      1.0  0.79015  0.20713  0.54530  1.0000
  Ti  Ti93      1.0  0.96198  0.52965  0.33018  1.0000
  Ti  Ti94      1.0  0.52621  0.38376  0.96063  1.0000
  Ti  Ti95      1.0  0.54983  0.11829  0.66974  1.0000
  Ti  Ti96      1.0  0.40138  0.23310  0.44185  1.0000
  I   I1        1.0  0.79531  0.95996  0.27093  1.0000
  I   I2        1.0  0.86295  0.91539  0.97761  1.0000
  I   I3        1.0  0.88752  0.67571  0.17403  1.0000
  I   I4        1.0  0.10070  0.04064  0.85901  1.0000
  I   I5        1.0  0.13289  0.14278  0.40146  1.0000
  I   I6        1.0  0.17215  0.00963  0.26028  1.0000
  I   I7        1.0  0.20426  0.86138  0.50660  1.0000
  I   I8        1.0  0.13856  0.86921  0.58650  1.0000
  I   I9        1.0  0.69673  0.12810  0.62025  1.0000
  I   I10       1.0  0.38729  0.90033  0.31789  1.0000
  I   I11       1.0  0.25020  0.57695  0.80761  1.0000
  I   I12       1.0  0.12171  0.96724  0.97997  1.0000
  I   I13       1.0  0.45363  0.26663  0.90646  1.0000
  I   I14       1.0  0.27245  0.35824  0.22727  1.0000
  I   I15       1.0  0.23470  0.08282  0.00445  1.0000
  I   I16       1.0  0.06165  0.82423  0.24893  1.0000
  I   I17       1.0  0.24123  0.82067  0.74800  1.0000
  I   I18       1.0  0.07579  0.27932  0.09101  1.0000
  I   I19       1.0  0.71124  0.82944  0.44340  1.0000
  I   I20       1.0  0.41785  0.40402  0.13965  1.0000
  I   I21       1.0  0.31775  0.46064  0.07457  1.0000
  I   I22       1.0  0.65004  0.80209  0.97919  1.0000
  I   I23       1.0  0.62029  0.79478  0.72673  1.0000
  I   I24       1.0  0.52600  0.99913  0.45277  1.0000
  I   I25       1.0  0.31805  0.11763  0.76334  1.0000
  I   I26       1.0  0.10584  0.40626  0.78416  1.0000
  I   I27       1.0  0.27774  0.53907  0.51808  1.0000
  I   I28       1.0  0.53456  0.66405  0.53754  1.0000
  I   I29       1.0  0.73175  0.44763  0.57542  1.0000
  I   I30       1.0  0.80868  0.50838  0.61157  1.0000
  I   I31       1.0  0.63246  0.49890  0.23021  1.0000
  I   I32       1.0  0.89951  0.04836  0.34090  1.0000
  I   I33       1.0  0.91679  0.20834  0.83016  1.0000
  I   I34       1.0  0.67305  0.69912  0.94127  1.0000
  I   I35       1.0  0.02332  0.54868  0.52252  1.0000
  I   I36       1.0  0.05227  0.71836  0.16735  1.0000
  I   I37       1.0  0.72033  0.26161  0.21460  1.0000
  I   I38       1.0  0.30036  0.89588  0.32281  1.0000
  I   I39       1.0  0.71688  0.34289  0.10584  1.0000
  I   I40       1.0  0.58996  0.40864  0.86446  1.0000
  I   I41       1.0  0.47863  0.73046  0.93057  1.0000
  I   I42       1.0  0.40382  0.78840  0.89965  1.0000
  I   I43       1.0  0.86280  0.16072  0.80333  1.0000
  I   I44       1.0  0.93514  0.52914  0.24205  1.0000
  I   I45       1.0  0.10060  0.46921  0.30687  1.0000
  I   I46       1.0  0.52487  0.22307  0.65986  1.0000
  I   I47       1.0  0.35472  0.31635  0.42435  1.0000
  I   I48       1.0  0.50313  0.41804  0.04000  1.0000
  I   I49       1.0  0.92566  0.71457  0.04412  1.0000
  I   I50       1.0  0.80095  0.95389  0.08388  1.0000
  I   I51       1.0  0.93400  0.88185  0.93438  1.0000
  I   I52       1.0  0.26321  0.10929  0.33953  1.0000
  I   I53       1.0  0.08065  0.07408  0.98033  1.0000
  I   I54       1.0  0.12533  0.07873  0.25749  1.0000
  I   I55       1.0  0.95112  0.77490  0.56637  1.0000
  I   I56       1.0  0.10555  0.94592  0.54348  1.0000
  I   I57       1.0  0.73947  0.09726  0.73663  1.0000
  I   I58       1.0  0.45229  0.95775  0.09616  1.0000
  I   I59       1.0  0.35051  0.97288  0.30876  1.0000
  I   I60       1.0  0.76930  0.81983  0.72673  1.0000
  I   I61       1.0  0.44891  0.20435  0.95193  1.0000
  I   I62       1.0  0.45123  0.17698  0.82764  1.0000
  I   I63       1.0  0.22246  0.33381  0.46801  1.0000
  I   I64       1.0  0.01496  0.87033  0.36216  1.0000
  I   I65       1.0  0.14339  0.85093  0.19926  1.0000
  I   I66       1.0  0.24915  0.74220  0.77506  1.0000
  I   I67       1.0  0.75512  0.67579  0.30964  1.0000
  I   I68       1.0  0.76369  0.84480  0.20661  1.0000
  I   I69       1.0  0.41262  0.38766  0.00512  1.0000
  I   I70       1.0  0.44317  0.97723  0.46018  1.0000
  I   I71       1.0  0.61022  0.83576  0.85195  1.0000
  I   I72       1.0  0.48478  0.85779  0.84484  1.0000
  I   I73       1.0  0.28090  0.54359  0.37052  1.0000
  I   I74       1.0  0.13496  0.47048  0.67124  1.0000
  I   I75       1.0  0.13133  0.33510  0.81280  1.0000
  I   I76       1.0  0.51957  0.70011  0.38349  1.0000
  I   I77       1.0  0.55850  0.62979  0.39340  1.0000
  I   I78       1.0  0.76551  0.52325  0.48858  1.0000
  I   I79       1.0  0.99068  0.22320  0.71280  1.0000
  I   I80       1.0  0.60097  0.47486  0.11223  1.0000
  I   I81       1.0  0.89133  0.10390  0.43487  1.0000
  I   I82       1.0  0.98731  0.79355  0.20404  1.0000
  I   I83       1.0  0.74042  0.65063  0.85139  1.0000
  I   I84       1.0  0.03799  0.50360  0.64112  1.0000
  I   I85       1.0  0.74319  0.26477  0.08684  1.0000
  I   I86       1.0  0.54880  0.35792  0.46037  1.0000
  I   I87       1.0  0.31908  0.83292  0.26740  1.0000
  I   I88       1.0  0.39757  0.72215  0.86325  1.0000
  I   I89       1.0  0.62231  0.36450  0.67678  1.0000
  I   I90       1.0  0.47383  0.77868  0.18642  1.0000
  I   I91       1.0  0.07090  0.49745  0.04810  1.0000
  I   I92       1.0  0.83893  0.17878  0.57619  1.0000
  I   I93       1.0  0.00692  0.50047  0.27930  1.0000
  I   I94       1.0  0.48952  0.41381  0.89752  1.0000
  I   I95       1.0  0.54899  0.12966  0.76311  1.0000
  I   I96       1.0  0.40551  0.26769  0.50666  1.0000
  I   I97       1.0  0.91783  0.70056  0.52472  1.0000
  I   I98       1.0  0.87962  0.74185  0.12390  1.0000
  I   I99       1.0  0.87976  0.87822  0.08367  1.0000
  I   I100      1.0  0.36259  0.04785  0.28821  1.0000
  I   I101      1.0  0.29060  0.15138  0.26251  1.0000
  I   I102      1.0  0.14877  0.01006  0.96136  1.0000
  I   I103      1.0  0.96858  0.79414  0.87612  1.0000
  I   I104      1.0  0.93527  0.84278  0.62515  1.0000
  I   I105      1.0  0.70164  0.03532  0.84029  1.0000
  I   I106      1.0  0.82038  0.75439  0.66677  1.0000
  I   I107      1.0  0.44675  0.89431  0.22689  1.0000
  I   I108      1.0  0.75288  0.82689  0.87451  1.0000
  I   I109      1.0  0.18355  0.13704  0.91946  1.0000
  I   I110      1.0  0.50313  0.21838  0.84384  1.0000
  I   I111      1.0  0.20474  0.40845  0.43559  1.0000
  I   I112      1.0  0.03685  0.28750  0.20853  1.0000
  I   I113      1.0  0.11852  0.80245  0.15787  1.0000
  I   I114      1.0  0.15235  0.61277  0.16805  1.0000
  I   I115      1.0  0.72576  0.62605  0.22442  1.0000
  I   I116      1.0  0.79029  0.62934  0.19291  1.0000
  I   I117      1.0  0.77365  0.82810  0.34879  1.0000
  I   I118      1.0  0.49204  0.96797  0.36067  1.0000
  I   I119      1.0  0.38167  0.05430  0.51374  1.0000
  I   I120      1.0  0.54455  0.85422  0.78140  1.0000
  I   I121      1.0  0.23101  0.60530  0.44101  1.0000
  I   I122      1.0  0.35365  0.15072  0.68301  1.0000
  I   I123      1.0  0.13318  0.45804  0.80217  1.0000
  I   I124      1.0  0.83604  0.53322  0.50392  1.0000
  I   I125      1.0  0.47032  0.70340  0.46933  1.0000
  I   I126      1.0  0.74955  0.46287  0.44942  1.0000
  I   I127      1.0  0.91021  0.30785  0.80030  1.0000
  I   I128      1.0  0.70068  0.52387  0.01749  1.0000
  I   I129      1.0  0.97566  0.05012  0.36104  1.0000
  I   I130      1.0  0.09354  0.60712  0.66594  1.0000
  I   I131      1.0  0.95221  0.73342  0.24820  1.0000
  I   I132      1.0  0.66355  0.59076  0.84205  1.0000
  I   I133      1.0  0.24203  0.95087  0.38385  1.0000
  I   I134      1.0  0.59560  0.33365  0.35124  1.0000
  I   I135      1.0  0.64068  0.26441  0.27667  1.0000
  I   I136      1.0  0.52860  0.68963  0.21740  1.0000
  I   I137      1.0  0.34079  0.83201  0.84831  1.0000
  I   I138      1.0  0.68292  0.39819  0.75722  1.0000
  I   I139      1.0  0.06855  0.49724  0.17627  1.0000
  I   I140      1.0  0.75112  0.19698  0.57277  1.0000
  I   I141      1.0  0.94257  0.58153  0.33651  1.0000
  I   I142      1.0  0.59054  0.32619  0.08805  1.0000
  I   I143      1.0  0.51168  0.16438  0.62584  1.0000
  I   I144      1.0  0.38713  0.20657  0.51070  1.0000
  I   I145      1.0  0.93790  0.63949  0.07776  1.0000
  I   I146      1.0  0.85088  0.98200  0.04766  1.0000
  I   I147      1.0  0.89732  0.74019  0.39284  1.0000
  I   I148      1.0  0.27278  0.17298  0.39367  1.0000
  I   I149      1.0  0.11726  0.10205  0.86629  1.0000
  I   I150      1.0  0.09118  0.10378  0.38080  1.0000
  I   I151      1.0  0.92859  0.75667  0.82832  1.0000
  I   I152      1.0  0.13043  0.93087  0.35058  1.0000
  I   I153      1.0  0.67154  0.11269  0.81069  1.0000
  I   I154      1.0  0.12560  0.90532  0.04541  1.0000
  I   I155      1.0  0.19030  0.58287  0.72013  1.0000
  I   I156      1.0  0.77979  0.82472  0.58507  1.0000
  I   I157      1.0  0.19308  0.15837  0.05496  1.0000
  I   I158      1.0  0.18867  0.40827  0.26744  1.0000
  I   I159      1.0  0.26681  0.09695  0.87864  1.0000
  I   I160      1.0  0.07224  0.32306  0.19810  1.0000
  I   I161      1.0  0.19200  0.65150  0.07469  1.0000
  I   I162      1.0  0.05962  0.29581  0.34145  1.0000
  I   I163      1.0  0.67736  0.61613  0.32992  1.0000
  I   I164      1.0  0.68343  0.84909  0.19784  1.0000
  I   I165      1.0  0.41908  0.33555  0.11131  1.0000
  I   I166      1.0  0.44675  0.03407  0.43506  1.0000
  I   I167      1.0  0.62835  0.76609  0.85279  1.0000
  I   I168      1.0  0.56710  0.92243  0.60837  1.0000
  I   I169      1.0  0.27656  0.18781  0.66761  1.0000
  I   I170      1.0  0.29299  0.11420  0.64445  1.0000
  I   I171      1.0  0.19484  0.56802  0.40262  1.0000
  I   I172      1.0  0.86748  0.56146  0.59775  1.0000
  I   I173      1.0  0.78812  0.38891  0.59596  1.0000
  I   I174      1.0  0.79275  0.46062  0.54821  1.0000
  I   I175      1.0  0.65021  0.57593  0.11839  1.0000
  I   I176      1.0  0.91020  0.07200  0.20807  1.0000
  I   I177      1.0  0.86832  0.26994  0.76615  1.0000
  I   I178      1.0  0.97483  0.74242  0.13683  1.0000
  I   I179      1.0  0.67747  0.63268  0.96768  1.0000
  I   I180      1.0  0.00839  0.64818  0.68377  1.0000
  I   I181      1.0  0.73920  0.31218  0.24416  1.0000
  I   I182      1.0  0.53341  0.29362  0.41878  1.0000
  I   I183      1.0  0.27509  0.81078  0.34662  1.0000
  I   I184      1.0  0.39983  0.72267  0.99371  1.0000
  I   I185      1.0  0.69986  0.34526  0.67172  1.0000
  I   I186      1.0  0.54786  0.68840  0.99283  1.0000
  I   I187      1.0  0.77390  0.25700  0.57049  1.0000
  I   I188      1.0  0.86911  0.54074  0.31781  1.0000
  I   I189      1.0  0.07450  0.42144  0.30246  1.0000
  I   I190      1.0  0.50462  0.20863  0.51371  1.0000
  I   I191      1.0  0.40841  0.28847  0.31446  1.0000
  I   I192      1.0  0.52899  0.36267  0.16045  1.0000
  I   I193      1.0  0.83939  0.64287  0.09931  1.0000
  I   I194      1.0  0.84672  0.92967  0.18093  1.0000
  I   I195      1.0  0.98249  0.67412  0.44277  1.0000
  I   I196      1.0  0.35976  0.10944  0.19857  1.0000
  I   I197      1.0  0.08140  0.01912  0.05297  1.0000
  I   I198      1.0  0.16602  0.10539  0.26472  1.0000
  I   I199      1.0  0.00937  0.77547  0.64828  1.0000
  I   I200      1.0  0.18264  0.91157  0.61686  1.0000
  I   I201      1.0  0.69809  0.16783  0.71323  1.0000
  I   I202      1.0  0.42145  0.94972  0.33251  1.0000
  I   I203      1.0  0.24203  0.63316  0.71380  1.0000
  I   I204      1.0  0.83281  0.80918  0.74043  1.0000
  I   I205      1.0  0.49369  0.28294  0.79569  1.0000
  I   I206      1.0  0.19215  0.35556  0.33657  1.0000
  I   I207      1.0  0.27966  0.11011  0.99025  1.0000
  I   I208      1.0  0.06876  0.79554  0.37851  1.0000
  I   I209      1.0  0.14875  0.68910  0.19563  1.0000
  I   I210      1.0  0.98558  0.34988  0.30207  1.0000
  I   I211      1.0  0.68097  0.69712  0.25890  1.0000
  I   I212      1.0  0.73248  0.80980  0.28950  1.0000
  I   I213      1.0  0.31943  0.43614  0.94047  1.0000
  I   I214      1.0  0.44252  0.05764  0.56133  1.0000
  I   I215      1.0  0.55751  0.80978  0.88305  1.0000
  I   I216      1.0  0.60280  0.93497  0.51708  1.0000
  I   I217      1.0  0.22107  0.17040  0.69606  1.0000
  I   I218      1.0  0.19214  0.39425  0.73229  1.0000
  I   I219      1.0  0.19467  0.58436  0.54611  1.0000
  I   I220      1.0  0.49683  0.74436  0.54205  1.0000
  I   I221      1.0  0.75447  0.38842  0.47750  1.0000
  I   I222      1.0  0.82484  0.47407  0.43100  1.0000
  I   I223      1.0  0.71576  0.53554  0.14681  1.0000
  I   I224      1.0  0.92906  0.14225  0.41682  1.0000
  I   I225      1.0  0.90236  0.27175  0.90622  1.0000
  I   I226      1.0  0.94261  0.79394  0.30780  1.0000
  I   I227      1.0  0.74404  0.64474  0.99187  1.0000
  I   I228      1.0  0.06614  0.55354  0.62157  1.0000
  I   I229      1.0  0.79050  0.27227  0.33838  1.0000
  I   I230      1.0  0.61567  0.23622  0.39352  1.0000
  I   I231      1.0  0.27911  0.91048  0.49728  1.0000
  I   I232      1.0  0.32941  0.76670  0.93791  1.0000
  I   I233      1.0  0.61035  0.43415  0.73916  1.0000
  I   I234      1.0  0.51230  0.77511  0.00412  1.0000
  I   I235      1.0  0.89503  0.08429  0.84521  1.0000
  I   I236      1.0  0.91870  0.54435  0.43822  1.0000
  I   I237      1.0  0.05314  0.43318  0.17352  1.0000
  I   I238      1.0  0.58008  0.20195  0.55061  1.0000
  I   I239      1.0  0.42306  0.32461  0.43538  1.0000
  I   I240      1.0  0.57144  0.40012  0.12510  1.0000
  I   I241      1.0  0.87001  0.69202  0.02545  1.0000
  I   I242      1.0  0.90872  0.92509  0.11590  1.0000
  I   I243      1.0  0.92921  0.64919  0.39053  1.0000
  I   I244      1.0  0.30203  0.08722  0.21144  1.0000
  I   I245      1.0  0.14060  0.07405  0.02505  1.0000
  I   I246      1.0  0.09161  0.15568  0.28189  1.0000
  I   I247      1.0  0.95830  0.82001  0.74992  1.0000
  I   I248      1.0  0.09761  0.99874  0.42554  1.0000
  I   I249      1.0  0.62987  0.14550  0.70729  1.0000
  I   I250      1.0  0.38895  0.96304  0.16915  1.0000
  I   I251      1.0  0.27550  0.55841  0.67121  1.0000
  I   I252      1.0  0.85814  0.79228  0.60715  1.0000
  I   I253      1.0  0.42039  0.32510  0.80211  1.0000
  I   I254      1.0  0.26809  0.31930  0.34169  1.0000
  I   I255      1.0  0.21422  0.18341  0.93599  1.0000
  I   I256      1.0  0.07728  0.84713  0.42734  1.0000
  I   I257      1.0  0.21673  0.61791  0.22309  1.0000
  I   I258      1.0  0.00036  0.31148  0.09457  1.0000
  I   I259      1.0  0.65862  0.65249  0.17720  1.0000
  I   I260      1.0  0.67568  0.87704  0.32841  1.0000
  I   I261      1.0  0.36123  0.39056  0.17627  1.0000
  I   I262      1.0  0.41482  0.99924  0.59421  1.0000
  I   I263      1.0  0.56765  0.77339  0.76308  1.0000
  I   I264      1.0  0.55503  0.00192  0.57450  1.0000
  I   I265      1.0  0.25735  0.18149  0.79962  1.0000
  I   I266      1.0  0.12856  0.40308  0.65435  1.0000
  I   I267      1.0  0.25409  0.50444  0.43768  1.0000
  I   I268      1.0  0.49524  0.63741  0.37368  1.0000
  I   I269      1.0  0.81806  0.40066  0.47147  1.0000
  I   I270      1.0  0.86926  0.45683  0.54933  1.0000
  I   I271      1.0  0.69502  0.46823  0.10984  1.0000
  I   I272      1.0  0.97545  0.07483  0.48798  1.0000
  I   I273      1.0  0.96460  0.23953  0.83189  1.0000
  I   I274      1.0  0.89752  0.81060  0.19498  1.0000
  I   I275      1.0  0.73962  0.59234  0.89489  1.0000
  I   I276      1.0  0.05164  0.59066  0.77147  1.0000
  I   I277      1.0  0.72997  0.26371  0.35186  1.0000
  I   I278      1.0  0.65018  0.28306  0.42129  1.0000
  I   I279      1.0  0.23935  0.88350  0.42632  1.0000
  I   I280      1.0  0.30966  0.86879  0.97021  1.0000
  I   I281      1.0  0.62131  0.33728  0.80394  1.0000
  I   I282      1.0  0.45583  0.72779  0.23327  1.0000
  I   I283      1.0  0.82770  0.14838  0.92885  1.0000
  I   I284      1.0  0.87233  0.60314  0.34566  1.0000
  I   I285      1.0  0.12152  0.42005  0.19296  1.0000
  I   I286      1.0  0.58003  0.14098  0.61552  1.0000
  I   I287      1.0  0.44657  0.24047  0.40991  1.0000
  I   I288      1.0  0.57100  0.39024  0.99244  1.0000
  I   I289      1.0  0.88262  0.62910  0.99431  1.0000
  I   I290      1.0  0.74101  0.98279  0.16393  1.0000
  I   I291      1.0  0.90667  0.83478  0.98135  1.0000
  I   I292      1.0  0.35222  0.11621  0.34648  1.0000
  I   I293      1.0  0.17922  0.05340  0.90772  1.0000
  I   I294      1.0  0.22213  0.03395  0.31452  1.0000
  I   I295      1.0  0.00342  0.73176  0.77427  1.0000
  I   I296      1.0  0.16577  0.93465  0.47665  1.0000
  I   I297      1.0  0.76415  0.02768  0.78166  1.0000
  I   I298      1.0  0.06804  0.96320  0.12395  1.0000
  I   I299      1.0  0.48599  0.88269  0.12289  1.0000
  I   I300      1.0  0.81991  0.76987  0.85734  1.0000
  I   I301      1.0  0.28224  0.02361  0.89658  1.0000
  I   I302      1.0  0.45065  0.24166  0.74513  1.0000
  I   I303      1.0  0.28038  0.35705  0.43232  1.0000
  I   I304      1.0  0.04523  0.35452  0.06591  1.0000
  I   I305      1.0  0.12072  0.81555  0.31828  1.0000
  I   I306      1.0  0.31563  0.74470  0.73002  1.0000
  I   I307      1.0  0.62471  0.68551  0.30635  1.0000
  I   I308      1.0  0.71334  0.90262  0.27562  1.0000
  I   I309      1.0  0.36589  0.45512  0.98747  1.0000
  I   I310      1.0  0.49364  0.98845  0.55933  1.0000
  I   I311      1.0  0.57727  0.83928  0.98388  1.0000
  I   I312      1.0  0.50935  0.77801  0.84300  1.0000
  I   I313      1.0  0.22421  0.51354  0.57427  1.0000
  I   I314      1.0  0.33913  0.12567  0.56231  1.0000
  I   I315      1.0  0.15603  0.32366  0.68218  1.0000
  I   I316      1.0  0.84315  0.53640  0.69904  1.0000
  I   I317      1.0  0.49492  0.62792  0.50778  1.0000
  I   I318      1.0  0.73929  0.50818  0.63078  1.0000
  I   I319      1.0  0.92857  0.29210  0.66482  1.0000
  I   I320      1.0  0.63416  0.52700  0.09945  1.0000
  I   I321      1.0  0.91823  0.10671  0.31667  1.0000
  I   I322      1.0  0.03663  0.71219  0.30672  1.0000
  I   I323      1.0  0.71458  0.60682  0.77768  1.0000
  I   I324      1.0  0.96166  0.56177  0.62248  1.0000
  I   I325      1.0  0.67042  0.31083  0.16450  1.0000
  I   I326      1.0  0.57257  0.29429  0.30569  1.0000
  I   I327      1.0  0.30860  0.84602  0.42338  1.0000
  I   I328      1.0  0.38588  0.86178  0.91886  1.0000
  I   I329      1.0  0.64828  0.41357  0.61186  1.0000
  I   I330      1.0  0.52770  0.73555  0.10384  1.0000
  I   I331      1.0  0.00220  0.49841  0.08844  1.0000
  I   I332      1.0  0.90306  0.13846  0.94414  1.0000
  I   I333      1.0  0.95272  0.48696  0.33911  1.0000
  I   I334      1.0  0.55089  0.34387  0.90670  1.0000
  I   I335      1.0  0.60105  0.08346  0.67292  1.0000
  I   I336      1.0  0.36352  0.23897  0.37861  1.0000
  I   I337      1.0  0.91597  0.59666  0.12315  1.0000
  I   I338      1.0  0.79272  0.90208  0.17611  1.0000
  I   I339      1.0  0.96318  0.83701  0.05037  1.0000
  I   I340      1.0  0.30692  0.10472  0.44466  1.0000
  I   I341      1.0  0.04584  0.03332  0.94202  1.0000
  I   I342      1.0  0.16351  0.04631  0.39337  1.0000
  I   I343      1.0  0.92825  0.78023  0.71461  1.0000
  I   I344      1.0  0.07193  0.94206  0.41341  1.0000
  I   I345      1.0  0.70140  0.06642  0.69839  1.0000
  I   I346      1.0  0.14064  0.96133  0.12001  1.0000
  I   I347      1.0  0.42637  0.91172  0.04718  1.0000
  I   I348      1.0  0.80443  0.85383  0.84261  1.0000
  I   I349      1.0  0.31721  0.03533  0.01518  1.0000
  I   I350      1.0  0.40582  0.25185  0.83856  1.0000
  I   I351      1.0  0.22560  0.33275  0.20212  1.0000
  I   I352      1.0  0.00129  0.37228  0.19680  1.0000
  I   I353      1.0  0.07462  0.88731  0.26450  1.0000
  I   I354      1.0  0.25527  0.76311  0.63408  1.0000
  I   I355      1.0  0.72848  0.69110  0.14678  1.0000
  I   I356      1.0  0.72502  0.88744  0.42989  1.0000
  I   I357      1.0  0.33314  0.38363  0.04187  1.0000
  I   I358      1.0  0.53024  0.92882  0.47401  1.0000
  I   I359      1.0  0.60231  0.76557  0.96883  1.0000
  I   I360      1.0  0.50132  0.82385  0.70971  1.0000
  I   I361      1.0  0.16562  0.54143  0.48697  1.0000
  I   I362      1.0  0.36846  0.06755  0.67526  1.0000
  I   I363      1.0  0.07898  0.37658  0.68650  1.0000
  I   I364      1.0  0.79341  0.58871  0.58863  1.0000
  I   I365      1.0  0.57641  0.69112  0.48139  1.0000
  I   I366      1.0  0.69061  0.52805  0.51763  1.0000
  I   I367      1.0  0.98027  0.29978  0.76211  1.0000
  I   I368      1.0  0.66257  0.42655  0.16827  1.0000
  I   I369      1.0  0.95218  0.00505  0.25477  1.0000
  I   I370      1.0  0.01474  0.67540  0.21687  1.0000
  I   I371      1.0  0.65040  0.66273  0.82667  1.0000
  I   I372      1.0  0.00333  0.59036  0.67792  1.0000
  I   I373      1.0  0.79282  0.20955  0.27123  1.0000
  I   I374      1.0  0.51619  0.37145  0.33767  1.0000
  I   I375      1.0  0.24572  0.88951  0.28803  1.0000
  I   I376      1.0  0.36405  0.79998  0.00241  1.0000
  I   I377      1.0  0.56567  0.39943  0.73874  1.0000
  I   I378      1.0  0.47385  0.72427  0.07423  1.0000
  I   I379      1.0  0.05840  0.44015  0.03209  1.0000
  I   I380      1.0  0.78852  0.20523  0.45178  1.0000
  I   I381      1.0  0.99570  0.51934  0.40276  1.0000
  I   I382      1.0  0.49808  0.35779  0.01202  1.0000
  I   I383      1.0  0.52318  0.09527  0.65018  1.0000
  I   I384      1.0  0.43657  0.18530  0.41629  1.0000
