data_image0
_chemical_formula_structural       Ti96I384
_chemical_formula_sum              "Ti96 I384"
_cell_length_a       81.5118
_cell_length_b       80.9667
_cell_length_c       39.5432
_cell_angle_alpha    88.7757
_cell_angle_beta     88.7757
_cell_angle_gamma    62.1586

_space_group_name_H-M_alt    "P 1"
_space_group_IT_number       1

loop_
  _space_group_symop_operation_xyz
  'x, y, z'

loop_
  _atom_site_type_symbol
  _atom_site_label
  _atom_site_symmetry_multiplicity
  _atom_site_fract_x
  _atom_site_fract_y
  _atom_site_fract_z
  _atom_site_occupancy
  Ti  Ti1       1.0  0.82081  0.22121  0.67442  1.0000
  Ti  Ti2       1.0  0.72282  0.27043  0.45684  1.0000
  Ti  Ti3       1.0  0.00399  0.00145  0.28251  1.0000
  Ti  Ti4       1.0  0.46186  0.77957  0.90907  1.0000
  Ti  Ti5       1.0  0.88836  0.34815  0.61043  1.0000
  Ti  Ti6       1.0  0.16544  0.97778  0.87195  1.0000
  Ti  Ti7       1.0  0.41265  0.44667  0.72065  1.0000
  Ti  Ti8       1.0  0.30710  0.69461  0.36496  1.0000
  Ti  Ti9       1.0  0.00692  0.10762  0.63101  1.0000
  Ti  Ti10      1.0  0.85277  0.24796  0.08019  1.0000
  Ti  Ti11      1.0  0.34738  0.76625  0.50731  1.0000
  Ti  Ti12      1.0  0.47301  0.04213  0.73615  1.0000
  Ti  Ti13      1.0  0.48695  0.58083  0.28246  1.0000
  Ti  Ti14      1.0  0.42513  0.78952  0.87971  1.0000
  Ti  Ti15      1.0  0.51748  0.42940  0.92733  1.0000
  Ti  Ti16      1.0  0.85369  0.80677  0.92664  1.0000
  Ti  Ti17      1.0  0.69612  0.02031  0.67456  1.0000
  Ti  Ti18      1.0  0.40598  0.44216  0.44507  1.0000
  Ti  Ti19      1.0  0.50705  0.05365  0.22027  1.0000
  Ti  Ti20      1.0  0.57500  0.78408  0.94245  1.0000
  Ti  Ti21      1.0  0.14272  0.58945  0.65321  1.0000
  Ti  Ti22      1.0  0.37904  0.27957  0.40666  1.0000
  Ti  Ti23      1.0  0.47839  0.95584  0.15933  1.0000
  Ti  Ti24      1.0  0.90717  0.27910  0.78270  1.0000
  Ti  Ti25      1.0  0.03298  0.94483  0.90596  1.0000
  Ti  Ti26      1.0  0.24099  0.63429  0.81185  1.0000
  Ti  Ti27      1.0  0.99890  0.77623  0.42968  1.0000
  Ti  Ti28      1.0  0.25927  0.27528  0.02800  1.0000
  Ti  Ti29      1.0  0.67345  0.79786  0.28154  1.0000
  Ti  Ti30      1.0  0.59360  0.48495  0.06286  1.0000
  Ti  Ti31      1.0  0.79674  0.99097  0.14928  1.0000
  Ti  Ti32      1.0  0.91833  0.37288  0.86577  1.0000
  Ti  Ti33      1.0  0.89871  0.13509  0.52934  1.0000
  Ti  Ti34      1.0  0.56088  0.70802  0.85505  1.0000
  Ti  Ti35      1.0  0.06535  0.26299  0.07545  1.0000
  Ti  Ti36      1.0  0.36859  0.70281  0.79130  1.0000
  Ti  Ti37      1.0  0.23563  0.96709  0.15364  1.0000
  Ti  Ti38      1.0  0.53478  0.69090  0.66444  1.0000
  Ti  Ti39      1.0  0.83160  0.22552  0.06993  1.0000
  Ti  Ti40      1.0  0.81163  0.98441  0.04113  1.0000
  Ti  Ti41      1.0  0.48076  0.70811  0.36611  1.0000
  Ti  Ti42      1.0  0.30993  0.65755  0.67595  1.0000
  Ti  Ti43      1.0  0.36707  0.70452  0.52580  1.0000
  Ti  Ti44      1.0  0.43558  0.42767  0.07842  1.0000
  Ti  Ti45      1.0  0.75631  0.26059  0.23218  1.0000
  Ti  Ti46      1.0  0.90428  0.64292  0.50647  1.0000
  Ti  Ti47      1.0  0.07261  0.65905  0.47297  1.0000
  Ti  Ti48      1.0  0.31291  0.02835  0.84690  1.0000
  Ti  Ti49      1.0  0.40126  0.90057  0.14276  1.0000
  Ti  Ti50      1.0  0.20154  0.43036  0.86615  1.0000
  Ti  Ti51      1.0  0.45096  0.98711  0.21870  1.0000
  Ti  Ti52      1.0  0.98806  0.37344  0.33715  1.0000
  Ti  Ti53      1.0  0.63412  0.48080  0.53097  1.0000
  Ti  Ti54      1.0  0.80860  0.92947  0.83535  1.0000
  Ti  Ti55      1.0  0.06261  0.71219  0.82817  1.0000
  Ti  Ti56      1.0  0.67799  0.27544  0.71843  1.0000
  Ti  Ti57      1.0  0.97441  0.13459  0.67606  1.0000
  Ti  Ti58      1.0  0.97290  0.74778  0.01496  1.0000
  Ti  Ti59      1.0  0.87589  0.80962  0.82033  1.0000
  Ti  Ti60      1.0  0.54847  0.00061  0.27110  1.0000
  Ti  Ti61      1.0  0.61397  0.27483  0.49728  1.0000
  Ti  Ti62      1.0  0.48013  0.60391  0.39660  1.0000
  Ti  Ti63      1.0  0.24866  0.49583  0.17849  1.0000
  Ti  Ti64      1.0  0.43647  0.41641  0.50749  1.0000
  Ti  Ti65      1.0  0.39568  0.22632  0.76834  1.0000
  Ti  Ti66      1.0  0.94730  0.17671  0.31177  1.0000
  Ti  Ti67      1.0  0.86017  0.82804  0.61544  1.0000
  Ti  Ti68      1.0  0.33537  0.33777  0.95023  1.0000
  Ti  Ti69      1.0  0.23642  0.61088  0.87947  1.0000
  Ti  Ti70      1.0  0.31208  0.96427  0.73935  1.0000
  Ti  Ti71      1.0  0.78480  0.46938  0.16599  1.0000
  Ti  Ti72      1.0  0.34599  0.93563  0.51136  1.0000
  Ti  Ti73      1.0  0.18334  0.88615  0.22179  1.0000
  Ti  Ti74      1.0  0.02682  0.95814  0.99064  1.0000
  Ti  Ti75      1.0  0.39287  0.87012  0.18329  1.0000
  Ti  Ti76      1.0  0.86123  0.58769  0.95199  1.0000
  Ti  Ti77      1.0  0.54540  0.44280  0.89399  1.0000
  Ti  Ti78      1.0  0.78594  0.47289  0.84345  1.0000
  Ti  Ti79      1.0  0.05145  0.82341  0.64551  1.0000
  Ti  Ti80      1.0  0.93083  0.64914  0.25507  1.0000
  Ti  Ti81      1.0  0.53450  0.34343  0.42243  1.0000
  Ti  Ti82      1.0  0.31696  0.86547  0.01964  1.0000
  Ti  Ti83      1.0  0.80998  0.23703  0.25802  1.0000
  Ti  Ti84      1.0  0.34603  0.74917  0.76373  1.0000
  Ti  Ti85      1.0  0.24793  0.96761  0.24754  1.0000
  Ti  Ti86      1.0  0.40663  0.50444  0.69279  1.0000
  Ti  Ti87      1.0  0.01768  0.85055  0.87334  1.0000
  Ti  Ti88      1.0  0.78575  0.11073  0.48114  1.0000
  Ti  Ti89      1.0  0.77191  0.08163  0.18222  1.0000
  Ti  Ti90      1.0  0.70452  0.97134  0.58689  1.0000
  Ti  Ti91      1.0  0.71784  0.39504  0.24964  1.0000
  Ti  Ti92      1.0  0.89056  0.22434  0.36110  1.0000
  Ti  Ti93      1.0  0.76858  0.59701  0.56264  1.0000
  Ti  Ti94      1.0  0.33482  0.02372  0.91321  1.0000
  Ti  Ti95      1.0  0.43887  0.79988  0.58604  1.0000
  Ti  Ti96      1.0  0.83281  0.07115  0.99307  1.0000
  I   I1        1.0  0.10151  0.62880  0.47566  1.0000
  I   I2        1.0  0.45724  0.01078  0.25989  1.0000
  I   I3        1.0  0.38190  0.91264  0.20401  1.0000
  I   I4        1.0  0.63849  0.48057  0.46513  1.0000
  I   I5        1.0  0.18580  0.94271  0.89546  1.0000
  I   I6        1.0  0.79250  0.95908  0.78793  1.0000
  I   I7        1.0  0.29673  0.70433  0.44179  1.0000
  I   I8        1.0  0.71045  0.24625  0.70147  1.0000
  I   I9        1.0  0.97657  0.13706  0.60154  1.0000
  I   I10       1.0  0.78514  0.98370  0.08119  1.0000
  I   I11       1.0  0.35246  0.72872  0.46176  1.0000
  I   I12       1.0  0.85256  0.36521  0.64155  1.0000
  I   I13       1.0  0.50886  0.56169  0.23059  1.0000
  I   I14       1.0  0.21911  0.50475  0.13484  1.0000
  I   I15       1.0  0.52219  0.46427  0.93861  1.0000
  I   I16       1.0  0.84769  0.96299  0.01875  1.0000
  I   I17       1.0  0.91737  0.18071  0.27991  1.0000
  I   I18       1.0  0.36925  0.46607  0.44476  1.0000
  I   I19       1.0  0.27748  0.46288  0.16947  1.0000
  I   I20       1.0  0.37716  0.77254  0.49509  1.0000
  I   I21       1.0  0.32678  0.69296  0.30648  1.0000
  I   I22       1.0  0.53665  0.36597  0.37246  1.0000
  I   I23       1.0  0.80767  0.12286  0.45643  1.0000
  I   I24       1.0  0.34579  0.95823  0.74789  1.0000
  I   I25       1.0  0.00472  0.93582  0.90352  1.0000
  I   I26       1.0  0.39541  0.93273  0.11024  1.0000
  I   I27       1.0  0.05924  0.27979  0.01738  1.0000
  I   I28       1.0  0.23910  0.29276  0.97634  1.0000
  I   I29       1.0  0.81850  0.44457  0.84301  1.0000
  I   I30       1.0  0.61942  0.47385  0.01569  1.0000
  I   I31       1.0  0.93086  0.64216  0.32330  1.0000
  I   I32       1.0  0.55392  0.33420  0.47333  1.0000
  I   I33       1.0  0.08434  0.79731  0.67373  1.0000
  I   I34       1.0  0.08957  0.24332  0.12552  1.0000
  I   I35       1.0  0.31581  0.76885  0.72659  1.0000
  I   I36       1.0  0.52952  0.72371  0.82652  1.0000
  I   I37       1.0  0.21415  0.98499  0.20968  1.0000
  I   I38       1.0  0.83217  0.25450  0.02559  1.0000
  I   I39       1.0  0.23184  0.00385  0.26790  1.0000
  I   I40       1.0  0.40004  0.44276  0.08500  1.0000
  I   I41       1.0  0.23398  0.42788  0.85828  1.0000
  I   I42       1.0  0.79196  0.00010  0.98441  1.0000
  I   I43       1.0  0.94560  0.74765  0.99323  1.0000
  I   I44       1.0  0.72508  0.27665  0.19694  1.0000
  I   I45       1.0  0.83121  0.20320  0.27998  1.0000
  I   I46       1.0  0.44123  0.82305  0.62538  1.0000
  I   I47       1.0  0.08452  0.68400  0.45589  1.0000
  I   I48       1.0  0.31220  0.06306  0.90238  1.0000
  I   I49       1.0  0.37298  0.89203  0.13313  1.0000
  I   I50       1.0  0.70927  0.29788  0.41368  1.0000
  I   I51       1.0  0.48985  0.95286  0.23728  1.0000
  I   I52       1.0  0.89354  0.66317  0.25054  1.0000
  I   I53       1.0  0.60122  0.48325  0.52913  1.0000
  I   I54       1.0  0.80245  0.90234  0.82259  1.0000
  I   I55       1.0  0.38741  0.52577  0.74412  1.0000
  I   I56       1.0  0.11640  0.58390  0.68886  1.0000
  I   I57       1.0  0.42180  0.78873  0.62872  1.0000
  I   I58       1.0  0.86975  0.22581  0.13196  1.0000
  I   I59       1.0  0.85940  0.78817  0.85806  1.0000
  I   I60       1.0  0.54596  0.02113  0.31661  1.0000
  I   I61       1.0  0.45212  0.60051  0.42469  1.0000
  I   I62       1.0  0.45389  0.58901  0.25238  1.0000
  I   I63       1.0  0.54964  0.79938  0.98343  1.0000
  I   I64       1.0  0.87921  0.81584  0.94057  1.0000
  I   I65       1.0  0.81273  0.95114  0.03024  1.0000
  I   I66       1.0  0.28823  0.24532  0.01825  1.0000
  I   I67       1.0  0.58288  0.98527  0.24984  1.0000
  I   I68       1.0  0.55545  0.78237  0.89683  1.0000
  I   I69       1.0  0.24044  0.66496  0.79469  1.0000
  I   I70       1.0  0.28950  0.97213  0.79215  1.0000
  I   I71       1.0  0.41578  0.00929  0.20837  1.0000
  I   I72       1.0  0.35314  0.90569  0.48248  1.0000
  I   I73       1.0  0.97761  0.77292  0.47872  1.0000
  I   I74       1.0  0.22631  0.62844  0.75453  1.0000
  I   I75       1.0  0.21246  0.61779  0.93424  1.0000
  I   I76       1.0  0.57141  0.45325  0.90410  1.0000
  I   I77       1.0  0.51850  0.43744  0.86042  1.0000
  I   I78       1.0  0.75975  0.01703  0.14954  1.0000
  I   I79       1.0  0.90469  0.12125  0.47166  1.0000
  I   I80       1.0  0.82903  0.19428  0.63078  1.0000
  I   I81       1.0  0.93714  0.35726  0.80901  1.0000
  I   I82       1.0  0.32910  0.82915  0.01286  1.0000
  I   I83       1.0  0.74963  0.28982  0.27431  1.0000
  I   I84       1.0  0.38504  0.72614  0.79530  1.0000
  I   I85       1.0  0.27476  0.94779  0.29227  1.0000
  I   I86       1.0  0.23510  0.27549  0.07192  1.0000
  I   I87       1.0  0.84598  0.19020  0.06145  1.0000
  I   I88       1.0  0.81828  0.26053  0.10878  1.0000
  I   I89       1.0  0.57308  0.72936  0.81683  1.0000
  I   I90       1.0  0.19778  0.41941  0.80312  1.0000
  I   I91       1.0  0.68389  0.39900  0.26474  1.0000
  I   I92       1.0  0.88041  0.25829  0.38782  1.0000
  I   I93       1.0  0.45205  0.44316  0.11346  1.0000
  I   I94       1.0  0.34536  0.99644  0.86520  1.0000
  I   I95       1.0  0.87908  0.63915  0.46751  1.0000
  I   I96       1.0  0.37136  0.26572  0.35540  1.0000
  I   I97       1.0  0.98271  0.98619  0.25367  1.0000
  I   I98       1.0  0.84667  0.23038  0.69247  1.0000
  I   I99       1.0  0.69946  0.25798  0.46670  1.0000
  I   I100      1.0  0.40267  0.77601  0.88864  1.0000
  I   I101      1.0  0.75688  0.11623  0.44739  1.0000
  I   I102      1.0  0.88617  0.32269  0.57953  1.0000
  I   I103      1.0  0.40413  0.51363  0.63003  1.0000
  I   I104      1.0  0.06206  0.71579  0.76623  1.0000
  I   I105      1.0  0.45824  0.74216  0.34061  1.0000
  I   I106      1.0  0.50194  0.01401  0.75526  1.0000
  I   I107      1.0  0.86368  0.27627  0.08722  1.0000
  I   I108      1.0  0.46280  0.02797  0.68390  1.0000
  I   I109      1.0  0.51964  0.39950  0.93739  1.0000
  I   I110      1.0  0.49869  0.59083  0.44928  1.0000
  I   I111      1.0  0.59185  0.80580  0.94573  1.0000
  I   I112      1.0  0.45040  0.38382  0.51865  1.0000
  I   I113      1.0  0.40843  0.23803  0.72256  1.0000
  I   I114      1.0  0.67362  0.01949  0.62319  1.0000
  I   I115      1.0  0.83005  0.84135  0.65568  1.0000
  I   I116      1.0  0.85875  0.84016  0.55345  1.0000
  I   I117      1.0  0.30327  0.34697  0.92184  1.0000
  I   I118      1.0  0.84194  0.09610  0.96928  1.0000
  I   I119      1.0  0.87724  0.83962  0.65288  1.0000
  I   I120      1.0  0.06485  0.66344  0.53514  1.0000
  I   I121      1.0  0.16702  0.91747  0.18864  1.0000
  I   I122      1.0  0.01931  0.98535  0.94780  1.0000
  I   I123      1.0  0.42360  0.84520  0.15092  1.0000
  I   I124      1.0  0.56491  0.51657  0.04753  1.0000
  I   I125      1.0  0.86310  0.61745  0.92298  1.0000
  I   I126      1.0  0.77311  0.47674  0.78158  1.0000
  I   I127      1.0  0.86367  0.16281  0.53403  1.0000
  I   I128      1.0  0.43266  0.78341  0.80711  1.0000
  I   I129      1.0  0.51625  0.93296  0.15853  1.0000
  I   I130      1.0  0.36544  0.67088  0.80456  1.0000
  I   I131      1.0  0.28255  0.88609  0.04480  1.0000
  I   I132      1.0  0.03641  0.28799  0.10902  1.0000
  I   I133      1.0  0.82106  0.20822  0.12259  1.0000
  I   I134      1.0  0.56625  0.68940  0.64332  1.0000
  I   I135      1.0  0.97172  0.18619  0.28962  1.0000
  I   I136      1.0  0.31621  0.64875  0.73811  1.0000
  I   I137      1.0  0.99935  0.39198  0.37388  1.0000
  I   I138      1.0  0.75011  0.07871  0.23000  1.0000
  I   I139      1.0  0.73299  0.41041  0.29033  1.0000
  I   I140      1.0  0.92149  0.22436  0.33049  1.0000
  I   I141      1.0  0.79611  0.56656  0.58276  1.0000
  I   I142      1.0  0.29585  0.02058  0.89833  1.0000
  I   I143      1.0  0.03414  0.00474  0.27650  1.0000
  I   I144      1.0  0.40471  0.29126  0.42171  1.0000
  I   I145      1.0  0.79971  0.25736  0.65685  1.0000
  I   I146      1.0  0.72143  0.29331  0.50730  1.0000
  I   I147      1.0  0.97266  0.03277  0.30070  1.0000
  I   I148      1.0  0.98599  0.35027  0.37812  1.0000
  I   I149      1.0  0.91632  0.32998  0.64585  1.0000
  I   I150      1.0  0.13864  0.99956  0.90522  1.0000
  I   I151      1.0  0.04796  0.69253  0.84561  1.0000
  I   I152      1.0  0.28492  0.68558  0.32754  1.0000
  I   I153      1.0  0.93896  0.15245  0.65385  1.0000
  I   I154      1.0  0.39151  0.72477  0.53385  1.0000
  I   I155      1.0  0.32169  0.79673  0.47981  1.0000
  I   I156      1.0  0.50970  0.01680  0.24997  1.0000
  I   I157      1.0  0.56017  0.40870  0.93477  1.0000
  I   I158      1.0  0.25466  0.50281  0.24258  1.0000
  I   I159      1.0  0.62611  0.30024  0.50074  1.0000
  I   I160      1.0  0.45879  0.41632  0.55919  1.0000
  I   I161      1.0  0.67151  0.96935  0.56566  1.0000
  I   I162      1.0  0.41162  0.40762  0.45345  1.0000
  I   I163      1.0  0.49254  0.08481  0.18277  1.0000
  I   I164      1.0  0.88039  0.66505  0.55097  1.0000
  I   I165      1.0  0.17926  0.57335  0.64212  1.0000
  I   I166      1.0  0.86478  0.05309  0.95461  1.0000
  I   I167      1.0  0.50296  0.35426  0.45064  1.0000
  I   I168      1.0  0.93511  0.27915  0.74722  1.0000
  I   I169      1.0  0.99453  0.97279  0.02135  1.0000
  I   I170      1.0  0.04937  0.95580  0.03811  1.0000
  I   I171      1.0  0.03357  0.76304  0.44053  1.0000
  I   I172      1.0  0.83375  0.59109  0.91430  1.0000
  I   I173      1.0  0.63938  0.82197  0.31032  1.0000
  I   I174      1.0  0.59977  0.44701  0.05243  1.0000
  I   I175      1.0  0.82961  0.98026  0.11310  1.0000
  I   I176      1.0  0.94577  0.34540  0.90668  1.0000
  I   I177      1.0  0.08928  0.82042  0.61839  1.0000
  I   I178      1.0  0.33442  0.86342  0.07199  1.0000
  I   I179      1.0  0.72981  0.26353  0.28218  1.0000
  I   I180      1.0  0.22077  0.94488  0.13028  1.0000
  I   I181      1.0  0.44718  0.04555  0.78008  1.0000
  I   I182      1.0  0.44145  0.41764  0.74689  1.0000
  I   I183      1.0  0.04788  0.84468  0.91394  1.0000
  I   I184      1.0  0.80910  0.07783  0.50620  1.0000
  I   I185      1.0  0.75102  0.11823  0.17987  1.0000
  I   I186      1.0  0.28898  0.67097  0.62582  1.0000
  I   I187      1.0  0.87120  0.20494  0.35155  1.0000
  I   I188      1.0  0.44902  0.39409  0.08739  1.0000
  I   I189      1.0  0.02190  0.81966  0.84481  1.0000
  I   I190      1.0  0.92863  0.65534  0.48902  1.0000
  I   I191      1.0  0.72842  0.01404  0.69206  1.0000
  I   I192      1.0  0.03294  0.96060  0.27468  1.0000
  I   I193      1.0  0.76588  0.47546  0.89693  1.0000
  I   I194      1.0  0.58937  0.75223  0.97239  1.0000
  I   I195      1.0  0.00449  0.01391  0.21802  1.0000
  I   I196      1.0  0.44184  0.81377  0.92848  1.0000
  I   I197      1.0  0.97442  0.72738  0.07007  1.0000
  I   I198      1.0  0.19196  0.98535  0.87934  1.0000
  I   I199      1.0  0.90960  0.40678  0.84447  1.0000
  I   I200      1.0  0.66628  0.29420  0.66335  1.0000
  I   I201      1.0  0.97062  0.10289  0.66742  1.0000
  I   I202      1.0  0.90722  0.78092  0.83769  1.0000
  I   I203      1.0  0.21115  0.61878  0.82821  1.0000
  I   I204      1.0  0.47215  0.07548  0.72086  1.0000
  I   I205      1.0  0.49569  0.60703  0.26126  1.0000
  I   I206      1.0  0.44206  0.77032  0.96394  1.0000
  I   I207      1.0  0.48519  0.45138  0.95569  1.0000
  I   I208      1.0  0.86548  0.78421  0.97828  1.0000
  I   I209      1.0  0.70231  0.94314  0.62034  1.0000
  I   I210      1.0  0.05516  0.79765  0.60511  1.0000
  I   I211      1.0  0.32522  0.93125  0.71695  1.0000
  I   I212      1.0  0.25165  0.52573  0.14044  1.0000
  I   I213      1.0  0.25027  0.57386  0.86090  1.0000
  I   I214      1.0  0.37390  0.25806  0.45463  1.0000
  I   I215      1.0  0.44904  0.95025  0.16303  1.0000
  I   I216      1.0  0.75614  0.62918  0.53044  1.0000
  I   I217      1.0  0.06263  0.94303  0.93625  1.0000
  I   I218      1.0  0.39358  0.86820  0.24724  1.0000
  I   I219      1.0  0.19049  0.89259  0.28314  1.0000
  I   I220      1.0  0.56274  0.44156  0.82958  1.0000
  I   I221      1.0  0.68325  0.81792  0.23700  1.0000
  I   I222      1.0  0.88869  0.55661  0.93247  1.0000
  I   I223      1.0  0.80114  0.00928  0.19629  1.0000
  I   I224      1.0  0.88895  0.37189  0.84036  1.0000
  I   I225      1.0  0.91617  0.11379  0.58354  1.0000
  I   I226      1.0  0.33822  0.67416  0.38949  1.0000
  I   I227      1.0  0.05652  0.23775  0.06285  1.0000
  I   I228      1.0  0.33732  0.73589  0.81944  1.0000
  I   I229      1.0  0.97081  0.77956  0.04529  1.0000
  I   I230      1.0  0.54635  0.66090  0.69577  1.0000
  I   I231      1.0  0.87655  0.20673  0.05418  1.0000
  I   I232      1.0  0.40334  0.82450  0.87834  1.0000
  I   I233      1.0  0.48431  0.67613  0.34069  1.0000
  I   I234      1.0  0.67569  0.05687  0.67311  1.0000
  I   I235      1.0  0.33390  0.70502  0.51266  1.0000
  I   I236      1.0  0.76681  0.60746  0.62592  1.0000
  I   I237      1.0  0.71987  0.40709  0.18870  1.0000
  I   I238      1.0  0.41901  0.79937  0.53347  1.0000
  I   I239      1.0  0.80425  0.07576  0.95729  1.0000
  I   I240      1.0  0.36550  0.02541  0.91542  1.0000
  I   I241      1.0  0.81374  0.21933  0.73600  1.0000
  I   I242      1.0  0.75539  0.24092  0.44831  1.0000
  I   I243      1.0  0.32869  0.36555  0.99590  1.0000
  I   I244      1.0  0.77215  0.12464  0.54347  1.0000
  I   I245      1.0  0.65801  0.45209  0.56174  1.0000
  I   I246      1.0  0.15589  0.98244  0.81075  1.0000
  I   I247      1.0  0.39605  0.47549  0.68221  1.0000
  I   I248      1.0  0.14122  0.57390  0.60172  1.0000
  I   I249      1.0  0.98753  0.12665  0.73934  1.0000
  I   I250      1.0  0.88414  0.83540  0.83479  1.0000
  I   I251      1.0  0.34325  0.77910  0.57039  1.0000
  I   I252      1.0  0.49593  0.06208  0.28247  1.0000
  I   I253      1.0  0.45738  0.60542  0.33306  1.0000
  I   I254      1.0  0.49092  0.77160  0.95058  1.0000
  I   I255      1.0  0.62339  0.27469  0.43230  1.0000
  I   I256      1.0  0.37068  0.24920  0.81580  1.0000
  I   I257      1.0  0.21841  0.99907  0.11877  1.0000
  I   I258      1.0  0.40620  0.46523  0.39494  1.0000
  I   I259      1.0  0.88111  0.79297  0.60937  1.0000
  I   I260      1.0  0.92400  0.60945  0.53664  1.0000
  I   I261      1.0  0.13827  0.62145  0.63088  1.0000
  I   I262      1.0  0.35086  0.31546  0.40949  1.0000
  I   I263      1.0  0.75181  0.49351  0.14539  1.0000
  I   I264      1.0  0.40367  0.68019  0.79986  1.0000
  I   I265      1.0  0.05045  0.91572  0.86351  1.0000
  I   I266      1.0  0.27431  0.59896  0.89559  1.0000
  I   I267      1.0  0.20077  0.85880  0.18242  1.0000
  I   I268      1.0  0.95059  0.16245  0.36856  1.0000
  I   I269      1.0  0.79073  0.49871  0.86485  1.0000
  I   I270      1.0  0.26099  0.30093  0.07307  1.0000
  I   I271      1.0  0.79656  0.96557  0.19484  1.0000
  I   I272      1.0  0.53837  0.31544  0.38181  1.0000
  I   I273      1.0  0.91636  0.15478  0.51924  1.0000
  I   I274      1.0  0.51188  0.70371  0.39339  1.0000
  I   I275      1.0  0.98660  0.76147  0.37522  1.0000
  I   I276      1.0  0.35122  0.77698  0.77063  1.0000
  I   I277      1.0  0.32155  0.89144  0.98092  1.0000
  I   I278      1.0  0.53402  0.71017  0.72025  1.0000
  I   I279      1.0  0.44740  0.42087  0.00817  1.0000
  I   I280      1.0  0.95687  0.39406  0.29821  1.0000
  I   I281      1.0  0.45541  0.70934  0.42286  1.0000
  I   I282      1.0  0.32842  0.62121  0.66040  1.0000
  I   I283      1.0  0.40069  0.68648  0.48349  1.0000
  I   I284      1.0  0.92548  0.24820  0.82431  1.0000
  I   I285      1.0  0.98973  0.85149  0.90698  1.0000
  I   I286      1.0  0.46956  0.77430  0.55809  1.0000
  I   I287      1.0  0.32970  0.93193  0.56214  1.0000
  I   I288      1.0  0.29818  0.01767  0.80190  1.0000
  I   I289      1.0  0.37673  0.67941  0.57227  1.0000
  I   I290      1.0  0.72209  0.97722  0.63858  1.0000
  I   I291      1.0  0.47541  0.99010  0.16781  1.0000
  I   I292      1.0  0.01537  0.35531  0.29951  1.0000
  I   I293      1.0  0.61229  0.52113  0.51310  1.0000
  I   I294      1.0  0.79093  0.95279  0.88587  1.0000
  I   I295      1.0  0.43185  0.51878  0.69094  1.0000
  I   I296      1.0  0.64792  0.27379  0.74134  1.0000
  I   I297      1.0  0.00040  0.08320  0.60147  1.0000
  I   I298      1.0  0.99509  0.74309  0.96523  1.0000
  I   I299      1.0  0.84311  0.83125  0.86601  1.0000
  I   I300      1.0  0.74078  0.58706  0.56422  1.0000
  I   I301      1.0  0.57973  0.28087  0.48706  1.0000
  I   I302      1.0  0.47055  0.64020  0.38910  1.0000
  I   I303      1.0  0.42146  0.19934  0.80430  1.0000
  I   I304      1.0  0.44792  0.42292  0.45001  1.0000
  I   I305      1.0  0.82218  0.83565  0.94618  1.0000
  I   I306      1.0  0.39468  0.45286  0.78014  1.0000
  I   I307      1.0  0.24426  0.93914  0.21523  1.0000
  I   I308      1.0  0.19858  0.41660  0.92338  1.0000
  I   I309      1.0  0.29064  0.73008  0.35410  1.0000
  I   I310      1.0  0.43408  0.88619  0.17637  1.0000
  I   I311      1.0  0.78918  0.44420  0.20944  1.0000
  I   I312      1.0  0.05451  0.64161  0.45559  1.0000
  I   I313      1.0  0.15219  0.88998  0.25209  1.0000
  I   I314      1.0  0.03775  0.96434  0.84626  1.0000
  I   I315      1.0  0.37557  0.85106  0.18323  1.0000
  I   I316      1.0  0.86427  0.58931  0.01617  1.0000
  I   I317      1.0  0.96393  0.14518  0.27007  1.0000
  I   I318      1.0  0.70812  0.77125  0.28578  1.0000
  I   I319      1.0  0.02877  0.85150  0.60419  1.0000
  I   I320      1.0  0.47526  0.78927  0.85766  1.0000
  I   I321      1.0  0.04396  0.74505  0.84876  1.0000
  I   I322      1.0  0.55267  0.72000  0.91471  1.0000
  I   I323      1.0  0.78244  0.22609  0.21742  1.0000
  I   I324      1.0  0.35686  0.71483  0.72298  1.0000
  I   I325      1.0  0.26468  0.94117  0.11376  1.0000
  I   I326      1.0  0.39497  0.42880  0.71272  1.0000
  I   I327      1.0  0.81851  0.25122  0.20544  1.0000
  I   I328      1.0  0.79917  0.23723  0.04573  1.0000
  I   I329      1.0  0.78365  0.06686  0.11373  1.0000
  I   I330      1.0  0.72851  0.95684  0.53847  1.0000
  I   I331      1.0  0.99800  0.87361  0.81878  1.0000
  I   I332      1.0  0.67666  0.01645  0.72106  1.0000
  I   I333      1.0  0.56403  0.67558  0.86083  1.0000
  I   I334      1.0  0.33601  0.01084  0.97005  1.0000
  I   I335      1.0  0.34132  0.30689  0.98013  1.0000
  I   I336      1.0  0.82094  0.06528  0.04987  1.0000
  I   I337      1.0  0.42087  0.88762  0.08338  1.0000
  I   I338      1.0  0.18002  0.46706  0.86986  1.0000
  I   I339      1.0  0.44881  0.97036  0.27307  1.0000
  I   I340      1.0  0.92761  0.68088  0.23277  1.0000
  I   I341      1.0  0.89418  0.29906  0.83567  1.0000
  I   I342      1.0  0.84015  0.92141  0.86287  1.0000
  I   I343      1.0  0.09640  0.69212  0.84673  1.0000
  I   I344      1.0  0.66359  0.30102  0.76788  1.0000
  I   I345      1.0  0.00938  0.13632  0.66852  1.0000
  I   I346      1.0  0.31049  0.98198  0.67864  1.0000
  I   I347      1.0  0.85809  0.82638  0.76506  1.0000
  I   I348      1.0  0.54193  0.04714  0.22629  1.0000
  I   I349      1.0  0.63131  0.25885  0.55739  1.0000
  I   I350      1.0  0.49972  0.56945  0.36155  1.0000
  I   I351      1.0  0.46356  0.74910  0.87933  1.0000
  I   I352      1.0  0.41122  0.45519  0.50751  1.0000
  I   I353      1.0  0.37704  0.21114  0.75307  1.0000
  I   I354      1.0  0.43083  0.46980  0.73288  1.0000
  I   I355      1.0  0.52960  0.03054  0.16491  1.0000
  I   I356      1.0  0.35855  0.33586  0.89835  1.0000
  I   I357      1.0  0.26961  0.59545  0.80489  1.0000
  I   I358      1.0  0.90174  0.36556  0.57098  1.0000
  I   I359      1.0  0.79460  0.49762  0.17052  1.0000
  I   I360      1.0  0.37778  0.93328  0.51705  1.0000
  I   I361      1.0  0.98214  0.81019  0.44314  1.0000
  I   I362      1.0  0.03901  0.92144  0.97332  1.0000
  I   I363      1.0  0.22550  0.64920  0.87931  1.0000
  I   I364      1.0  0.61478  0.47992  0.11307  1.0000
  I   I365      1.0  0.63649  0.50882  0.57485  1.0000
  I   I366      1.0  0.66068  0.78278  0.23759  1.0000
  I   I367      1.0  0.02876  0.82168  0.68725  1.0000
  I   I368      1.0  0.93432  0.62593  0.20708  1.0000
  I   I369      1.0  0.48270  0.95743  0.09330  1.0000
  I   I370      1.0  0.04242  0.08587  0.64156  1.0000
  I   I371      1.0  0.82329  0.24948  0.30098  1.0000
  I   I372      1.0  0.88074  0.27355  0.76408  1.0000
  I   I373      1.0  0.26768  0.96802  0.19745  1.0000
  I   I374      1.0  0.51443  0.69409  0.60524  1.0000
  I   I375      1.0  0.77928  0.24750  0.29332  1.0000
  I   I376      1.0  0.79716  0.44458  0.12013  1.0000
  I   I377      1.0  0.80254  0.07243  0.21289  1.0000
  I   I378      1.0  0.34070  0.66150  0.65959  1.0000
  I   I379      1.0  0.73942  0.35910  0.25046  1.0000
  I   I380      1.0  0.91553  0.20388  0.40876  1.0000
  I   I381      1.0  0.54460  0.97664  0.31009  1.0000
  I   I382      1.0  0.32872  0.04505  0.81795  1.0000
  I   I383      1.0  0.33712  0.73865  0.54609  1.0000
  I   I384      1.0  0.32988  0.96924  0.47735  1.0000
