data_image0
_chemical_formula_structural       Ti96I384
_chemical_formula_sum              "Ti96 I384"
_cell_length_a       72.4793
_cell_length_b       72.3804
_cell_length_c       35.4312
_cell_angle_alpha    88.7757
_cell_angle_beta     88.7757
_cell_angle_gamma    62.1586

_space_group_name_H-M_alt    "P 1"
_space_group_IT_number       1

loop_
  _space_group_symop_operation_xyz
  'x, y, z'

loop_
  _atom_site_type_symbol
  _atom_site_label
  _atom_site_symmetry_multiplicity
  _atom_site_fract_x
  _atom_site_fract_y
  _atom_site_fract_z
  _atom_site_occupancy
  Ti  Ti1       1.0  0.51061  0.54927  0.51338  1.0000
  Ti  Ti2       1.0  0.16881  0.93536  0.17330  1.0000
  Ti  Ti3       1.0  0.41106  0.00682  0.78062  1.0000
  Ti  Ti4       1.0  0.96382  0.49809  0.01993  1.0000
  Ti  Ti5       1.0  0.65178  0.44702  0.23345  1.0000
  Ti  Ti6       1.0  0.56676  0.07064  0.29802  1.0000
  Ti  Ti7       1.0  0.57752  0.85187  0.34309  1.0000
  Ti  Ti8       1.0  0.18343  0.58223  0.98121  1.0000
  Ti  Ti9       1.0  0.45873  0.30165  0.29365  1.0000
  Ti  Ti10      1.0  0.60562  0.55175  0.72893  1.0000
  Ti  Ti11      1.0  0.23787  0.18561  0.66972  1.0000
  Ti  Ti12      1.0  0.92980  0.31308  0.06512  1.0000
  Ti  Ti13      1.0  0.67103  0.72158  0.39700  1.0000
  Ti  Ti14      1.0  0.98595  0.44646  0.08687  1.0000
  Ti  Ti15      1.0  0.71566  0.62232  0.58496  1.0000
  Ti  Ti16      1.0  0.33847  0.61534  0.88339  1.0000
  Ti  Ti17      1.0  0.14617  0.15608  0.91544  1.0000
  Ti  Ti18      1.0  0.27543  0.21045  0.07687  1.0000
  Ti  Ti19      1.0  0.13495  0.77638  0.36716  1.0000
  Ti  Ti20      1.0  0.26328  0.80756  0.45784  1.0000
  Ti  Ti21      1.0  0.16471  0.59889  0.10447  1.0000
  Ti  Ti22      1.0  0.01783  0.34370  0.20389  1.0000
  Ti  Ti23      1.0  0.23164  0.01798  0.33980  1.0000
  Ti  Ti24      1.0  0.84425  0.00172  0.35863  1.0000
  Ti  Ti25      1.0  0.47048  0.43199  0.31808  1.0000
  Ti  Ti26      1.0  0.63690  0.89294  0.61228  1.0000
  Ti  Ti27      1.0  0.76615  0.36485  0.23857  1.0000
  Ti  Ti28      1.0  0.27809  0.07933  0.09610  1.0000
  Ti  Ti29      1.0  0.26644  0.74346  0.05743  1.0000
  Ti  Ti30      1.0  0.28797  0.91144  0.68685  1.0000
  Ti  Ti31      1.0  0.33379  0.01852  0.44528  1.0000
  Ti  Ti32      1.0  0.39531  0.84058  0.95266  1.0000
  Ti  Ti33      1.0  0.25355  0.65599  0.42604  1.0000
  Ti  Ti34      1.0  0.77034  0.49719  0.10414  1.0000
  Ti  Ti35      1.0  0.06113  0.53128  0.29596  1.0000
  Ti  Ti36      1.0  0.85603  0.16896  0.94700  1.0000
  Ti  Ti37      1.0  0.15601  0.14680  0.79186  1.0000
  Ti  Ti38      1.0  0.58247  0.93922  0.90763  1.0000
  Ti  Ti39      1.0  0.53093  0.91068  0.91203  1.0000
  Ti  Ti40      1.0  0.48855  0.75961  0.80478  1.0000
  Ti  Ti41      1.0  0.60310  0.45180  0.82061  1.0000
  Ti  Ti42      1.0  0.96995  0.69960  0.65642  1.0000
  Ti  Ti43      1.0  0.97815  0.06161  0.28539  1.0000
  Ti  Ti44      1.0  0.56353  0.42383  0.86423  1.0000
  Ti  Ti45      1.0  0.14273  0.17937  0.53075  1.0000
  Ti  Ti46      1.0  0.40253  0.06334  0.76371  1.0000
  Ti  Ti47      1.0  0.02777  0.99484  0.90341  1.0000
  Ti  Ti48      1.0  0.09676  0.88632  0.27451  1.0000
  Ti  Ti49      1.0  0.90642  0.84129  0.70409  1.0000
  Ti  Ti50      1.0  0.85821  0.53181  0.16368  1.0000
  Ti  Ti51      1.0  0.21427  0.91617  0.12587  1.0000
  Ti  Ti52      1.0  0.73681  0.43603  0.63461  1.0000
  Ti  Ti53      1.0  0.78652  0.68577  0.08622  1.0000
  Ti  Ti54      1.0  0.56687  0.17568  0.17032  1.0000
  Ti  Ti55      1.0  0.61860  0.85149  0.25293  1.0000
  Ti  Ti56      1.0  0.18649  0.66725  0.90862  1.0000
  Ti  Ti57      1.0  0.40814  0.30383  0.26187  1.0000
  Ti  Ti58      1.0  0.36597  0.52891  0.46495  1.0000
  Ti  Ti59      1.0  0.73861  0.85920  0.40060  1.0000
  Ti  Ti60      1.0  0.86482  0.34720  0.04852  1.0000
  Ti  Ti61      1.0  0.68372  0.60669  0.50698  1.0000
  Ti  Ti62      1.0  0.74200  0.67209  0.38437  1.0000
  Ti  Ti63      1.0  0.04988  0.72577  0.14664  1.0000
  Ti  Ti64      1.0  0.24219  0.21070  0.14765  1.0000
  Ti  Ti65      1.0  0.94125  0.66531  0.35051  1.0000
  Ti  Ti66      1.0  0.72279  0.24902  0.35731  1.0000
  Ti  Ti67      1.0  0.91112  0.57008  0.33754  1.0000
  Ti  Ti68      1.0  0.12691  0.74459  0.33579  1.0000
  Ti  Ti69      1.0  0.63379  0.84917  0.62393  1.0000
  Ti  Ti70      1.0  0.89108  0.60527  0.23590  1.0000
  Ti  Ti71      1.0  0.23327  0.06540  0.40060  1.0000
  Ti  Ti72      1.0  0.04595  0.02892  0.81377  1.0000
  Ti  Ti73      1.0  0.78874  0.35478  0.15832  1.0000
  Ti  Ti74      1.0  0.52390  0.40372  0.39293  1.0000
  Ti  Ti75      1.0  0.45117  0.07561  0.06703  1.0000
  Ti  Ti76      1.0  0.23295  0.10709  0.14380  1.0000
  Ti  Ti77      1.0  0.07671  0.68767  0.51429  1.0000
  Ti  Ti78      1.0  0.25215  0.77303  0.95679  1.0000
  Ti  Ti79      1.0  0.81164  0.77977  0.25587  1.0000
  Ti  Ti80      1.0  0.98621  0.44481  0.59594  1.0000
  Ti  Ti81      1.0  0.34389  0.91349  0.95900  1.0000
  Ti  Ti82      1.0  0.96608  0.16328  0.44094  1.0000
  Ti  Ti83      1.0  0.06290  0.52643  0.42826  1.0000
  Ti  Ti84      1.0  0.85077  0.17818  0.02312  1.0000
  Ti  Ti85      1.0  0.11240  0.14621  0.79011  1.0000
  Ti  Ti86      1.0  0.72388  0.21995  0.46216  1.0000
  Ti  Ti87      1.0  0.11263  0.22512  0.58621  1.0000
  Ti  Ti88      1.0  0.73177  0.48335  0.52434  1.0000
  Ti  Ti89      1.0  0.37113  0.41644  0.51533  1.0000
  Ti  Ti90      1.0  0.97294  0.68989  0.76473  1.0000
  Ti  Ti91      1.0  0.26641  0.49130  0.38592  1.0000
  Ti  Ti92      1.0  0.51850  0.70127  0.43754  1.0000
  Ti  Ti93      1.0  0.00617  0.19320  0.96371  1.0000
  Ti  Ti94      1.0  0.04727  0.90575  0.25769  1.0000
  Ti  Ti95      1.0  0.35533  0.40957  0.09306  1.0000
  Ti  Ti96      1.0  0.87462  0.37447  0.41144  1.0000
  I   I1        1.0  0.04762  0.02061  0.89952  1.0000
  I   I2        1.0  0.17726  0.95707  0.10569  1.0000
  I   I3        1.0  0.87269  0.84055  0.73420  1.0000
  I   I4        1.0  0.78171  0.70750  0.02303  1.0000
  I   I5        1.0  0.56279  0.07870  0.22668  1.0000
  I   I6        1.0  0.54929  0.20140  0.10847  1.0000
  I   I7        1.0  0.18244  0.59542  0.91460  1.0000
  I   I8        1.0  0.18836  0.70026  0.92564  1.0000
  I   I9        1.0  0.37807  0.32568  0.31223  1.0000
  I   I10       1.0  0.59977  0.56895  0.79938  1.0000
  I   I11       1.0  0.21566  0.21902  0.70123  1.0000
  I   I12       1.0  0.64203  0.48244  0.25713  1.0000
  I   I13       1.0  0.70102  0.68356  0.41705  1.0000
  I   I14       1.0  0.04452  0.76203  0.16583  1.0000
  I   I15       1.0  0.69803  0.64841  0.64033  1.0000
  I   I16       1.0  0.57581  0.54171  0.74548  1.0000
  I   I17       1.0  0.75501  0.22720  0.30950  1.0000
  I   I18       1.0  0.30951  0.21336  0.05974  1.0000
  I   I19       1.0  0.24086  0.84572  0.47410  1.0000
  I   I20       1.0  0.26059  0.16549  0.72792  1.0000
  I   I21       1.0  0.17976  0.61244  0.03770  1.0000
  I   I22       1.0  0.26379  0.98686  0.36770  1.0000
  I   I23       1.0  0.24909  0.05900  0.47216  1.0000
  I   I24       1.0  0.92072  0.58111  0.39486  1.0000
  I   I25       1.0  0.43803  0.47067  0.31503  1.0000
  I   I26       1.0  0.42758  0.10583  0.11344  1.0000
  I   I27       1.0  0.73294  0.37468  0.28061  1.0000
  I   I28       1.0  0.30694  0.04242  0.06833  1.0000
  I   I29       1.0  0.22909  0.75053  0.07211  1.0000
  I   I30       1.0  0.27482  0.89942  0.74649  1.0000
  I   I31       1.0  0.01840  0.41304  0.56598  1.0000
  I   I32       1.0  0.39781  0.81436  0.89900  1.0000
  I   I33       1.0  0.80886  0.78416  0.18158  1.0000
  I   I34       1.0  0.07324  0.48825  0.39658  1.0000
  I   I35       1.0  0.89197  0.13718  0.98093  1.0000
  I   I36       1.0  0.75926  0.46838  0.10402  1.0000
  I   I37       1.0  0.13406  0.12909  0.86216  1.0000
  I   I38       1.0  0.56831  0.90423  0.89535  1.0000
  I   I39       1.0  0.12278  0.16895  0.73284  1.0000
  I   I40       1.0  0.55999  0.40084  0.91689  1.0000
  I   I41       1.0  0.94456  0.69216  0.70276  1.0000
  I   I42       1.0  0.50011  0.71956  0.78726  1.0000
  I   I43       1.0  0.33589  0.54177  0.52567  1.0000
  I   I44       1.0  0.56410  0.46270  0.82421  1.0000
  I   I45       1.0  0.12133  0.21967  0.50110  1.0000
  I   I46       1.0  0.34468  0.42373  0.16006  1.0000
  I   I47       1.0  0.02764  0.96844  0.85554  1.0000
  I   I48       1.0  0.00943  0.93662  0.22318  1.0000
  I   I49       1.0  0.92427  0.84789  0.76401  1.0000
  I   I50       1.0  0.21970  0.95086  0.16045  1.0000
  I   I51       1.0  0.20480  0.90854  0.20800  1.0000
  I   I52       1.0  0.96458  0.45299  0.52829  1.0000
  I   I53       1.0  0.80277  0.69428  0.14410  1.0000
  I   I54       1.0  0.54073  0.16739  0.21402  1.0000
  I   I55       1.0  0.61334  0.82157  0.29661  1.0000
  I   I56       1.0  0.12554  0.62906  0.12626  1.0000
  I   I57       1.0  0.38106  0.33083  0.21122  1.0000
  I   I58       1.0  0.58370  0.56851  0.66409  1.0000
  I   I59       1.0  0.70964  0.86317  0.44839  1.0000
  I   I60       1.0  0.95115  0.29035  0.12130  1.0000
  I   I61       1.0  0.76298  0.67275  0.44277  1.0000
  I   I62       1.0  0.75532  0.62901  0.37959  1.0000
  I   I63       1.0  0.02187  0.71492  0.16299  1.0000
  I   I64       1.0  0.35012  0.64231  0.89848  1.0000
  I   I65       1.0  0.96479  0.66376  0.40506  1.0000
  I   I66       1.0  0.74861  0.26256  0.38380  1.0000
  I   I67       1.0  0.16102  0.78919  0.33747  1.0000
  I   I68       1.0  0.27374  0.81178  0.38801  1.0000
  I   I69       1.0  0.61342  0.88938  0.66877  1.0000
  I   I70       1.0  0.87262  0.60768  0.31560  1.0000
  I   I71       1.0  0.25272  0.08785  0.38411  1.0000
  I   I72       1.0  0.08328  0.01791  0.79819  1.0000
  I   I73       1.0  0.79459  0.31925  0.13546  1.0000
  I   I74       1.0  0.65899  0.89189  0.55025  1.0000
  I   I75       1.0  0.66980  0.87255  0.65699  1.0000
  I   I76       1.0  0.05630  0.71215  0.57117  1.0000
  I   I77       1.0  0.07343  0.71793  0.47036  1.0000
  I   I78       1.0  0.51915  0.51051  0.51486  1.0000
  I   I79       1.0  0.27171  0.67942  0.45335  1.0000
  I   I80       1.0  0.32183  0.05785  0.43797  1.0000
  I   I81       1.0  0.30254  0.92586  0.93526  1.0000
  I   I82       1.0  0.93523  0.15841  0.48013  1.0000
  I   I83       1.0  0.04042  0.51477  0.26300  1.0000
  I   I84       1.0  0.86186  0.14597  0.88241  1.0000
  I   I85       1.0  0.15973  0.11321  0.75993  1.0000
  I   I86       1.0  0.70711  0.27961  0.30178  1.0000
  I   I87       1.0  0.51316  0.94849  0.94300  1.0000
  I   I88       1.0  0.50967  0.78018  0.81901  1.0000
  I   I89       1.0  0.63872  0.42652  0.78850  1.0000
  I   I90       1.0  0.98779  0.65030  0.77909  1.0000
  I   I91       1.0  0.25913  0.52489  0.41775  1.0000
  I   I92       1.0  0.54948  0.70485  0.46995  1.0000
  I   I93       1.0  0.52078  0.44793  0.89174  1.0000
  I   I94       1.0  0.06970  0.87368  0.21210  1.0000
  I   I95       1.0  0.37411  0.10085  0.78437  1.0000
  I   I96       1.0  0.85550  0.40882  0.44518  1.0000
  I   I97       1.0  0.40401  0.00499  0.85864  1.0000
  I   I98       1.0  0.53380  0.56646  0.47060  1.0000
  I   I99       1.0  0.23076  0.90659  0.05472  1.0000
  I   I100      1.0  0.99879  0.47804  0.06801  1.0000
  I   I101      1.0  0.77224  0.41957  0.66555  1.0000
  I   I102      1.0  0.67846  0.41884  0.27630  1.0000
  I   I103      1.0  0.57618  0.85472  0.41915  1.0000
  I   I104      1.0  0.57361  0.87545  0.27325  1.0000
  I   I105      1.0  0.49895  0.29562  0.27996  1.0000
  I   I106      1.0  0.95351  0.32422  0.03116  1.0000
  I   I107      1.0  0.64143  0.54566  0.71282  1.0000
  I   I108      1.0  0.89600  0.30443  0.08242  1.0000
  I   I109      1.0  0.68665  0.64359  0.53947  1.0000
  I   I110      1.0  0.74907  0.69653  0.33383  1.0000
  I   I111      1.0  0.08763  0.70031  0.16839  1.0000
  I   I112      1.0  0.26155  0.18237  0.07657  1.0000
  I   I113      1.0  0.96737  0.63414  0.31141  1.0000
  I   I114      1.0  0.13440  0.19485  0.94217  1.0000
  I   I115      1.0  0.95002  0.53385  0.31598  1.0000
  I   I116      1.0  0.90310  0.63133  0.20864  1.0000
  I   I117      1.0  0.16476  0.73267  0.37402  1.0000
  I   I118      1.0  0.99968  0.37255  0.15137  1.0000
  I   I119      1.0  0.89478  0.57141  0.19561  1.0000
  I   I120      1.0  0.05065  0.97209  0.95943  1.0000
  I   I121      1.0  0.82630  0.35549  0.16359  1.0000
  I   I122      1.0  0.46108  0.40579  0.27407  1.0000
  I   I123      1.0  0.45334  0.08963  0.99898  1.0000
  I   I124      1.0  0.25567  0.94580  0.67773  1.0000
  I   I125      1.0  0.24668  0.06588  0.12742  1.0000
  I   I126      1.0  0.28146  0.73838  0.12807  1.0000
  I   I127      1.0  0.21736  0.68590  0.40299  1.0000
  I   I128      1.0  0.97780  0.52556  0.02207  1.0000
  I   I129      1.0  0.33337  0.94536  0.00561  1.0000
  I   I130      1.0  0.81678  0.19519  0.95723  1.0000
  I   I131      1.0  0.93912  0.19075  0.38692  1.0000
  I   I132      1.0  0.09453  0.50055  0.26439  1.0000
  I   I133      1.0  0.51074  0.89337  0.94619  1.0000
  I   I134      1.0  0.57399  0.96940  0.86095  1.0000
  I   I135      1.0  0.71829  0.21471  0.38162  1.0000
  I   I136      1.0  0.93627  0.70795  0.80093  1.0000
  I   I137      1.0  0.75112  0.50696  0.54169  1.0000
  I   I138      1.0  0.33232  0.42747  0.53012  1.0000
  I   I139      1.0  0.30228  0.47362  0.35379  1.0000
  I   I140      1.0  0.52926  0.69053  0.36633  1.0000
  I   I141      1.0  0.02994  0.16708  0.01917  1.0000
  I   I142      1.0  0.07868  0.87585  0.32754  1.0000
  I   I143      1.0  0.42462  0.07519  0.72100  1.0000
  I   I144      1.0  0.90291  0.35356  0.46325  1.0000
  I   I145      1.0  0.51546  0.56914  0.56939  1.0000
  I   I146      1.0  0.13911  0.92631  0.19728  1.0000
  I   I147      1.0  0.41364  0.02234  0.71549  1.0000
  I   I148      1.0  0.75204  0.46448  0.61438  1.0000
  I   I149      1.0  0.65595  0.44033  0.15992  1.0000
  I   I150      1.0  0.55943  0.10468  0.33204  1.0000
  I   I151      1.0  0.62439  0.83048  0.18621  1.0000
  I   I152      1.0  0.22183  0.56699  0.99872  1.0000
  I   I153      1.0  0.43847  0.30043  0.20988  1.0000
  I   I154      1.0  0.98661  0.03298  0.33626  1.0000
  I   I155      1.0  0.26369  0.19390  0.64077  1.0000
  I   I156      1.0  0.88461  0.33066  0.98655  1.0000
  I   I157      1.0  0.69849  0.59799  0.60941  1.0000
  I   I158      1.0  0.06422  0.73113  0.07819  1.0000
  I   I159      1.0  0.69613  0.56813  0.49741  1.0000
  I   I160      1.0  0.25849  0.17805  0.19488  1.0000
  I   I161      1.0  0.11793  0.15312  0.96930  1.0000
  I   I162      1.0  0.27916  0.20627  0.99614  1.0000
  I   I163      1.0  0.09258  0.79847  0.34766  1.0000
  I   I164      1.0  0.13696  0.70137  0.33688  1.0000
  I   I165      1.0  0.14738  0.59027  0.03336  1.0000
  I   I166      1.0  0.00858  0.31358  0.19910  1.0000
  I   I167      1.0  0.24360  0.99981  0.27482  1.0000
  I   I168      1.0  0.82258  0.04170  0.36967  1.0000
  I   I169      1.0  0.52649  0.38786  0.46066  1.0000
  I   I170      1.0  0.50803  0.38308  0.34489  1.0000
  I   I171      1.0  0.74858  0.35384  0.17371  1.0000
  I   I172      1.0  0.25659  0.08307  0.03254  1.0000
  I   I173      1.0  0.21744  0.76844  0.93564  1.0000
  I   I174      1.0  0.32459  0.90540  0.71059  1.0000
  I   I175      1.0  0.34849  0.98161  0.49385  1.0000
  I   I176      1.0  0.37201  0.87336  0.90216  1.0000
  I   I177      1.0  0.80844  0.76515  0.32999  1.0000
  I   I178      1.0  0.99449  0.17706  0.43423  1.0000
  I   I179      1.0  0.03737  0.54397  0.36149  1.0000
  I   I180      1.0  0.87038  0.15472  0.08490  1.0000
  I   I181      1.0  0.07285  0.16966  0.81196  1.0000
  I   I182      1.0  0.69386  0.24381  0.51379  1.0000
  I   I183      1.0  0.14024  0.17323  0.45193  1.0000
  I   I184      1.0  0.72033  0.45045  0.55186  1.0000
  I   I185      1.0  0.39113  0.37872  0.53566  1.0000
  I   I186      1.0  0.99752  0.69610  0.59186  1.0000
  I   I187      1.0  0.51118  0.67472  0.47926  1.0000
  I   I188      1.0  0.56452  0.40143  0.80653  1.0000
  I   I189      1.0  0.13870  0.16794  0.60095  1.0000
  I   I190      1.0  0.37671  0.05012  0.79993  1.0000
  I   I191      1.0  0.88980  0.49534  0.17361  1.0000
  I   I192      1.0  0.03663  0.94200  0.29618  1.0000
  I   I193      1.0  0.27937  0.70896  0.01905  1.0000
  I   I194      1.0  0.82437  0.53188  0.14063  1.0000
  I   I195      1.0  0.39339  0.98229  0.77507  1.0000
  I   I196      1.0  0.92672  0.51572  0.06416  1.0000
  I   I197      1.0  0.35115  0.51111  0.41944  1.0000
  I   I198      1.0  0.54402  0.06144  0.33819  1.0000
  I   I199      1.0  0.65613  0.83284  0.29374  1.0000
  I   I200      1.0  0.21660  0.62999  0.92424  1.0000
  I   I201      1.0  0.47334  0.30063  0.36453  1.0000
  I   I202      1.0  0.72248  0.87229  0.33729  1.0000
  I   I203      1.0  0.67565  0.83016  0.59868  1.0000
  I   I204      1.0  0.83291  0.33963  0.05570  1.0000
  I   I205      1.0  0.66322  0.74952  0.45084  1.0000
  I   I206      1.0  0.94944  0.47159  0.11615  1.0000
  I   I207      1.0  0.73626  0.64631  0.56171  1.0000
  I   I208      1.0  0.36599  0.57967  0.85612  1.0000
  I   I209      1.0  0.17616  0.13180  0.97033  1.0000
  I   I210      1.0  0.79544  0.75254  0.24649  1.0000
  I   I211      1.0  0.89072  0.55166  0.36138  1.0000
  I   I212      1.0  0.24177  0.78616  0.47783  1.0000
  I   I213      1.0  0.63107  0.81562  0.60739  1.0000
  I   I214      1.0  0.05624  0.32992  0.18749  1.0000
  I   I215      1.0  0.19271  0.02119  0.31942  1.0000
  I   I216      1.0  0.83307  0.99138  0.29548  1.0000
  I   I217      1.0  0.47920  0.43262  0.38936  1.0000
  I   I218      1.0  0.44416  0.04462  0.07197  1.0000
  I   I219      1.0  0.78427  0.38219  0.27766  1.0000
  I   I220      1.0  0.05763  0.66661  0.48989  1.0000
  I   I221      1.0  0.22796  0.79860  0.01429  1.0000
  I   I222      1.0  0.25022  0.12805  0.10999  1.0000
  I   I223      1.0  0.30310  0.01293  0.41394  1.0000
  I   I224      1.0  0.43093  0.84032  0.95459  1.0000
  I   I225      1.0  0.26847  0.65627  0.35767  1.0000
  I   I226      1.0  0.94305  0.20814  0.46091  1.0000
  I   I227      1.0  0.05499  0.56750  0.27233  1.0000
  I   I228      1.0  0.81919  0.20208  0.06425  1.0000
  I   I229      1.0  0.13247  0.18094  0.83800  1.0000
  I   I230      1.0  0.61418  0.93904  0.93931  1.0000
  I   I231      1.0  0.50447  0.92347  0.85880  1.0000
  I   I232      1.0  0.97430  0.45564  0.00850  1.0000
  I   I233      1.0  0.62284  0.45762  0.87202  1.0000
  I   I234      1.0  0.99458  0.65767  0.67682  1.0000
  I   I235      1.0  0.98497  0.08488  0.33543  1.0000
  I   I236      1.0  0.99808  0.17450  0.90624  1.0000
  I   I237      1.0  0.23507  0.49777  0.34382  1.0000
  I   I238      1.0  0.33613  0.39406  0.05548  1.0000
  I   I239      1.0  0.84552  0.36266  0.40740  1.0000
  I   I240      1.0  0.11157  0.90129  0.32343  1.0000
  I   I241      1.0  0.47836  0.56130  0.47682  1.0000
  I   I242      1.0  0.15232  0.97005  0.20658  1.0000
  I   I243      1.0  0.44426  0.97354  0.76167  1.0000
  I   I244      1.0  0.69257  0.51005  0.52319  1.0000
  I   I245      1.0  0.74726  0.71221  0.10243  1.0000
  I   I246      1.0  0.60517  0.05066  0.31555  1.0000
  I   I247      1.0  0.56745  0.82235  0.32789  1.0000
  I   I248      1.0  0.17640  0.55829  0.10902  1.0000
  I   I249      1.0  0.42441  0.33421  0.28924  1.0000
  I   I250      1.0  0.75066  0.88759  0.41506  1.0000
  I   I251      1.0  0.24330  0.15412  0.62303  1.0000
  I   I252      1.0  0.94968  0.28156  0.01645  1.0000
  I   I253      1.0  0.63383  0.72728  0.42152  1.0000
  I   I254      1.0  0.00873  0.43740  0.14446  1.0000
  I   I255      1.0  0.64468  0.61431  0.50439  1.0000
  I   I256      1.0  0.94136  0.69407  0.29769  1.0000
  I   I257      1.0  0.18164  0.14559  0.88076  1.0000
  I   I258      1.0  0.21679  0.24208  0.18417  1.0000
  I   I259      1.0  0.92588  0.59283  0.28779  1.0000
  I   I260      1.0  0.13305  0.79387  0.43784  1.0000
  I   I261      1.0  0.19145  0.54186  0.97422  1.0000
  I   I262      1.0  0.01203  0.35938  0.27174  1.0000
  I   I263      1.0  0.21832  0.03572  0.40687  1.0000
  I   I264      1.0  0.83628  0.98266  0.41327  1.0000
  I   I265      1.0  0.49821  0.43607  0.28127  1.0000
  I   I266      1.0  0.61248  0.87753  0.57106  1.0000
  I   I267      1.0  0.78172  0.36906  0.09212  1.0000
  I   I268      1.0  0.30608  0.08998  0.06588  1.0000
  I   I269      1.0  0.25012  0.79719  0.90333  1.0000
  I   I270      1.0  0.19135  0.11846  0.15660  1.0000
  I   I271      1.0  0.36623  0.00022  0.40062  1.0000
  I   I272      1.0  0.36155  0.88117  0.00285  1.0000
  I   I273      1.0  0.24142  0.64759  0.48866  1.0000
  I   I274      1.0  0.79629  0.49091  0.16382  1.0000
  I   I275      1.0  0.08854  0.53003  0.35239  1.0000
  I   I276      1.0  0.87899  0.18705  0.99574  1.0000
  I   I277      1.0  0.98294  0.12820  0.41815  1.0000
  I   I278      1.0  0.55522  0.96663  0.95968  1.0000
  I   I279      1.0  0.18493  0.15211  0.52821  1.0000
  I   I280      1.0  0.72753  0.40828  0.63896  1.0000
  I   I281      1.0  0.59846  0.47778  0.76108  1.0000
  I   I282      1.0  0.94051  0.72709  0.61030  1.0000
  I   I283      1.0  0.99772  0.03919  0.22672  1.0000
  I   I284      1.0  0.97129  0.21959  0.99075  1.0000
  I   I285      1.0  0.10445  0.21944  0.65526  1.0000
  I   I286      1.0  0.39511  0.39793  0.08456  1.0000
  I   I287      1.0  0.04046  0.02254  0.74218  1.0000
  I   I288      1.0  0.13201  0.85007  0.25162  1.0000
  I   I289      1.0  0.89189  0.87360  0.65834  1.0000
  I   I290      1.0  0.86243  0.54234  0.22814  1.0000
  I   I291      1.0  0.18690  0.90164  0.11059  1.0000
  I   I292      1.0  0.72579  0.45644  0.70444  1.0000
  I   I293      1.0  0.78399  0.65197  0.07033  1.0000
  I   I294      1.0  0.55430  0.21144  0.20224  1.0000
  I   I295      1.0  0.63104  0.87683  0.22817  1.0000
  I   I296      1.0  0.14347  0.67613  0.90731  1.0000
  I   I297      1.0  0.43814  0.27953  0.30859  1.0000
  I   I298      1.0  0.39544  0.49375  0.49025  1.0000
  I   I299      1.0  0.32779  0.59524  0.93247  1.0000
  I   I300      1.0  0.85240  0.38639  0.03399  1.0000
  I   I301      1.0  0.68371  0.61314  0.43023  1.0000
  I   I302      1.0  0.66203  0.73162  0.32539  1.0000
  I   I303      1.0  0.46968  0.77687  0.73813  1.0000
  I   I304      1.0  0.27452  0.22433  0.15197  1.0000
  I   I305      1.0  0.32383  0.63207  0.81548  1.0000
  I   I306      1.0  0.72329  0.18289  0.48068  1.0000
  I   I307      1.0  0.14807  0.75532  0.28424  1.0000
  I   I308      1.0  0.30220  0.78380  0.48289  1.0000
  I   I309      1.0  0.17828  0.60664  0.16351  1.0000
  I   I310      1.0  0.94363  0.08378  0.25875  1.0000
  I   I311      1.0  0.22527  0.05567  0.32412  1.0000
  I   I312      1.0  0.99766  0.99676  0.94756  1.0000
  I   I313      1.0  0.75608  0.39531  0.18564  1.0000
  I   I314      1.0  0.53189  0.43546  0.40351  1.0000
  I   I315      1.0  0.48438  0.06414  0.10492  1.0000
  I   I316      1.0  0.22362  0.12370  0.21292  1.0000
  I   I317      1.0  0.28053  0.08102  0.16588  1.0000
  I   I318      1.0  0.27880  0.73632  0.92764  1.0000
  I   I319      1.0  0.84971  0.74461  0.24963  1.0000
  I   I320      1.0  0.95046  0.51072  0.95311  1.0000
  I   I321      1.0  0.39550  0.81719  0.01128  1.0000
  I   I322      1.0  0.74001  0.53191  0.07688  1.0000
  I   I323      1.0  0.06087  0.56072  0.43819  1.0000
  I   I324      1.0  0.83335  0.14740  0.00039  1.0000
  I   I325      1.0  0.10172  0.11705  0.78143  1.0000
  I   I326      1.0  0.75420  0.22233  0.48945  1.0000
  I   I327      1.0  0.09458  0.20487  0.55227  1.0000
  I   I328      1.0  0.45056  0.77340  0.83108  1.0000
  I   I329      1.0  0.37327  0.45068  0.54288  1.0000
  I   I330      1.0  0.00600  0.68890  0.80369  1.0000
  I   I331      1.0  0.08976  0.26587  0.56626  1.0000
  I   I332      1.0  0.39298  0.53420  0.41945  1.0000
  I   I333      1.0  0.60782  0.41453  0.86953  1.0000
  I   I334      1.0  0.08070  0.92592  0.23980  1.0000
  I   I335      1.0  0.43437  0.03884  0.80866  1.0000
  I   I336      1.0  0.89067  0.38815  0.35659  1.0000
  I   I337      1.0  0.92882  0.80445  0.68151  1.0000
  I   I338      1.0  0.86962  0.55003  0.11144  1.0000
  I   I339      1.0  0.25035  0.88730  0.14296  1.0000
  I   I340      1.0  0.98800  0.43272  0.66782  1.0000
  I   I341      1.0  0.61512  0.44972  0.23810  1.0000
  I   I342      1.0  0.60438  0.15063  0.19374  1.0000
  I   I343      1.0  0.54652  0.88738  0.36611  1.0000
  I   I344      1.0  0.19785  0.66066  0.83938  1.0000
  I   I345      1.0  0.40375  0.27162  0.24362  1.0000
  I   I346      1.0  0.85620  0.62420  0.19832  1.0000
  I   I347      1.0  0.77987  0.83060  0.38322  1.0000
  I   I348      1.0  0.89619  0.35459  0.08044  1.0000
  I   I349      1.0  0.73774  0.58868  0.53436  1.0000
  I   I350      1.0  0.70891  0.71842  0.38375  1.0000
  I   I351      1.0  0.99474  0.40814  0.06392  1.0000
  I   I352      1.0  0.23377  0.23968  0.08792  1.0000
  I   I353      1.0  0.91586  0.65184  0.37972  1.0000
  I   I354      1.0  0.70748  0.26077  0.43121  1.0000
  I   I355      1.0  0.09635  0.75496  0.27989  1.0000
  I   I356      1.0  0.11375  0.75406  0.40606  1.0000
  I   I357      1.0  0.62802  0.93145  0.64055  1.0000
  I   I358      1.0  0.88283  0.98856  0.34788  1.0000
  I   I359      1.0  0.19432  0.09245  0.41691  1.0000
  I   I360      1.0  0.01264  0.02258  0.84263  1.0000
  I   I361      1.0  0.80270  0.32831  0.23485  1.0000
  I   I362      1.0  0.56269  0.37792  0.37033  1.0000
  I   I363      1.0  0.64449  0.83802  0.69566  1.0000
  I   I364      1.0  0.29403  0.89816  0.61598  1.0000
  I   I365      1.0  0.11737  0.66407  0.52707  1.0000
  I   I366      1.0  0.28263  0.76525  0.01699  1.0000
  I   I367      1.0  0.80732  0.81686  0.26592  1.0000
  I   I368      1.0  0.98925  0.47972  0.59526  1.0000
  I   I369      1.0  0.37397  0.92105  0.92444  1.0000
  I   I370      1.0  0.78888  0.48936  0.04012  1.0000
  I   I371      1.0  0.04907  0.51579  0.48718  1.0000
  I   I372      1.0  0.86666  0.18743  0.88261  1.0000
  I   I373      1.0  0.18349  0.15550  0.75702  1.0000
  I   I374      1.0  0.59880  0.91866  0.84132  1.0000
  I   I375      1.0  0.15640  0.20374  0.58364  1.0000
  I   I376      1.0  0.75220  0.46435  0.46143  1.0000
  I   I377      1.0  0.38445  0.41596  0.44349  1.0000
  I   I378      1.0  0.97384  0.72338  0.70880  1.0000
  I   I379      1.0  0.26283  0.47258  0.44256  1.0000
  I   I380      1.0  0.48016  0.73377  0.44239  1.0000
  I   I381      1.0  0.01485  0.22236  0.93686  1.0000
  I   I382      1.0  0.01847  0.89852  0.28539  1.0000
  I   I383      1.0  0.34599  0.44187  0.04675  1.0000
  I   I384      1.0  0.02572  0.06864  0.82424  1.0000
