data_image0
_chemical_formula_structural       Ti96I384
_chemical_formula_sum              "Ti96 I384"
_cell_length_a       78.7269
_cell_length_b       78.4968
_cell_length_c       38.4821
_cell_angle_alpha    88.7757
_cell_angle_beta     88.7757
_cell_angle_gamma    62.1586

_space_group_name_H-M_alt    "P 1"
_space_group_IT_number       1

loop_
  _space_group_symop_operation_xyz
  'x, y, z'

loop_
  _atom_site_type_symbol
  _atom_site_label
  _atom_site_symmetry_multiplicity
  _atom_site_fract_x
  _atom_site_fract_y
  _atom_site_fract_z
  _atom_site_occupancy
  Ti  Ti1       1.0  0.58939  0.73516  0.07852  1.0000
  Ti  Ti2       1.0  0.65291  0.88440  0.47205  1.0000
  Ti  Ti3       1.0  0.13815  0.05233  0.47094  1.0000
  Ti  Ti4       1.0  0.38603  0.84790  0.95961  1.0000
  Ti  Ti5       1.0  0.84972  0.97182  0.78282  1.0000
  Ti  Ti6       1.0  0.28179  0.89829  0.26232  1.0000
  Ti  Ti7       1.0  0.56215  0.02680  0.57387  1.0000
  Ti  Ti8       1.0  0.79791  0.29274  0.51071  1.0000
  Ti  Ti9       1.0  0.06493  0.13702  0.63022  1.0000
  Ti  Ti10      1.0  0.91463  0.40249  0.39433  1.0000
  Ti  Ti11      1.0  0.94360  0.96082  0.85770  1.0000
  Ti  Ti12      1.0  0.25687  0.83647  0.09738  1.0000
  Ti  Ti13      1.0  0.53415  0.70093  0.47210  1.0000
  Ti  Ti14      1.0  0.40743  0.81425  0.01001  1.0000
  Ti  Ti15      1.0  0.97894  0.10997  0.85874  1.0000
  Ti  Ti16      1.0  0.90928  0.26211  0.37679  1.0000
  Ti  Ti17      1.0  0.22936  0.16903  0.31791  1.0000
  Ti  Ti18      1.0  0.67730  0.25427  0.37084  1.0000
  Ti  Ti19      1.0  0.23696  0.03344  0.37435  1.0000
  Ti  Ti20      1.0  0.09020  0.37689  0.64440  1.0000
  Ti  Ti21      1.0  0.78899  0.28889  0.39072  1.0000
  Ti  Ti22      1.0  0.56598  0.37758  0.30735  1.0000
  Ti  Ti23      1.0  0.37407  0.32297  0.15850  1.0000
  Ti  Ti24      1.0  0.56492  0.43710  0.52600  1.0000
  Ti  Ti25      1.0  0.78346  0.21218  0.63579  1.0000
  Ti  Ti26      1.0  0.14404  0.83881  0.90770  1.0000
  Ti  Ti27      1.0  0.81612  0.80897  0.09483  1.0000
  Ti  Ti28      1.0  0.43650  0.92125  0.42442  1.0000
  Ti  Ti29      1.0  0.05010  0.83991  0.70697  1.0000
  Ti  Ti30      1.0  0.25737  0.64103  0.41169  1.0000
  Ti  Ti31      1.0  0.90754  0.95344  0.55245  1.0000
  Ti  Ti32      1.0  0.26823  0.03206  0.68301  1.0000
  Ti  Ti33      1.0  0.64401  0.23859  0.04245  1.0000
  Ti  Ti34      1.0  0.93659  0.48861  0.54786  1.0000
  Ti  Ti35      1.0  0.62361  0.18082  0.86999  1.0000
  Ti  Ti36      1.0  0.85427  0.01700  0.96218  1.0000
  Ti  Ti37      1.0  0.53041  0.93846  0.65592  1.0000
  Ti  Ti38      1.0  0.56585  0.55064  0.61592  1.0000
  Ti  Ti39      1.0  0.91782  0.44773  0.34886  1.0000
  Ti  Ti40      1.0  0.71648  0.66105  0.02608  1.0000
  Ti  Ti41      1.0  0.49213  0.51933  0.16993  1.0000
  Ti  Ti42      1.0  0.15000  0.48520  0.23735  1.0000
  Ti  Ti43      1.0  0.44080  0.61474  0.88341  1.0000
  Ti  Ti44      1.0  0.99101  0.30791  0.57578  1.0000
  Ti  Ti45      1.0  0.97621  0.22084  0.66845  1.0000
  Ti  Ti46      1.0  0.73505  0.64014  0.84122  1.0000
  Ti  Ti47      1.0  0.57384  0.33008  0.71277  1.0000
  Ti  Ti48      1.0  0.70774  0.78613  0.65441  1.0000
  Ti  Ti49      1.0  0.96612  0.86786  0.23660  1.0000
  Ti  Ti50      1.0  0.05520  0.38287  0.75031  1.0000
  Ti  Ti51      1.0  0.59501  0.88159  0.48022  1.0000
  Ti  Ti52      1.0  0.32556  0.76155  0.20630  1.0000
  Ti  Ti53      1.0  0.79694  0.87722  0.36135  1.0000
  Ti  Ti54      1.0  0.57629  0.88626  0.84271  1.0000
  Ti  Ti55      1.0  0.71894  0.58768  0.25432  1.0000
  Ti  Ti56      1.0  0.65511  0.08344  0.59585  1.0000
  Ti  Ti57      1.0  0.05998  0.12433  0.70483  1.0000
  Ti  Ti58      1.0  0.62408  0.15461  0.39777  1.0000
  Ti  Ti59      1.0  0.94979  0.26049  0.39333  1.0000
  Ti  Ti60      1.0  0.11721  0.27913  0.54508  1.0000
  Ti  Ti61      1.0  0.49048  0.23045  0.55773  1.0000
  Ti  Ti62      1.0  0.53005  0.71352  0.55729  1.0000
  Ti  Ti63      1.0  0.04176  0.82333  0.99831  1.0000
  Ti  Ti64      1.0  0.63988  0.25598  0.42957  1.0000
  Ti  Ti65      1.0  0.79290  0.58282  0.06897  1.0000
  Ti  Ti66      1.0  0.42464  0.89185  0.46525  1.0000
  Ti  Ti67      1.0  0.14046  0.67769  0.72067  1.0000
  Ti  Ti68      1.0  0.76625  0.60463  0.76354  1.0000
  Ti  Ti69      1.0  0.20116  0.82679  0.93756  1.0000
  Ti  Ti70      1.0  0.38246  0.37239  0.65570  1.0000
  Ti  Ti71      1.0  0.50066  0.67800  0.04724  1.0000
  Ti  Ti72      1.0  0.59444  0.31749  0.58747  1.0000
  Ti  Ti73      1.0  0.45609  0.35192  0.54340  1.0000
  Ti  Ti74      1.0  0.81108  0.16118  0.58424  1.0000
  Ti  Ti75      1.0  0.73293  0.78358  0.30095  1.0000
  Ti  Ti76      1.0  0.07333  0.00985  0.92237  1.0000
  Ti  Ti77      1.0  0.92488  0.12869  0.79132  1.0000
  Ti  Ti78      1.0  0.10188  0.79578  0.74053  1.0000
  Ti  Ti79      1.0  0.60650  0.02292  0.00468  1.0000
  Ti  Ti80      1.0  0.99292  0.64761  0.53287  1.0000
  Ti  Ti81      1.0  0.32535  0.32444  0.13790  1.0000
  Ti  Ti82      1.0  0.68334  0.52165  0.65341  1.0000
  Ti  Ti83      1.0  0.92648  0.27201  0.70268  1.0000
  Ti  Ti84      1.0  0.79608  0.05102  0.99569  1.0000
  Ti  Ti85      1.0  0.48645  0.95677  0.67908  1.0000
  Ti  Ti86      1.0  0.57306  0.05465  0.62928  1.0000
  Ti  Ti87      1.0  0.42685  0.88668  0.62598  1.0000
  Ti  Ti88      1.0  0.82925  0.14437  0.01556  1.0000
  Ti  Ti89      1.0  0.03772  0.25828  0.03472  1.0000
  Ti  Ti90      1.0  0.16579  0.22753  0.33635  1.0000
  Ti  Ti91      1.0  0.56771  0.43214  0.88214  1.0000
  Ti  Ti92      1.0  0.67826  0.57627  0.73057  1.0000
  Ti  Ti93      1.0  0.42372  0.82231  0.80047  1.0000
  Ti  Ti94      1.0  0.71278  0.78038  0.58070  1.0000
  Ti  Ti95      1.0  0.96998  0.94237  0.97742  1.0000
  Ti  Ti96      1.0  0.34623  0.28697  0.88928  1.0000
  I   I1        1.0  0.58109  0.35144  0.75734  1.0000
  I   I2        1.0  0.58107  0.88710  0.41264  1.0000
  I   I3        1.0  0.97870  0.83160  0.24838  1.0000
  I   I4        1.0  0.78881  0.85998  0.30953  1.0000
  I   I5        1.0  0.29353  0.87711  0.20737  1.0000
  I   I6        1.0  0.54039  0.89279  0.82580  1.0000
  I   I7        1.0  0.75830  0.28821  0.41300  1.0000
  I   I8        1.0  0.68292  0.07046  0.55265  1.0000
  I   I9        1.0  0.06163  0.16736  0.67441  1.0000
  I   I10       1.0  0.71308  0.66196  0.09153  1.0000
  I   I11       1.0  0.92615  0.98796  0.81043  1.0000
  I   I12       1.0  0.82548  0.99367  0.83231  1.0000
  I   I13       1.0  0.53756  0.69960  0.61919  1.0000
  I   I14       1.0  0.05176  0.78946  0.98083  1.0000
  I   I15       1.0  0.99629  0.07402  0.87309  1.0000
  I   I16       1.0  0.74446  0.66999  0.01593  1.0000
  I   I17       1.0  0.39481  0.90232  0.51566  1.0000
  I   I18       1.0  0.71020  0.22523  0.35958  1.0000
  I   I19       1.0  0.06054  0.82700  0.04797  1.0000
  I   I20       1.0  0.95143  0.93293  0.81435  1.0000
  I   I21       1.0  0.79517  0.32360  0.55665  1.0000
  I   I22       1.0  0.39393  0.33353  0.11839  1.0000
  I   I23       1.0  0.84598  0.12554  0.95452  1.0000
  I   I24       1.0  0.37275  0.34758  0.62570  1.0000
  I   I25       1.0  0.74540  0.23388  0.63286  1.0000
  I   I26       1.0  0.69895  0.81333  0.30768  1.0000
  I   I27       1.0  0.59002  0.18738  0.86951  1.0000
  I   I28       1.0  0.40784  0.96226  0.42539  1.0000
  I   I29       1.0  0.09156  0.77299  0.71016  1.0000
  I   I30       1.0  0.23486  0.67518  0.39616  1.0000
  I   I31       1.0  0.02240  0.64485  0.56169  1.0000
  I   I32       1.0  0.31090  0.30214  0.14236  1.0000
  I   I33       1.0  0.61926  0.00131  0.07046  1.0000
  I   I34       1.0  0.62064  0.21426  0.88985  1.0000
  I   I35       1.0  0.79189  0.07140  0.05659  1.0000
  I   I36       1.0  0.94091  0.45411  0.52533  1.0000
  I   I37       1.0  0.51452  0.93947  0.73187  1.0000
  I   I38       1.0  0.91951  0.38473  0.45389  1.0000
  I   I39       1.0  0.55551  0.94684  0.60906  1.0000
  I   I40       1.0  0.95809  0.32881  0.54701  1.0000
  I   I41       1.0  0.02275  0.41227  0.75371  1.0000
  I   I42       1.0  0.68760  0.68928  0.99876  1.0000
  I   I43       1.0  0.60857  0.13433  0.38013  1.0000
  I   I44       1.0  0.97727  0.19010  0.63338  1.0000
  I   I45       1.0  0.89615  0.28995  0.66868  1.0000
  I   I46       1.0  0.97392  0.91084  0.00594  1.0000
  I   I47       1.0  0.54205  0.35772  0.70073  1.0000
  I   I48       1.0  0.74321  0.75351  0.61871  1.0000
  I   I49       1.0  0.98743  0.86060  0.18356  1.0000
  I   I50       1.0  0.66368  0.86903  0.53948  1.0000
  I   I51       1.0  0.67316  0.86646  0.41942  1.0000
  I   I52       1.0  0.99526  0.61683  0.51898  1.0000
  I   I53       1.0  0.82718  0.84719  0.38863  1.0000
  I   I54       1.0  0.58811  0.87722  0.77578  1.0000
  I   I55       1.0  0.54602  0.07159  0.56999  1.0000
  I   I56       1.0  0.81542  0.28038  0.44254  1.0000
  I   I57       1.0  0.00084  0.94649  0.97393  1.0000
  I   I58       1.0  0.91757  0.48003  0.39327  1.0000
  I   I59       1.0  0.92738  0.29300  0.36055  1.0000
  I   I60       1.0  0.11386  0.30812  0.51229  1.0000
  I   I61       1.0  0.54372  0.73764  0.56609  1.0000
  I   I62       1.0  0.49578  0.71247  0.47373  1.0000
  I   I63       1.0  0.06250  0.41077  0.62595  1.0000
  I   I64       1.0  0.97139  0.22491  0.42308  1.0000
  I   I65       1.0  0.71422  0.63015  0.00801  1.0000
  I   I66       1.0  0.45444  0.90306  0.36735  1.0000
  I   I67       1.0  0.21248  0.02167  0.38437  1.0000
  I   I68       1.0  0.08013  0.39541  0.71158  1.0000
  I   I69       1.0  0.18227  0.82773  0.87985  1.0000
  I   I70       1.0  0.37252  0.40545  0.62463  1.0000
  I   I71       1.0  0.40800  0.29143  0.18308  1.0000
  I   I72       1.0  0.57501  0.31664  0.53334  1.0000
  I   I73       1.0  0.78920  0.83690  0.06364  1.0000
  I   I74       1.0  0.14183  0.83394  0.84047  1.0000
  I   I75       1.0  0.10833  0.86371  0.91370  1.0000
  I   I76       1.0  0.91769  0.14464  0.72521  1.0000
  I   I77       1.0  0.96807  0.12096  0.92512  1.0000
  I   I78       1.0  0.92387  0.95108  0.60973  1.0000
  I   I79       1.0  0.62204  0.22524  0.07470  1.0000
  I   I80       1.0  0.57572  0.77045  0.06021  1.0000
  I   I81       1.0  0.25826  0.06064  0.72727  1.0000
  I   I82       1.0  0.66169  0.51530  0.71016  1.0000
  I   I83       1.0  0.93817  0.23058  0.68306  1.0000
  I   I84       1.0  0.87647  0.97785  0.96053  1.0000
  I   I85       1.0  0.46038  0.95448  0.71397  1.0000
  I   I86       1.0  0.43533  0.91970  0.49929  1.0000
  I   I87       1.0  0.94631  0.44519  0.31685  1.0000
  I   I88       1.0  0.93474  0.42248  0.41236  1.0000
  I   I89       1.0  0.93355  0.51663  0.50744  1.0000
  I   I90       1.0  0.05537  0.36237  0.80565  1.0000
  I   I91       1.0  0.58625  0.43429  0.93429  1.0000
  I   I92       1.0  0.66546  0.60433  0.77521  1.0000
  I   I93       1.0  0.99808  0.27182  0.56414  1.0000
  I   I94       1.0  0.72494  0.80722  0.62020  1.0000
  I   I95       1.0  0.76328  0.63716  0.78966  1.0000
  I   I96       1.0  0.60176  0.36073  0.32978  1.0000
  I   I97       1.0  0.13939  0.08511  0.46724  1.0000
  I   I98       1.0  0.56567  0.72969  0.04402  1.0000
  I   I99       1.0  0.60904  0.90806  0.48570  1.0000
  I   I100      1.0  0.38719  0.80231  0.05393  1.0000
  I   I101      1.0  0.83990  0.16729  0.05607  1.0000
  I   I102      1.0  0.88507  0.94849  0.80575  1.0000
  I   I103      1.0  0.60217  0.03731  0.67049  1.0000
  I   I104      1.0  0.68890  0.59994  0.20993  1.0000
  I   I105      1.0  0.03001  0.13455  0.66479  1.0000
  I   I106      1.0  0.28483  0.80527  0.05190  1.0000
  I   I107      1.0  0.90284  0.37628  0.37463  1.0000
  I   I108      1.0  0.22638  0.83855  0.11213  1.0000
  I   I109      1.0  0.00566  0.11605  0.84364  1.0000
  I   I110      1.0  0.53945  0.67041  0.43372  1.0000
  I   I111      1.0  0.09370  0.36126  0.58206  1.0000
  I   I112      1.0  0.62276  0.23420  0.40544  1.0000
  I   I113      1.0  0.76768  0.57229  0.06882  1.0000
  I   I114      1.0  0.25538  0.16680  0.27465  1.0000
  I   I115      1.0  0.16783  0.64122  0.72063  1.0000
  I   I116      1.0  0.13035  0.67716  0.65863  1.0000
  I   I117      1.0  0.79240  0.60653  0.71378  1.0000
  I   I118      1.0  0.32525  0.30117  0.94580  1.0000
  I   I119      1.0  0.11710  0.67835  0.76510  1.0000
  I   I120      1.0  0.58805  0.34333  0.64716  1.0000
  I   I121      1.0  0.43431  0.37031  0.48894  1.0000
  I   I122      1.0  0.78538  0.17513  0.65184  1.0000
  I   I123      1.0  0.72429  0.75515  0.30307  1.0000
  I   I124      1.0  0.26600  0.61220  0.36830  1.0000
  I   I125      1.0  0.05465  0.03386  0.97326  1.0000
  I   I126      1.0  0.13717  0.77981  0.71516  1.0000
  I   I127      1.0  0.63566  0.27484  0.06084  1.0000
  I   I128      1.0  0.43776  0.79359  0.04958  1.0000
  I   I129      1.0  0.32941  0.35537  0.15846  1.0000
  I   I130      1.0  0.77330  0.03348  0.99480  1.0000
  I   I131      1.0  0.69993  0.53020  0.60339  1.0000
  I   I132      1.0  0.63050  0.15409  0.91974  1.0000
  I   I133      1.0  0.88495  0.47496  0.31928  1.0000
  I   I134      1.0  0.53936  0.58246  0.59118  1.0000
  I   I135      1.0  0.43213  0.85616  0.45264  1.0000
  I   I136      1.0  0.17357  0.49669  0.25025  1.0000
  I   I137      1.0  0.31705  0.79772  0.21365  1.0000
  I   I138      1.0  0.02659  0.28860  0.99582  1.0000
  I   I139      1.0  0.59980  0.40588  0.85124  1.0000
  I   I140      1.0  0.69470  0.58988  0.67964  1.0000
  I   I141      1.0  0.45196  0.81968  0.76162  1.0000
  I   I142      1.0  0.71310  0.79888  0.52690  1.0000
  I   I143      1.0  0.16840  0.02175  0.48369  1.0000
  I   I144      1.0  0.55974  0.35139  0.34943  1.0000
  I   I145      1.0  0.62596  0.72495  0.10400  1.0000
  I   I146      1.0  0.55741  0.89499  0.49555  1.0000
  I   I147      1.0  0.11450  0.03416  0.48782  1.0000
  I   I148      1.0  0.32611  0.76709  0.14177  1.0000
  I   I149      1.0  0.84996  0.99831  0.74440  1.0000
  I   I150      1.0  0.30756  0.87152  0.30470  1.0000
  I   I151      1.0  0.73937  0.60142  0.22137  1.0000
  I   I152      1.0  0.78410  0.27062  0.52999  1.0000
  I   I153      1.0  0.04718  0.13883  0.76476  1.0000
  I   I154      1.0  0.41049  0.61220  0.91620  1.0000
  I   I155      1.0  0.96472  0.96962  0.81210  1.0000
  I   I156      1.0  0.14219  0.25328  0.50491  1.0000
  I   I157      1.0  0.89222  0.15297  0.81675  1.0000
  I   I158      1.0  0.01681  0.81637  0.03939  1.0000
  I   I159      1.0  0.49199  0.24032  0.62069  1.0000
  I   I160      1.0  0.67090  0.22023  0.39838  1.0000
  I   I161      1.0  0.25679  0.15760  0.36202  1.0000
  I   I162      1.0  0.69171  0.27819  0.35729  1.0000
  I   I163      1.0  0.22899  0.06782  0.39998  1.0000
  I   I164      1.0  0.70149  0.65716  0.81179  1.0000
  I   I165      1.0  0.78066  0.32397  0.36449  1.0000
  I   I166      1.0  0.37721  0.26821  0.91955  1.0000
  I   I167      1.0  0.35794  0.29682  0.11413  1.0000
  I   I168      1.0  0.56739  0.45210  0.58855  1.0000
  I   I169      1.0  0.83608  0.15384  0.53529  1.0000
  I   I170      1.0  0.78328  0.20644  0.56478  1.0000
  I   I171      1.0  0.81240  0.77891  0.10253  1.0000
  I   I172      1.0  0.07222  0.97680  0.94081  1.0000
  I   I173      1.0  0.05692  0.80944  0.77038  1.0000
  I   I174      1.0  0.29188  0.63764  0.42405  1.0000
  I   I175      1.0  0.88786  0.98324  0.50511  1.0000
  I   I176      1.0  0.30047  0.01583  0.70820  1.0000
  I   I177      1.0  0.64037  0.01834  0.97651  1.0000
  I   I178      1.0  0.64830  0.54858  0.63870  1.0000
  I   I179      1.0  0.94723  0.25918  0.63564  1.0000
  I   I180      1.0  0.82327  0.06252  0.97878  1.0000
  I   I181      1.0  0.56013  0.91181  0.68299  1.0000
  I   I182      1.0  0.55204  0.08125  0.67524  1.0000
  I   I183      1.0  0.39761  0.92167  0.63898  1.0000
  I   I184      1.0  0.79464  0.16280  0.99622  1.0000
  I   I185      1.0  0.06521  0.25510  0.07086  1.0000
  I   I186      1.0  0.15076  0.45085  0.21914  1.0000
  I   I187      1.0  0.70304  0.55091  0.77583  1.0000
  I   I188      1.0  0.00542  0.32386  0.52948  1.0000
  I   I189      1.0  0.43996  0.87909  0.56303  1.0000
  I   I190      1.0  0.73099  0.67503  0.86018  1.0000
  I   I191      1.0  0.14889  0.26108  0.30377  1.0000
  I   I192      1.0  0.12466  0.06307  0.53623  1.0000
  I   I193      1.0  0.08466  0.83264  0.71811  1.0000
  I   I194      1.0  0.12748  0.37338  0.64250  1.0000
  I   I195      1.0  0.13369  0.04144  0.40551  1.0000
  I   I196      1.0  0.39609  0.84135  0.88378  1.0000
  I   I197      1.0  0.65941  0.13128  0.38528  1.0000
  I   I198      1.0  0.28844  0.92704  0.26066  1.0000
  I   I199      1.0  0.27113  0.99672  0.67879  1.0000
  I   I200      1.0  0.65761  0.05201  0.62451  1.0000
  I   I201      1.0  0.05556  0.12004  0.58455  1.0000
  I   I202      1.0  0.88700  0.27785  0.32350  1.0000
  I   I203      1.0  0.16096  0.84647  0.96607  1.0000
  I   I204      1.0  0.27421  0.83441  0.15666  1.0000
  I   I205      1.0  0.52316  0.68412  0.53920  1.0000
  I   I206      1.0  0.37834  0.88509  0.95565  1.0000
  I   I207      1.0  0.91321  0.10414  0.78536  1.0000
  I   I208      1.0  0.90796  0.23118  0.40452  1.0000
  I   I209      1.0  0.19800  0.18030  0.36439  1.0000
  I   I210      1.0  0.57404  0.03763  0.04269  1.0000
  I   I211      1.0  0.41559  0.35478  0.68946  1.0000
  I   I212      1.0  0.05222  0.83825  0.93731  1.0000
  I   I213      1.0  0.20002  0.85944  0.91038  1.0000
  I   I214      1.0  0.56294  0.36011  0.25372  1.0000
  I   I215      1.0  0.34642  0.31201  0.19705  1.0000
  I   I216      1.0  0.44122  0.80171  0.85346  1.0000
  I   I217      1.0  0.78895  0.22705  0.68828  1.0000
  I   I218      1.0  0.74356  0.77919  0.36379  1.0000
  I   I219      1.0  0.49119  0.34524  0.53098  1.0000
  I   I220      1.0  0.93673  0.11227  0.85778  1.0000
  I   I221      1.0  0.04347  0.86509  0.65400  1.0000
  I   I222      1.0  0.04718  0.02837  0.87710  1.0000
  I   I223      1.0  0.93980  0.93115  0.52383  1.0000
  I   I224      1.0  0.27147  0.04243  0.61841  1.0000
  I   I225      1.0  0.68213  0.21639  0.03676  1.0000
  I   I226      1.0  0.67982  0.49634  0.60841  1.0000
  I   I227      1.0  0.65750  0.16168  0.83619  1.0000
  I   I228      1.0  0.85068  0.01744  0.02571  1.0000
  I   I229      1.0  0.60772  0.19093  0.37311  1.0000
  I   I230      1.0  0.56463  0.54467  0.67753  1.0000
  I   I231      1.0  0.93241  0.40866  0.32982  1.0000
  I   I232      1.0  0.39394  0.84720  0.04583  1.0000
  I   I233      1.0  0.47727  0.49516  0.16660  1.0000
  I   I234      1.0  0.24249  0.13125  0.31190  1.0000
  I   I235      1.0  0.44987  0.63583  0.92010  1.0000
  I   I236      1.0  0.40565  0.80840  0.75760  1.0000
  I   I237      1.0  0.55989  0.46664  0.86855  1.0000
  I   I238      1.0  0.97280  0.93057  0.90323  1.0000
  I   I239      1.0  0.35940  0.28924  0.82876  1.0000
  I   I240      1.0  0.69760  0.76114  0.67374  1.0000
  I   I241      1.0  0.56695  0.74101  0.13462  1.0000
  I   I242      1.0  0.66784  0.90916  0.46531  1.0000
  I   I243      1.0  0.73476  0.60055  0.78784  1.0000
  I   I244      1.0  0.84017  0.11104  0.04775  1.0000
  I   I245      1.0  0.79693  0.90257  0.30833  1.0000
  I   I246      1.0  0.24501  0.91041  0.28579  1.0000
  I   I247      1.0  0.54776  0.03239  0.51352  1.0000
  I   I248      1.0  0.77359  0.32310  0.48816  1.0000
  I   I249      1.0  0.06248  0.08966  0.70941  1.0000
  I   I250      1.0  0.97926  0.27005  0.38798  1.0000
  I   I251      1.0  0.91695  0.95488  0.89532  1.0000
  I   I252      1.0  0.08990  0.26829  0.53360  1.0000
  I   I253      1.0  0.49243  0.74156  0.57329  1.0000
  I   I254      1.0  0.42962  0.82789  0.96497  1.0000
  I   I255      1.0  0.49414  0.19922  0.53282  1.0000
  I   I256      1.0  0.79375  0.59100  0.13340  1.0000
  I   I257      1.0  0.50791  0.92560  0.62338  1.0000
  I   I258      1.0  0.63619  0.26569  0.35541  1.0000
  I   I259      1.0  0.16471  0.69329  0.71551  1.0000
  I   I260      1.0  0.78567  0.57804  0.80370  1.0000
  I   I261      1.0  0.79957  0.26432  0.33711  1.0000
  I   I262      1.0  0.53592  0.40963  0.29571  1.0000
  I   I263      1.0  0.49781  0.64414  0.04162  1.0000
  I   I264      1.0  0.87789  0.02671  0.91690  1.0000
  I   I265      1.0  0.82500  0.18377  0.63510  1.0000
  I   I266      1.0  0.15448  0.80408  0.93078  1.0000
  I   I267      1.0  0.45770  0.31896  0.56425  1.0000
  I   I268      1.0  0.45419  0.94374  0.42261  1.0000
  I   I269      1.0  0.11592  0.79359  0.79946  1.0000
  I   I270      1.0  0.46181  0.88048  0.45607  1.0000
  I   I271      1.0  0.88195  0.94228  0.52924  1.0000
  I   I272      1.0  0.31217  0.34555  0.08006  1.0000
  I   I273      1.0  0.62402  0.25332  0.98856  1.0000
  I   I274      1.0  0.49585  0.51319  0.10481  1.0000
  I   I275      1.0  0.84512  0.81354  0.06115  1.0000
  I   I276      1.0  0.76761  0.08363  0.97029  1.0000
  I   I277      1.0  0.69749  0.53687  0.69494  1.0000
  I   I278      1.0  0.59939  0.54019  0.59615  1.0000
  I   I279      1.0  0.98975  0.32368  0.63292  1.0000
  I   I280      1.0  0.35653  0.73955  0.24043  1.0000
  I   I281      1.0  0.47791  0.55731  0.17298  1.0000
  I   I282      1.0  0.11867  0.51327  0.21181  1.0000
  I   I283      1.0  0.46112  0.58690  0.83906  1.0000
  I   I284      1.0  0.54509  0.46624  0.48379  1.0000
  I   I285      1.0  0.45902  0.88679  0.64916  1.0000
  I   I286      1.0  0.95756  0.95881  0.03601  1.0000
  I   I287      1.0  0.61065  0.27631  0.59559  1.0000
  I   I288      1.0  0.67340  0.80411  0.60569  1.0000
  I   I289      1.0  0.41127  0.63458  0.83778  1.0000
  I   I290      1.0  0.19514  0.20627  0.28627  1.0000
  I   I291      1.0  0.63729  0.85731  0.47057  1.0000
  I   I292      1.0  0.30281  0.76334  0.25858  1.0000
  I   I293      1.0  0.76510  0.89042  0.40857  1.0000
  I   I294      1.0  0.59374  0.86807  0.89978  1.0000
  I   I295      1.0  0.57411  0.99138  0.55264  1.0000
  I   I296      1.0  0.64843  0.11388  0.63928  1.0000
  I   I297      1.0  0.09591  0.11006  0.66170  1.0000
  I   I298      1.0  0.63332  0.15028  0.46619  1.0000
  I   I299      1.0  0.88029  0.29829  0.40349  1.0000
  I   I300      1.0  0.39821  0.86024  0.79083  1.0000
  I   I301      1.0  0.51910  0.22600  0.51794  1.0000
  I   I302      1.0  0.54190  0.71476  0.41406  1.0000
  I   I303      1.0  0.76783  0.61916  0.05863  1.0000
  I   I304      1.0  0.67792  0.25843  0.44139  1.0000
  I   I305      1.0  0.94193  0.27517  0.45407  1.0000
  I   I306      1.0  0.56971  0.02470  0.64637  1.0000
  I   I307      1.0  0.26776  0.01669  0.41883  1.0000
  I   I308      1.0  0.06990  0.36023  0.67864  1.0000
  I   I309      1.0  0.83226  0.27997  0.53924  1.0000
  I   I310      1.0  0.95732  0.89382  0.28618  1.0000
  I   I311      1.0  0.51737  0.66871  0.10770  1.0000
  I   I312      1.0  0.58255  0.30387  0.65237  1.0000
  I   I313      1.0  0.44929  0.37156  0.60265  1.0000
  I   I314      1.0  0.82509  0.13274  0.62651  1.0000
  I   I315      1.0  0.75478  0.79779  0.27065  1.0000
  I   I316      1.0  0.10073  0.01499  0.88213  1.0000
  I   I317      1.0  0.40952  0.90839  0.41081  1.0000
  I   I318      1.0  0.05586  0.81351  0.66298  1.0000
  I   I319      1.0  0.59463  0.03781  0.93697  1.0000
  I   I320      1.0  0.34889  0.86403  0.97168  1.0000
  I   I321      1.0  0.73939  0.55400  0.29398  1.0000
  I   I322      1.0  0.91201  0.50131  0.60027  1.0000
  I   I323      1.0  0.97568  0.20041  0.72491  1.0000
  I   I324      1.0  0.81908  0.02045  0.93960  1.0000
  I   I325      1.0  0.50829  0.97877  0.65684  1.0000
  I   I326      1.0  0.59712  0.02326  0.56641  1.0000
  I   I327      1.0  0.00867  0.21862  0.64115  1.0000
  I   I328      1.0  0.88183  0.43109  0.39691  1.0000
  I   I329      1.0  0.03981  0.23486  0.98000  1.0000
  I   I330      1.0  0.13242  0.22511  0.32961  1.0000
  I   I331      1.0  0.41546  0.86206  0.63707  1.0000
  I   I332      1.0  0.17127  0.23427  0.39512  1.0000
  I   I333      1.0  0.96680  0.48161  0.59172  1.0000
  I   I334      1.0  0.70790  0.75451  0.55135  1.0000
  I   I335      1.0  0.76958  0.58226  0.70604  1.0000
  I   I336      1.0  0.33833  0.25835  0.87690  1.0000
  I   I337      1.0  0.93716  0.87121  0.19724  1.0000
  I   I338      1.0  0.05388  0.40759  0.80659  1.0000
  I   I339      1.0  0.59235  0.84943  0.47200  1.0000
  I   I340      1.0  0.95954  0.66575  0.57262  1.0000
  I   I341      1.0  0.84423  0.95026  0.73582  1.0000
  I   I342      1.0  0.56434  0.92386  0.84984  1.0000
  I   I343      1.0  0.70615  0.60626  0.31901  1.0000
  I   I344      1.0  0.62084  0.10039  0.57725  1.0000
  I   I345      1.0  0.07995  0.14995  0.58133  1.0000
  I   I346      1.0  0.36912  0.38483  0.71852  1.0000
  I   I347      1.0  0.94025  0.24773  0.33158  1.0000
  I   I348      1.0  0.14462  0.27489  0.59361  1.0000
  I   I349      1.0  0.46338  0.26215  0.53252  1.0000
  I   I350      1.0  0.56594  0.69805  0.51509  1.0000
  I   I351      1.0  0.38561  0.81052  0.95736  1.0000
  I   I352      1.0  0.60914  0.28260  0.46195  1.0000
  I   I353      1.0  0.82896  0.55376  0.04779  1.0000
  I   I354      1.0  0.58320  0.08005  0.60098  1.0000
  I   I355      1.0  0.22925  0.04166  0.31113  1.0000
  I   I356      1.0  0.76239  0.61614  0.88006  1.0000
  I   I357      1.0  0.21428  0.82411  0.99813  1.0000
  I   I358      1.0  0.60079  0.41787  0.50014  1.0000
  I   I359      1.0  0.46677  0.70429  0.04925  1.0000
  I   I360      1.0  0.62330  0.32387  0.57065  1.0000
  I   I361      1.0  0.81314  0.82330  0.15311  1.0000
  I   I362      1.0  0.78605  0.15081  0.56147  1.0000
  I   I363      1.0  0.23451  0.79804  0.92315  1.0000
  I   I364      1.0  0.23204  0.63371  0.44428  1.0000
  I   I365      1.0  0.95459  0.13833  0.80279  1.0000
  I   I366      1.0  0.04146  0.86836  0.75943  1.0000
  I   I367      1.0  0.60035  0.99557  0.97498  1.0000
  I   I368      1.0  0.98241  0.67217  0.48311  1.0000
  I   I369      1.0  0.38505  0.33770  0.20838  1.0000
  I   I370      1.0  0.51716  0.51183  0.21977  1.0000
  I   I371      1.0  0.92407  0.26456  0.77127  1.0000
  I   I372      1.0  0.55695  0.40844  0.54055  1.0000
  I   I373      1.0  0.46510  0.97718  0.63249  1.0000
  I   I374      1.0  0.56177  0.52503  0.57235  1.0000
  I   I375      1.0  0.94097  0.29422  0.71040  1.0000
  I   I376      1.0  0.51648  0.69483  0.01506  1.0000
  I   I377      1.0  0.01311  0.26143  0.07855  1.0000
  I   I378      1.0  0.14100  0.49135  0.30619  1.0000
  I   I379      1.0  0.53978  0.42365  0.86851  1.0000
  I   I380      1.0  0.64566  0.58021  0.70721  1.0000
  I   I381      1.0  0.24359  0.87316  0.07226  1.0000
  I   I382      1.0  0.70212  0.80534  0.71012  1.0000
  I   I383      1.0  0.94640  0.97739  0.91920  1.0000
  I   I384      1.0  0.56751  0.30867  0.75362  1.0000
