data_image0
_chemical_formula_structural       Ti96I384
_chemical_formula_sum              "Ti96 I384"
_cell_length_a       58.0526
_cell_length_b       58.58
_cell_length_c       28.3849
_cell_angle_alpha    88.7757
_cell_angle_beta     88.7757
_cell_angle_gamma    62.1586

_space_group_name_H-M_alt    "P 1"
_space_group_IT_number       1

loop_
  _space_group_symop_operation_xyz
  'x, y, z'

loop_
  _atom_site_type_symbol
  _atom_site_label
  _atom_site_symmetry_multiplicity
  _atom_site_fract_x
  _atom_site_fract_y
  _atom_site_fract_z
  _atom_site_occupancy
  Ti  Ti1       1.0  0.88015  0.76987  0.94810  1.0000
  Ti  Ti2       1.0  0.73566  0.00669  0.07218  1.0000
  Ti  Ti3       1.0  0.79399  0.72188  0.62012  1.0000
  Ti  Ti4       1.0  0.39136  0.24824  0.24817  1.0000
  Ti  Ti5       1.0  0.15638  0.80215  0.12737  1.0000
  Ti  Ti6       1.0  0.14940  0.09000  0.14593  1.0000
  Ti  Ti7       1.0  0.95630  0.87481  0.83023  1.0000
  Ti  Ti8       1.0  0.24343  0.75811  0.43419  1.0000
  Ti  Ti9       1.0  0.72542  0.23723  0.11398  1.0000
  Ti  Ti10      1.0  0.52780  0.03253  0.23735  1.0000
  Ti  Ti11      1.0  0.14888  0.54678  0.71624  1.0000
  Ti  Ti12      1.0  0.61111  0.90371  0.02025  1.0000
  Ti  Ti13      1.0  0.38521  0.22443  0.93049  1.0000
  Ti  Ti14      1.0  0.13062  0.44994  0.18507  1.0000
  Ti  Ti15      1.0  0.26718  0.94932  0.82394  1.0000
  Ti  Ti16      1.0  0.00774  0.99675  0.43324  1.0000
  Ti  Ti17      1.0  0.18536  0.57864  0.10218  1.0000
  Ti  Ti18      1.0  0.95227  0.40968  0.14442  1.0000
  Ti  Ti19      1.0  0.74501  0.66752  0.24249  1.0000
  Ti  Ti20      1.0  0.72926  0.84903  0.31432  1.0000
  Ti  Ti21      1.0  0.20992  0.49703  0.37475  1.0000
  Ti  Ti22      1.0  0.47264  0.92399  0.46894  1.0000
  Ti  Ti23      1.0  0.49112  0.86366  0.95453  1.0000
  Ti  Ti24      1.0  0.56480  0.94449  0.62663  1.0000
  Ti  Ti25      1.0  0.18693  0.24934  0.63680  1.0000
  Ti  Ti26      1.0  0.22514  0.38369  0.98442  1.0000
  Ti  Ti27      1.0  0.44811  0.46581  0.48574  1.0000
  Ti  Ti28      1.0  0.59959  0.64592  0.59247  1.0000
  Ti  Ti29      1.0  0.87507  0.32082  0.48526  1.0000
  Ti  Ti30      1.0  0.79503  0.55360  0.62460  1.0000
  Ti  Ti31      1.0  0.75628  0.40504  0.19397  1.0000
  Ti  Ti32      1.0  0.89098  0.03407  0.16665  1.0000
  Ti  Ti33      1.0  0.12446  0.08843  0.58232  1.0000
  Ti  Ti34      1.0  0.91875  0.74474  0.42723  1.0000
  Ti  Ti35      1.0  0.63059  0.55184  0.91693  1.0000
  Ti  Ti36      1.0  0.03641  0.42804  0.51160  1.0000
  Ti  Ti37      1.0  0.95927  0.28443  0.05369  1.0000
  Ti  Ti38      1.0  0.62368  0.26154  0.42689  1.0000
  Ti  Ti39      1.0  0.37720  0.10574  0.22141  1.0000
  Ti  Ti40      1.0  0.29045  0.64456  0.16198  1.0000
  Ti  Ti41      1.0  0.60499  0.47594  0.48676  1.0000
  Ti  Ti42      1.0  0.39894  0.73361  0.24858  1.0000
  Ti  Ti43      1.0  0.06176  0.94646  0.70317  1.0000
  Ti  Ti44      1.0  0.87149  0.62473  0.06330  1.0000
  Ti  Ti45      1.0  0.84643  0.41191  0.82623  1.0000
  Ti  Ti46      1.0  0.76420  0.07833  0.38675  1.0000
  Ti  Ti47      1.0  0.45489  0.35155  0.74407  1.0000
  Ti  Ti48      1.0  0.44950  0.57147  0.14805  1.0000
  Ti  Ti49      1.0  0.90164  0.71638  0.81755  1.0000
  Ti  Ti50      1.0  0.73099  0.96099  0.95582  1.0000
  Ti  Ti51      1.0  0.72797  0.06850  0.10425  1.0000
  Ti  Ti52      1.0  0.40280  0.27481  0.33227  1.0000
  Ti  Ti53      1.0  0.08633  0.80042  0.17423  1.0000
  Ti  Ti54      1.0  0.10748  0.14971  0.05322  1.0000
  Ti  Ti55      1.0  0.01719  0.80510  0.80114  1.0000
  Ti  Ti56      1.0  0.24491  0.69339  0.43631  1.0000
  Ti  Ti57      1.0  0.72229  0.28704  0.10365  1.0000
  Ti  Ti58      1.0  0.08666  0.95856  0.62751  1.0000
  Ti  Ti59      1.0  0.54569  0.08513  0.14724  1.0000
  Ti  Ti60      1.0  0.66627  0.86224  0.99688  1.0000
  Ti  Ti61      1.0  0.27206  0.99931  0.90249  1.0000
  Ti  Ti62      1.0  0.40159  0.14943  0.90631  1.0000
  Ti  Ti63      1.0  0.15693  0.37667  0.23023  1.0000
  Ti  Ti64      1.0  0.94651  0.48385  0.14734  1.0000
  Ti  Ti65      1.0  0.01213  0.94927  0.42328  1.0000
  Ti  Ti66      1.0  0.29532  0.53080  0.72689  1.0000
  Ti  Ti67      1.0  0.71464  0.65975  0.37591  1.0000
  Ti  Ti68      1.0  0.67348  0.90474  0.25422  1.0000
  Ti  Ti69      1.0  0.26457  0.42352  0.31894  1.0000
  Ti  Ti70      1.0  0.51039  0.94693  0.56305  1.0000
  Ti  Ti71      1.0  0.43631  0.89758  0.87474  1.0000
  Ti  Ti72      1.0  0.41428  0.77198  0.74649  1.0000
  Ti  Ti73      1.0  0.46266  0.48454  0.56548  1.0000
  Ti  Ti74      1.0  0.16645  0.26373  0.51733  1.0000
  Ti  Ti75      1.0  0.24844  0.34237  0.88884  1.0000
  Ti  Ti76      1.0  0.75734  0.58875  0.74361  1.0000
  Ti  Ti77      1.0  0.54212  0.70187  0.53713  1.0000
  Ti  Ti78      1.0  0.88883  0.38841  0.48070  1.0000
  Ti  Ti79      1.0  0.15884  0.03521  0.63484  1.0000
  Ti  Ti80      1.0  0.78877  0.38355  0.05910  1.0000
  Ti  Ti81      1.0  0.95629  0.05726  0.14278  1.0000
  Ti  Ti82      1.0  0.87491  0.80029  0.38419  1.0000
  Ti  Ti83      1.0  0.62285  0.51556  0.86182  1.0000
  Ti  Ti84      1.0  0.09203  0.41062  0.57663  1.0000
  Ti  Ti85      1.0  0.94986  0.21908  0.96918  1.0000
  Ti  Ti86      1.0  0.56021  0.32494  0.44434  1.0000
  Ti  Ti87      1.0  0.37163  0.11956  0.37822  1.0000
  Ti  Ti88      1.0  0.25067  0.63019  0.07419  1.0000
  Ti  Ti89      1.0  0.60444  0.48408  0.38231  1.0000
  Ti  Ti90      1.0  0.37131  0.72705  0.12546  1.0000
  Ti  Ti91      1.0  0.88542  0.36177  0.77045  1.0000
  Ti  Ti92      1.0  0.92864  0.07497  0.88686  1.0000
  Ti  Ti93      1.0  0.93391  0.62331  0.10565  1.0000
  Ti  Ti94      1.0  0.43726  0.53209  0.05747  1.0000
  Ti  Ti95      1.0  0.68872  0.08971  0.35316  1.0000
  Ti  Ti96      1.0  0.45854  0.38377  0.87976  1.0000
  I   I1        1.0  0.74707  0.91443  0.98250  1.0000
  I   I2        1.0  0.69095  0.04377  0.11405  1.0000
  I   I3        1.0  0.92649  0.76664  0.96350  1.0000
  I   I4        1.0  0.10286  0.75214  0.14772  1.0000
  I   I5        1.0  0.13375  0.05371  0.15038  1.0000
  I   I6        1.0  0.06597  0.14816  0.08977  1.0000
  I   I7        1.0  0.21634  0.67216  0.40519  1.0000
  I   I8        1.0  0.20440  0.74738  0.39946  1.0000
  I   I9        1.0  0.73580  0.24373  0.20075  1.0000
  I   I10       1.0  0.56626  0.04819  0.21853  1.0000
  I   I11       1.0  0.10243  0.55471  0.73731  1.0000
  I   I12       1.0  0.19113  0.75380  0.10796  1.0000
  I   I13       1.0  0.41323  0.17405  0.98560  1.0000
  I   I14       1.0  0.19079  0.34158  0.17777  1.0000
  I   I15       1.0  0.22197  0.95121  0.79879  1.0000
  I   I16       1.0  0.98741  0.97571  0.50155  1.0000
  I   I17       1.0  0.32809  0.52931  0.66578  1.0000
  I   I18       1.0  0.97869  0.50017  0.09990  1.0000
  I   I19       1.0  0.69122  0.91283  0.16962  1.0000
  I   I20       1.0  0.23044  0.50955  0.45288  1.0000
  I   I21       1.0  0.28154  0.38094  0.36499  1.0000
  I   I22       1.0  0.47131  0.88106  0.80649  1.0000
  I   I23       1.0  0.53784  0.84042  0.92106  1.0000
  I   I24       1.0  0.51278  0.99010  0.60667  1.0000
  I   I25       1.0  0.14819  0.23881  0.57717  1.0000
  I   I26       1.0  0.19529  0.43210  0.01550  1.0000
  I   I27       1.0  0.40512  0.47698  0.43586  1.0000
  I   I28       1.0  0.57400  0.64509  0.49934  1.0000
  I   I29       1.0  0.83676  0.32556  0.43940  1.0000
  I   I30       1.0  0.77552  0.52954  0.57999  1.0000
  I   I31       1.0  0.76581  0.43035  0.02516  1.0000
  I   I32       1.0  0.00235  0.02489  0.10724  1.0000
  I   I33       1.0  0.17867  0.05475  0.55401  1.0000
  I   I34       1.0  0.63790  0.59009  0.87683  1.0000
  I   I35       1.0  0.03991  0.42393  0.60832  1.0000
  I   I36       1.0  0.86993  0.84699  0.38044  1.0000
  I   I37       1.0  0.94604  0.26957  0.95758  1.0000
  I   I38       1.0  0.39827  0.12303  0.30125  1.0000
  I   I39       1.0  0.98834  0.17601  0.99822  1.0000
  I   I40       1.0  0.56432  0.47746  0.42588  1.0000
  I   I41       1.0  0.37713  0.78434  0.26019  1.0000
  I   I42       1.0  0.27381  0.60697  0.99998  1.0000
  I   I43       1.0  0.04768  0.94654  0.60538  1.0000
  I   I44       1.0  0.93064  0.60467  0.19116  1.0000
  I   I45       1.0  0.83759  0.44155  0.75148  1.0000
  I   I46       1.0  0.80894  0.04015  0.40499  1.0000
  I   I47       1.0  0.41594  0.34466  0.72382  1.0000
  I   I48       1.0  0.45593  0.51686  0.16476  1.0000
  I   I49       1.0  0.86748  0.76504  0.03321  1.0000
  I   I50       1.0  0.76853  0.96954  0.01307  1.0000
  I   I51       1.0  0.71734  0.11197  0.05393  1.0000
  I   I52       1.0  0.38729  0.21635  0.31561  1.0000
  I   I53       1.0  0.12728  0.79986  0.21541  1.0000
  I   I54       1.0  0.11772  0.16247  0.96734  1.0000
  I   I55       1.0  0.94097  0.90610  0.90388  1.0000
  I   I56       1.0  0.24737  0.77427  0.34058  1.0000
  I   I57       1.0  0.67730  0.28260  0.13545  1.0000
  I   I58       1.0  0.49862  0.08032  0.17308  1.0000
  I   I59       1.0  0.48429  0.04784  0.28117  1.0000
  I   I60       1.0  0.65499  0.82524  0.97387  1.0000
  I   I61       1.0  0.44562  0.11525  0.87263  1.0000
  I   I62       1.0  0.40804  0.11481  0.97434  1.0000
  I   I63       1.0  0.12518  0.42468  0.27486  1.0000
  I   I64       1.0  0.98145  0.03538  0.49064  1.0000
  I   I65       1.0  0.04452  0.94882  0.34904  1.0000
  I   I66       1.0  0.29908  0.48524  0.74623  1.0000
  I   I67       1.0  0.70155  0.69787  0.44003  1.0000
  I   I68       1.0  0.74962  0.79970  0.30041  1.0000
  I   I69       1.0  0.26519  0.47130  0.35179  1.0000
  I   I70       1.0  0.52564  0.90270  0.50210  1.0000
  I   I71       1.0  0.42741  0.88919  0.96477  1.0000
  I   I72       1.0  0.44385  0.74689  0.82153  1.0000
  I   I73       1.0  0.45392  0.51949  0.49262  1.0000
  I   I74       1.0  0.26810  0.31102  0.96407  1.0000
  I   I75       1.0  0.22107  0.39298  0.87390  1.0000
  I   I76       1.0  0.62661  0.63687  0.67039  1.0000
  I   I77       1.0  0.59028  0.69228  0.54428  1.0000
  I   I78       1.0  0.88634  0.42033  0.40881  1.0000
  I   I79       1.0  0.19783  0.03684  0.68075  1.0000
  I   I80       1.0  0.72020  0.39149  0.21466  1.0000
  I   I81       1.0  0.90222  0.99728  0.22950  1.0000
  I   I82       1.0  0.92082  0.77219  0.33831  1.0000
  I   I83       1.0  0.58535  0.57700  0.95385  1.0000
  I   I84       1.0  0.12246  0.39652  0.50413  1.0000
  I   I85       1.0  0.90526  0.22398  0.00235  1.0000
  I   I86       1.0  0.54085  0.31485  0.51873  1.0000
  I   I87       1.0  0.41296  0.11260  0.17636  1.0000
  I   I88       1.0  0.27889  0.66672  0.07713  1.0000
  I   I89       1.0  0.58230  0.51654  0.31441  1.0000
  I   I90       1.0  0.40379  0.72316  0.33666  1.0000
  I   I91       1.0  0.91226  0.39048  0.76721  1.0000
  I   I92       1.0  0.91305  0.11379  0.94003  1.0000
  I   I93       1.0  0.96290  0.58112  0.06610  1.0000
  I   I94       1.0  0.40526  0.58497  0.18868  1.0000
  I   I95       1.0  0.66360  0.08140  0.42377  1.0000
  I   I96       1.0  0.42781  0.38375  0.95227  1.0000
  I   I97       1.0  0.74730  0.74829  0.58673  1.0000
  I   I98       1.0  0.86555  0.73417  0.90776  1.0000
  I   I99       1.0  0.74972  0.03982  0.01585  1.0000
  I   I100      1.0  0.42156  0.20716  0.20428  1.0000
  I   I101      1.0  0.35438  0.29423  0.30622  1.0000
  I   I102      1.0  0.10991  0.80609  0.08801  1.0000
  I   I103      1.0  0.00657  0.76755  0.78358  1.0000
  I   I104      1.0  0.99774  0.88378  0.82414  1.0000
  I   I105      1.0  0.70302  0.30761  0.02436  1.0000
  I   I106      1.0  0.56779  0.89954  0.01854  1.0000
  I   I107      1.0  0.53746  0.99743  0.17844  1.0000
  I   I108      1.0  0.70795  0.83809  0.05070  1.0000
  I   I109      1.0  0.31104  0.94904  0.86349  1.0000
  I   I110      1.0  0.36504  0.14204  0.87673  1.0000
  I   I111      1.0  0.13655  0.40869  0.13770  1.0000
  I   I112      1.0  0.94137  0.45392  0.07724  1.0000
  I   I113      1.0  0.05599  0.97870  0.45780  1.0000
  I   I114      1.0  0.19382  0.54849  0.03088  1.0000
  I   I115      1.0  0.75527  0.62029  0.25772  1.0000
  I   I116      1.0  0.67424  0.65582  0.37784  1.0000
  I   I117      1.0  0.62672  0.91190  0.22986  1.0000
  I   I118      1.0  0.47672  0.97630  0.49225  1.0000
  I   I119      1.0  0.43176  0.95627  0.42844  1.0000
  I   I120      1.0  0.36565  0.77583  0.73511  1.0000
  I   I121      1.0  0.47922  0.46127  0.41113  1.0000
  I   I122      1.0  0.21690  0.25051  0.51440  1.0000
  I   I123      1.0  0.27376  0.36978  0.96841  1.0000
  I   I124      1.0  0.74595  0.60052  0.64171  1.0000
  I   I125      1.0  0.55102  0.72288  0.45898  1.0000
  I   I126      1.0  0.88256  0.41934  0.55352  1.0000
  I   I127      1.0  0.07493  0.11640  0.59119  1.0000
  I   I128      1.0  0.72349  0.45228  0.16536  1.0000
  I   I129      1.0  0.95585  0.07296  0.22897  1.0000
  I   I130      1.0  0.06140  0.37999  0.49123  1.0000
  I   I131      1.0  0.91525  0.79478  0.46660  1.0000
  I   I132      1.0  0.64258  0.48182  0.79062  1.0000
  I   I133      1.0  0.39628  0.05408  0.20967  1.0000
  I   I134      1.0  0.57271  0.27153  0.41561  1.0000
  I   I135      1.0  0.64069  0.21264  0.44135  1.0000
  I   I136      1.0  0.44204  0.73944  0.25665  1.0000
  I   I137      1.0  0.23652  0.65864  0.16859  1.0000
  I   I138      1.0  0.63250  0.49025  0.53744  1.0000
  I   I139      1.0  0.87496  0.36802  0.87768  1.0000
  I   I140      1.0  0.95295  0.03640  0.94541  1.0000
  I   I141      1.0  0.87595  0.65366  0.13979  1.0000
  I   I142      1.0  0.47379  0.54977  0.05611  1.0000
  I   I143      1.0  0.77818  0.11462  0.37623  1.0000
  I   I144      1.0  0.48618  0.30398  0.73316  1.0000
  I   I145      1.0  0.90470  0.75528  0.85721  1.0000
  I   I146      1.0  0.74006  0.96778  0.13187  1.0000
  I   I147      1.0  0.82772  0.70082  0.55092  1.0000
  I   I148      1.0  0.39408  0.27022  0.42355  1.0000
  I   I149      1.0  0.04250  0.83705  0.15103  1.0000
  I   I150      1.0  0.16215  0.07961  0.24032  1.0000
  I   I151      1.0  0.03768  0.80713  0.88010  1.0000
  I   I152      1.0  0.24164  0.72595  0.50708  1.0000
  I   I153      1.0  0.77822  0.20248  0.10779  1.0000
  I   I154      1.0  0.10161  0.96616  0.70597  1.0000
  I   I155      1.0  0.15235  0.58486  0.75165  1.0000
  I   I156      1.0  0.59016  0.94965  0.06672  1.0000
  I   I157      1.0  0.26371  0.01854  0.98629  1.0000
  I   I158      1.0  0.11529  0.36954  0.22127  1.0000
  I   I159      1.0  0.22627  0.03493  0.87741  1.0000
  I   I160      1.0  0.90478  0.52474  0.16433  1.0000
  I   I161      1.0  0.14877  0.56940  0.13410  1.0000
  I   I162      1.0  0.98060  0.37931  0.07265  1.0000
  I   I163      1.0  0.69473  0.69608  0.29715  1.0000
  I   I164      1.0  0.75933  0.83731  0.38077  1.0000
  I   I165      1.0  0.19549  0.51419  0.29358  1.0000
  I   I166      1.0  0.46489  0.96225  0.60241  1.0000
  I   I167      1.0  0.50191  0.85193  0.04081  1.0000
  I   I168      1.0  0.59749  0.89515  0.63154  1.0000
  I   I169      1.0  0.22681  0.25721  0.67352  1.0000
  I   I170      1.0  0.21274  0.20100  0.60860  1.0000
  I   I171      1.0  0.49050  0.43686  0.53459  1.0000
  I   I172      1.0  0.76586  0.63006  0.76105  1.0000
  I   I173      1.0  0.86487  0.29712  0.55202  1.0000
  I   I174      1.0  0.84153  0.51747  0.62962  1.0000
  I   I175      1.0  0.84140  0.36257  0.05230  1.0000
  I   I176      1.0  0.94860  0.01248  0.12624  1.0000
  I   I177      1.0  0.14520  0.11531  0.62145  1.0000
  I   I178      1.0  0.90210  0.74219  0.51294  1.0000
  I   I179      1.0  0.66462  0.55749  0.97291  1.0000
  I   I180      1.0  0.03339  0.43456  0.41662  1.0000
  I   I181      1.0  0.92790  0.33363  0.07002  1.0000
  I   I182      1.0  0.51363  0.35387  0.41271  1.0000
  I   I183      1.0  0.33767  0.12559  0.16483  1.0000
  I   I184      1.0  0.28810  0.66681  0.24168  1.0000
  I   I185      1.0  0.64637  0.42716  0.47653  1.0000
  I   I186      1.0  0.32759  0.72349  0.11447  1.0000
  I   I187      1.0  0.88309  0.08279  0.85801  1.0000
  I   I188      1.0  0.84114  0.61126  0.11257  1.0000
  I   I189      1.0  0.83461  0.37184  0.78314  1.0000
  I   I190      1.0  0.73190  0.04094  0.38184  1.0000
  I   I191      1.0  0.44337  0.43541  0.88566  1.0000
  I   I192      1.0  0.46408  0.48508  0.03546  1.0000
  I   I193      1.0  0.86380  0.72235  0.76119  1.0000
  I   I194      1.0  0.74602  0.98420  0.89248  1.0000
  I   I195      1.0  0.80368  0.75739  0.64738  1.0000
  I   I196      1.0  0.40643  0.28500  0.23092  1.0000
  I   I197      1.0  0.10505  0.90959  0.66772  1.0000
  I   I198      1.0  0.08280  0.19995  0.07519  1.0000
  I   I199      1.0  0.91655  0.90678  0.78909  1.0000
  I   I200      1.0  0.27043  0.65531  0.49286  1.0000
  I   I201      1.0  0.71770  0.19537  0.10760  1.0000
  I   I202      1.0  0.56781  0.11729  0.16023  1.0000
  I   I203      1.0  0.18076  0.50831  0.76764  1.0000
  I   I204      1.0  0.69596  0.85433  0.92448  1.0000
  I   I205      1.0  0.41245  0.24590  0.96573  1.0000
  I   I206      1.0  0.17921  0.41050  0.20821  1.0000
  I   I207      1.0  0.30062  0.01874  0.86569  1.0000
  I   I208      1.0  0.00910  0.02933  0.36847  1.0000
  I   I209      1.0  0.21554  0.55018  0.17077  1.0000
  I   I210      1.0  0.94170  0.37523  0.18107  1.0000
  I   I211      1.0  0.75459  0.67519  0.33390  1.0000
  I   I212      1.0  0.75250  0.86612  0.24832  1.0000
  I   I213      1.0  0.21146  0.44955  0.36754  1.0000
  I   I214      1.0  0.46730  0.89762  0.53661  1.0000
  I   I215      1.0  0.40171  0.94766  0.84829  1.0000
  I   I216      1.0  0.59628  0.96086  0.58868  1.0000
  I   I217      1.0  0.16268  0.29566  0.60487  1.0000
  I   I218      1.0  0.22182  0.36630  0.07162  1.0000
  I   I219      1.0  0.42101  0.47111  0.57776  1.0000
  I   I220      1.0  0.50034  0.69576  0.51008  1.0000
  I   I221      1.0  0.84820  0.37376  0.51766  1.0000
  I   I222      1.0  0.80405  0.58156  0.56372  1.0000
  I   I223      1.0  0.80531  0.36742  0.16061  1.0000
  I   I224      1.0  0.87055  0.02921  0.09047  1.0000
  I   I225      1.0  0.11688  0.10527  0.49606  1.0000
  I   I226      1.0  0.88762  0.73102  0.39259  1.0000
  I   I227      1.0  0.66806  0.52046  0.83486  1.0000
  I   I228      1.0  0.11305  0.43046  0.63686  1.0000
  I   I229      1.0  0.99945  0.27653  0.99342  1.0000
  I   I230      1.0  0.62446  0.28147  0.50770  1.0000
  I   I231      1.0  0.34062  0.16409  0.40430  1.0000
  I   I232      1.0  0.33800  0.63171  0.15680  1.0000
  I   I233      1.0  0.57563  0.47609  0.55371  1.0000
  I   I234      1.0  0.39714  0.68987  0.05960  1.0000
  I   I235      1.0  0.03580  0.91506  0.72154  1.0000
  I   I236      1.0  0.83528  0.65774  0.01349  1.0000
  I   I237      1.0  0.85291  0.44428  0.87694  1.0000
  I   I238      1.0  0.72886  0.09694  0.30803  1.0000
  I   I239      1.0  0.42027  0.38612  0.82150  1.0000
  I   I240      1.0  0.48076  0.55342  0.22255  1.0000
  I   I241      1.0  0.84876  0.81659  0.91784  1.0000
  I   I242      1.0  0.77133  0.00410  0.13408  1.0000
  I   I243      1.0  0.79227  0.69563  0.68943  1.0000
  I   I244      1.0  0.34917  0.25647  0.20226  1.0000
  I   I245      1.0  0.15337  0.83257  0.05202  1.0000
  I   I246      1.0  0.19697  0.06439  0.11909  1.0000
  I   I247      1.0  0.98179  0.84183  0.74874  1.0000
  I   I248      1.0  0.21401  0.79535  0.49049  1.0000
  I   I249      1.0  0.73433  0.23917  0.02049  1.0000
  I   I250      1.0  0.55430  0.00829  0.30593  1.0000
  I   I251      1.0  0.15259  0.54026  0.62277  1.0000
  I   I252      1.0  0.61799  0.89965  0.92553  1.0000
  I   I253      1.0  0.34098  0.23618  0.97386  1.0000
  I   I254      1.0  0.15816  0.47528  0.16266  1.0000
  I   I255      1.0  0.24191  0.97074  0.91496  1.0000
  I   I256      1.0  0.98360  0.92708  0.40446  1.0000
  I   I257      1.0  0.15166  0.61989  0.05451  1.0000
  I   I258      1.0  0.97288  0.48903  0.21964  1.0000
  I   I259      1.0  0.71590  0.67990  0.16682  1.0000
  I   I260      1.0  0.70765  0.90366  0.32252  1.0000
  I   I261      1.0  0.17109  0.51349  0.43824  1.0000
  I   I262      1.0  0.48500  0.89220  0.40142  1.0000
  I   I263      1.0  0.47728  0.91313  0.93721  1.0000
  I   I264      1.0  0.57298  0.96149  0.70534  1.0000
  I   I265      1.0  0.16282  0.25021  0.71058  1.0000
  I   I266      1.0  0.29409  0.32674  0.85320  1.0000
  I   I267      1.0  0.45034  0.41808  0.48349  1.0000
  I   I268      1.0  0.55036  0.67668  0.63545  1.0000
  I   I269      1.0  0.90957  0.27730  0.44139  1.0000
  I   I270      1.0  0.80819  0.57742  0.70633  1.0000
  I   I271      1.0  0.78027  0.39790  0.27406  1.0000
  I   I272      1.0  0.84922  0.06764  0.21477  1.0000
  I   I273      1.0  0.12393  0.04285  0.55075  1.0000
  I   I274      1.0  0.84697  0.80787  0.46214  1.0000
  I   I275      1.0  0.59473  0.55671  0.81075  1.0000
  I   I276      1.0  0.06319  0.45653  0.49682  1.0000
  I   I277      1.0  0.97638  0.26375  0.13858  1.0000
  I   I278      1.0  0.67063  0.25870  0.40990  1.0000
  I   I279      1.0  0.36148  0.08973  0.43157  1.0000
  I   I280      1.0  0.21022  0.66922  0.04208  1.0000
  I   I281      1.0  0.64904  0.48610  0.39813  1.0000
  I   I282      1.0  0.41054  0.68976  0.19189  1.0000
  I   I283      1.0  0.01910  0.99679  0.72038  1.0000
  I   I284      1.0  0.88097  0.59099  0.99862  1.0000
  I   I285      1.0  0.80372  0.42247  0.87467  1.0000
  I   I286      1.0  0.73395  0.09917  0.46201  1.0000
  I   I287      1.0  0.50033  0.35491  0.92355  1.0000
  I   I288      1.0  0.44657  0.61301  0.11806  1.0000
  I   I289      1.0  0.93234  0.72136  0.75325  1.0000
  I   I290      1.0  0.69515  0.00489  0.01023  1.0000
  I   I291      1.0  0.76569  0.07350  0.14797  1.0000
  I   I292      1.0  0.42071  0.30884  0.34330  1.0000
  I   I293      1.0  0.06774  0.78971  0.25195  1.0000
  I   I294      1.0  0.14312  0.09897  0.03383  1.0000
  I   I295      1.0  0.96199  0.82581  0.85427  1.0000
  I   I296      1.0  0.29375  0.74799  0.44631  1.0000
  I   I297      1.0  0.77308  0.26626  0.09008  1.0000
  I   I298      1.0  0.07093  0.00439  0.58806  1.0000
  I   I299      1.0  0.51018  0.12747  0.11031  1.0000
  I   I300      1.0  0.66506  0.90998  0.00993  1.0000
  I   I301      1.0  0.28012  0.96318  0.74515  1.0000
  I   I302      1.0  0.36389  0.24920  0.85353  1.0000
  I   I303      1.0  0.08717  0.48206  0.14360  1.0000
  I   I304      1.0  0.99333  0.39668  0.19830  1.0000
  I   I305      1.0  0.96793  0.99327  0.38123  1.0000
  I   I306      1.0  0.25091  0.55956  0.69005  1.0000
  I   I307      1.0  0.79112  0.65996  0.20796  1.0000
  I   I308      1.0  0.68136  0.85624  0.27058  1.0000
  I   I309      1.0  0.25218  0.40102  0.24737  1.0000
  I   I310      1.0  0.53417  0.91990  0.64576  1.0000
  I   I311      1.0  0.48541  0.82249  0.91907  1.0000
  I   I312      1.0  0.40317  0.81897  0.74727  1.0000
  I   I313      1.0  0.50757  0.48797  0.56681  1.0000
  I   I314      1.0  0.13840  0.30888  0.48004  1.0000
  I   I315      1.0  0.19111  0.36680  0.94773  1.0000
  I   I316      1.0  0.77185  0.54045  0.75959  1.0000
  I   I317      1.0  0.51767  0.74903  0.57249  1.0000
  I   I318      1.0  0.89065  0.35430  0.41145  1.0000
  I   I319      1.0  0.12466  0.04794  0.70094  1.0000
  I   I320      1.0  0.74131  0.39190  0.10625  1.0000
  I   I321      1.0  0.90032  0.07642  0.13246  1.0000
  I   I322      1.0  0.84529  0.79643  0.32137  1.0000
  I   I323      1.0  0.58511  0.50796  0.90859  1.0000
  I   I324      1.0  0.10337  0.36446  0.60612  1.0000
  I   I325      1.0  0.94153  0.20558  0.88521  1.0000
  I   I326      1.0  0.61035  0.30771  0.37329  1.0000
  I   I327      1.0  0.40605  0.12783  0.44234  1.0000
  I   I328      1.0  0.22805  0.59431  0.06987  1.0000
  I   I329      1.0  0.57566  0.52556  0.44829  1.0000
  I   I330      1.0  0.34489  0.75328  0.20656  1.0000
  I   I331      1.0  0.87995  0.37120  0.67926  1.0000
  I   I332      1.0  0.07659  0.92649  0.78881  1.0000
  I   I333      1.0  0.95955  0.64658  0.09800  1.0000
  I   I334      1.0  0.40216  0.56487  0.99412  1.0000
  I   I335      1.0  0.65194  0.09674  0.28985  1.0000
  I   I336      1.0  0.46837  0.36477  0.66695  1.0000
  I   I337      1.0  0.92867  0.66996  0.84345  1.0000
  I   I338      1.0  0.68600  0.97442  0.92729  1.0000
  I   I339      1.0  0.69518  0.09696  0.17182  1.0000
  I   I340      1.0  0.44623  0.23056  0.30364  1.0000
  I   I341      1.0  0.18237  0.81611  0.19092  1.0000
  I   I342      1.0  0.13715  0.14162  0.13799  1.0000
  I   I343      1.0  0.05315  0.78925  0.73321  1.0000
  I   I344      1.0  0.28021  0.68405  0.37665  1.0000
  I   I345      1.0  0.72774  0.32192  0.15661  1.0000
  I   I346      1.0  0.13183  0.93372  0.57152  1.0000
  I   I347      1.0  0.58364  0.06123  0.09168  1.0000
  I   I348      1.0  0.63009  0.87300  0.09103  1.0000
  I   I349      1.0  0.28285  0.89934  0.82538  1.0000
  I   I350      1.0  0.41184  0.18714  0.86024  1.0000
  I   I351      1.0  0.17321  0.36396  0.31987  1.0000
  I   I352      1.0  0.91970  0.45255  0.20104  1.0000
  I   I353      1.0  0.04535  0.90922  0.47120  1.0000
  I   I354      1.0  0.30227  0.55617  0.79517  1.0000
  I   I355      1.0  0.74748  0.61367  0.40723  1.0000
  I   I356      1.0  0.64656  0.95387  0.27376  1.0000
  I   I357      1.0  0.30828  0.40815  0.26850  1.0000
  I   I358      1.0  0.55420  0.94948  0.51420  1.0000
  I   I359      1.0  0.40515  0.87989  0.85296  1.0000
  I   I360      1.0  0.43928  0.75147  0.66756  1.0000
  I   I361      1.0  0.44124  0.51306  0.64017  1.0000
  I   I362      1.0  0.15480  0.24120  0.44483  1.0000
  I   I363      1.0  0.22569  0.32261  0.83499  1.0000
  I   I364      1.0  0.71273  0.60344  0.76948  1.0000
  I   I365      1.0  0.61995  0.59827  0.57271  1.0000
  I   I366      1.0  0.93171  0.35005  0.51412  1.0000
  I   I367      1.0  0.17759  0.98421  0.63121  1.0000
  I   I368      1.0  0.78542  0.36169  0.97800  1.0000
  I   I369      1.0  0.94913  0.10175  0.10459  1.0000
  I   I370      1.0  0.97038  0.72179  0.42669  1.0000
  I   I371      1.0  0.64694  0.49996  0.94649  1.0000
  I   I372      1.0  0.99072  0.46989  0.52042  1.0000
  I   I373      1.0  0.95069  0.23759  0.06458  1.0000
  I   I374      1.0  0.57472  0.35825  0.48232  1.0000
  I   I375      1.0  0.34805  0.10185  0.29929  1.0000
  I   I376      1.0  0.28830  0.59446  0.13539  1.0000
  I   I377      1.0  0.63371  0.44015  0.34308  1.0000
  I   I378      1.0  0.37088  0.76790  0.07672  1.0000
  I   I379      1.0  0.92870  0.31631  0.78048  1.0000
  I   I380      1.0  0.96594  0.06378  0.82718  1.0000
  I   I381      1.0  0.90878  0.64244  0.02561  1.0000
  I   I382      1.0  0.39789  0.52437  0.08918  1.0000
  I   I383      1.0  0.67398  0.13911  0.35773  1.0000
  I   I384      1.0  0.48854  0.36856  0.79231  1.0000
