data_image0
_chemical_formula_structural       Ti96I384
_chemical_formula_sum              "Ti96 I384"
_cell_length_a       47.1533
_cell_length_b       46.7021
_cell_length_c       23.0042
_cell_angle_alpha    88.7757
_cell_angle_beta     88.7757
_cell_angle_gamma    62.1586

_space_group_name_H-M_alt    "P 1"
_space_group_IT_number       1

loop_
  _space_group_symop_operation_xyz
  'x, y, z'

loop_
  _atom_site_type_symbol
  _atom_site_label
  _atom_site_symmetry_multiplicity
  _atom_site_fract_x
  _atom_site_fract_y
  _atom_site_fract_z
  _atom_site_occupancy
  Ti  Ti1       1.0  0.40993  0.97069  0.53941  1.0000
  Ti  Ti2       1.0  0.22359  0.99521  0.99562  1.0000
  Ti  Ti3       1.0  0.32506  0.97307  0.23749  1.0000
  Ti  Ti4       1.0  0.20603  0.22836  0.27404  1.0000
  Ti  Ti5       1.0  0.18721  0.25480  0.73065  1.0000
  Ti  Ti6       1.0  0.18346  0.24541  0.05319  1.0000
  Ti  Ti7       1.0  0.02996  0.60521  0.44908  1.0000
  Ti  Ti8       1.0  0.89545  0.78316  0.73417  1.0000
  Ti  Ti9       1.0  0.96833  0.72164  0.18720  1.0000
  Ti  Ti10      1.0  0.02784  0.90543  0.26551  1.0000
  Ti  Ti11      1.0  0.16894  0.87073  0.58428  1.0000
  Ti  Ti12      1.0  0.20463  0.76496  0.84018  1.0000
  Ti  Ti13      1.0  0.36445  0.31492  0.14606  1.0000
  Ti  Ti14      1.0  0.46990  0.10646  0.56537  1.0000
  Ti  Ti15      1.0  0.40619  0.18567  0.96355  1.0000
  Ti  Ti16      1.0  0.32289  0.50768  0.04662  1.0000
  Ti  Ti17      1.0  0.18047  0.50330  0.24321  1.0000
  Ti  Ti18      1.0  0.44991  0.47019  0.77809  1.0000
  Ti  Ti19      1.0  0.33831  0.77506  0.20466  1.0000
  Ti  Ti20      1.0  0.41334  0.65865  0.85970  1.0000
  Ti  Ti21      1.0  0.23949  0.72438  0.34912  1.0000
  Ti  Ti22      1.0  0.30903  0.89215  0.74951  1.0000
  Ti  Ti23      1.0  0.46616  0.85182  0.07030  1.0000
  Ti  Ti24      1.0  0.44258  0.79273  0.58256  1.0000
  Ti  Ti25      1.0  0.61801  0.20185  0.50655  1.0000
  Ti  Ti26      1.0  0.60961  0.21438  0.83424  1.0000
  Ti  Ti27      1.0  0.61027  0.20416  0.17659  1.0000
  Ti  Ti28      1.0  0.62845  0.39050  0.17789  1.0000
  Ti  Ti29      1.0  0.69076  0.44666  0.53463  1.0000
  Ti  Ti30      1.0  0.68713  0.39969  0.87839  1.0000
  Ti  Ti31      1.0  0.62602  0.61254  0.29110  1.0000
  Ti  Ti32      1.0  0.77368  0.56448  0.67293  1.0000
  Ti  Ti33      1.0  0.70481  0.56947  0.98481  1.0000
  Ti  Ti34      1.0  0.80646  0.68716  0.06095  1.0000
  Ti  Ti35      1.0  0.77523  0.79345  0.33737  1.0000
  Ti  Ti36      1.0  0.75169  0.74700  0.77486  1.0000
  Ti  Ti37      1.0  0.81944  0.13577  0.04181  1.0000
  Ti  Ti38      1.0  0.82676  0.13689  0.38410  1.0000
  Ti  Ti39      1.0  0.81550  0.15760  0.71502  1.0000
  Ti  Ti40      1.0  0.93028  0.34830  0.07402  1.0000
  Ti  Ti41      1.0  0.98584  0.27161  0.43331  1.0000
  Ti  Ti42      1.0  0.08251  0.07966  0.53834  1.0000
  Ti  Ti43      1.0  0.92531  0.47647  0.28980  1.0000
  Ti  Ti44      1.0  0.96544  0.45995  0.59993  1.0000
  Ti  Ti45      1.0  0.00200  0.50011  0.92181  1.0000
  Ti  Ti46      1.0  0.77446  0.98667  0.30177  1.0000
  Ti  Ti47      1.0  0.76315  0.99954  0.63318  1.0000
  Ti  Ti48      1.0  0.66881  0.03308  0.96962  1.0000
  Ti  Ti49      1.0  0.34454  0.99908  0.42135  1.0000
  Ti  Ti50      1.0  0.18047  0.06094  0.86571  1.0000
  Ti  Ti51      1.0  0.22746  0.99024  0.19488  1.0000
  Ti  Ti52      1.0  0.14182  0.22118  0.21424  1.0000
  Ti  Ti53      1.0  0.11910  0.26928  0.57003  1.0000
  Ti  Ti54      1.0  0.12438  0.26265  0.88259  1.0000
  Ti  Ti55      1.0  0.98094  0.65901  0.32309  1.0000
  Ti  Ti56      1.0  0.95865  0.82388  0.77430  1.0000
  Ti  Ti57      1.0  0.90000  0.79047  0.09480  1.0000
  Ti  Ti58      1.0  0.97249  0.97260  0.18006  1.0000
  Ti  Ti59      1.0  0.97589  0.87524  0.36575  1.0000
  Ti  Ti60      1.0  0.18037  0.82662  0.73196  1.0000
  Ti  Ti61      1.0  0.34802  0.29176  0.95701  1.0000
  Ti  Ti62      1.0  0.35166  0.34929  0.29865  1.0000
  Ti  Ti63      1.0  0.43796  0.17465  0.67174  1.0000
  Ti  Ti64      1.0  0.37589  0.46719  0.87823  1.0000
  Ti  Ti65      1.0  0.22106  0.49700  0.07049  1.0000
  Ti  Ti66      1.0  0.13220  0.45190  0.29274  1.0000
  Ti  Ti67      1.0  0.24432  0.78914  0.20830  1.0000
  Ti  Ti68      1.0  0.46112  0.59155  0.94523  1.0000
  Ti  Ti69      1.0  0.23031  0.65575  0.40967  1.0000
  Ti  Ti70      1.0  0.34185  0.82785  0.60129  1.0000
  Ti  Ti71      1.0  0.43223  0.91862  0.93846  1.0000
  Ti  Ti72      1.0  0.51923  0.79779  0.19464  1.0000
  Ti  Ti73      1.0  0.56713  0.19213  0.32819  1.0000
  Ti  Ti74      1.0  0.56362  0.20269  0.67037  1.0000
  Ti  Ti75      1.0  0.55251  0.23023  0.99506  1.0000
  Ti  Ti76      1.0  0.60905  0.39165  0.99033  1.0000
  Ti  Ti77      1.0  0.55237  0.40911  0.22675  1.0000
  Ti  Ti78      1.0  0.64700  0.43386  0.69324  1.0000
  Ti  Ti79      1.0  0.61665  0.63716  0.09826  1.0000
  Ti  Ti80      1.0  0.58459  0.61740  0.43648  1.0000
  Ti  Ti81      1.0  0.69221  0.59295  0.78876  1.0000
  Ti  Ti82      1.0  0.74501  0.74583  0.95837  1.0000
  Ti  Ti83      1.0  0.67743  0.83420  0.29677  1.0000
  Ti  Ti84      1.0  0.67054  0.79822  0.65835  1.0000
  Ti  Ti85      1.0  0.78768  0.21164  0.88129  1.0000
  Ti  Ti86      1.0  0.79626  0.19301  0.20876  1.0000
  Ti  Ti87      1.0  0.79164  0.20135  0.53975  1.0000
  Ti  Ti88      1.0  0.84291  0.35822  0.04060  1.0000
  Ti  Ti89      1.0  0.88679  0.33547  0.45776  1.0000
  Ti  Ti90      1.0  0.02219  0.09588  0.40378  1.0000
  Ti  Ti91      1.0  0.06059  0.54674  0.96473  1.0000
  Ti  Ti92      1.0  0.92257  0.50251  0.44811  1.0000
  Ti  Ti93      1.0  0.99440  0.51014  0.73215  1.0000
  Ti  Ti94      1.0  0.64500  0.00554  0.12516  1.0000
  Ti  Ti95      1.0  0.78411  0.93777  0.48040  1.0000
  Ti  Ti96      1.0  0.70764  0.98575  0.78976  1.0000
  I   I1        1.0  0.21763  0.02915  0.77965  1.0000
  I   I2        1.0  0.20059  0.97357  0.09561  1.0000
  I   I3        1.0  0.31519  0.96316  0.37654  1.0000
  I   I4        1.0  0.11634  0.21418  0.53007  1.0000
  I   I5        1.0  0.14136  0.23210  0.78351  1.0000
  I   I6        1.0  0.13964  0.21132  0.09641  1.0000
  I   I7        1.0  0.98287  0.81441  0.87859  1.0000
  I   I8        1.0  0.85184  0.83587  0.77991  1.0000
  I   I9        1.0  0.98513  0.65648  0.19574  1.0000
  I   I10       1.0  0.02433  0.89430  0.39289  1.0000
  I   I11       1.0  0.21757  0.84126  0.66993  1.0000
  I   I12       1.0  0.91990  0.97562  0.14284  1.0000
  I   I13       1.0  0.30717  0.36975  0.15748  1.0000
  I   I14       1.0  0.40590  0.15013  0.61233  1.0000
  I   I15       1.0  0.34153  0.23879  0.92941  1.0000
  I   I16       1.0  0.28400  0.47031  0.03460  1.0000
  I   I17       1.0  0.14816  0.47042  0.18732  1.0000
  I   I18       1.0  0.43322  0.41312  0.87203  1.0000
  I   I19       1.0  0.42620  0.68607  0.95066  1.0000
  I   I20       1.0  0.17117  0.67101  0.41324  1.0000
  I   I21       1.0  0.20339  0.78005  0.28749  1.0000
  I   I22       1.0  0.37458  0.93552  0.88944  1.0000
  I   I23       1.0  0.40374  0.90818  0.05730  1.0000
  I   I24       1.0  0.30674  0.82597  0.51208  1.0000
  I   I25       1.0  0.59968  0.16426  0.58870  1.0000
  I   I26       1.0  0.57348  0.18861  0.90062  1.0000
  I   I27       1.0  0.57091  0.17010  0.20772  1.0000
  I   I28       1.0  0.60520  0.34860  0.21273  1.0000
  I   I29       1.0  0.64688  0.41918  0.57187  1.0000
  I   I30       1.0  0.65325  0.36205  0.90423  1.0000
  I   I31       1.0  0.56471  0.65050  0.33507  1.0000
  I   I32       1.0  0.73221  0.53579  0.71409  1.0000
  I   I33       1.0  0.63608  0.59836  0.99733  1.0000
  I   I34       1.0  0.65054  0.82035  0.21275  1.0000
  I   I35       1.0  0.64301  0.78643  0.56901  1.0000
  I   I36       1.0  0.71615  0.72980  0.85496  1.0000
  I   I37       1.0  0.76403  0.17581  0.13560  1.0000
  I   I38       1.0  0.76274  0.18517  0.43573  1.0000
  I   I39       1.0  0.76435  0.21405  0.76843  1.0000
  I   I40       1.0  0.86286  0.39543  0.41851  1.0000
  I   I41       1.0  0.02715  0.09633  0.28987  1.0000
  I   I42       1.0  0.86544  0.39447  0.10395  1.0000
  I   I43       1.0  0.87036  0.52649  0.37740  1.0000
  I   I44       1.0  0.93850  0.51822  0.66467  1.0000
  I   I45       1.0  0.01103  0.55991  0.89403  1.0000
  I   I46       1.0  0.84195  0.89714  0.43677  1.0000
  I   I47       1.0  0.75823  0.95381  0.70526  1.0000
  I   I48       1.0  0.67357  0.97204  0.01197  1.0000
  I   I49       1.0  0.38314  0.02549  0.47195  1.0000
  I   I50       1.0  0.17096  0.06129  0.99164  1.0000
  I   I51       1.0  0.25689  0.00432  0.27963  1.0000
  I   I52       1.0  0.14690  0.23465  0.32582  1.0000
  I   I53       1.0  0.12481  0.30379  0.65842  1.0000
  I   I54       1.0  0.13585  0.29622  0.99651  1.0000
  I   I55       1.0  0.97027  0.65959  0.44613  1.0000
  I   I56       1.0  0.91973  0.82559  0.68679  1.0000
  I   I57       1.0  0.89739  0.74086  0.18324  1.0000
  I   I58       1.0  0.09163  0.86470  0.26196  1.0000
  I   I59       1.0  0.94141  0.90750  0.45458  1.0000
  I   I60       1.0  0.14717  0.79404  0.78497  1.0000
  I   I61       1.0  0.36130  0.33991  0.02395  1.0000
  I   I62       1.0  0.39096  0.32011  0.38094  1.0000
  I   I63       1.0  0.45909  0.18266  0.77327  1.0000
  I   I64       1.0  0.31629  0.52119  0.91598  1.0000
  I   I65       1.0  0.16669  0.53347  0.12385  1.0000
  I   I66       1.0  0.13024  0.45562  0.40307  1.0000
  I   I67       1.0  0.29143  0.79722  0.12327  1.0000
  I   I68       1.0  0.35515  0.70049  0.82452  1.0000
  I   I69       1.0  0.22545  0.68215  0.29116  1.0000
  I   I70       1.0  0.36894  0.83631  0.71537  1.0000
  I   I71       1.0  0.48841  0.89098  0.01621  1.0000
  I   I72       1.0  0.53347  0.73768  0.19871  1.0000
  I   I73       1.0  0.56008  0.22418  0.44628  1.0000
  I   I74       1.0  0.55140  0.24678  0.76718  1.0000
  I   I75       1.0  0.54518  0.25180  0.11559  1.0000
  I   I76       1.0  0.57629  0.42338  0.10190  1.0000
  I   I77       1.0  0.51244  0.39717  0.17113  1.0000
  I   I78       1.0  0.64593  0.45220  0.80297  1.0000
  I   I79       1.0  0.62184  0.66077  0.20172  1.0000
  I   I80       1.0  0.61462  0.57787  0.51983  1.0000
  I   I81       1.0  0.69063  0.61907  0.89314  1.0000
  I   I82       1.0  0.78438  0.75699  0.02702  1.0000
  I   I83       1.0  0.73368  0.83806  0.24671  1.0000
  I   I84       1.0  0.70229  0.81547  0.74433  1.0000
  I   I85       1.0  0.81899  0.19123  0.98987  1.0000
  I   I86       1.0  0.84124  0.18238  0.32221  1.0000
  I   I87       1.0  0.82005  0.21085  0.63364  1.0000
  I   I88       1.0  0.83501  0.32090  0.96830  1.0000
  I   I89       1.0  0.92676  0.26907  0.49676  1.0000
  I   I90       1.0  0.01598  0.10402  0.53085  1.0000
  I   I91       1.0  0.03019  0.56969  0.06025  1.0000
  I   I92       1.0  0.98070  0.49519  0.51444  1.0000
  I   I93       1.0  0.03648  0.47029  0.81392  1.0000
  I   I94       1.0  0.60296  0.98350  0.12266  1.0000
  I   I95       1.0  0.73298  0.98868  0.53564  1.0000
  I   I96       1.0  0.64833  0.02991  0.85131  1.0000
  I   I97       1.0  0.35232  0.00618  0.29349  1.0000
  I   I98       1.0  0.40082  0.99554  0.64066  1.0000
  I   I99       1.0  0.24752  0.01314  0.09171  1.0000
  I   I100      1.0  0.17404  0.25843  0.16550  1.0000
  I   I101      1.0  0.23304  0.19471  0.37030  1.0000
  I   I102      1.0  0.17790  0.27887  0.83414  1.0000
  I   I103      1.0  0.94642  0.72392  0.30475  1.0000
  I   I104      1.0  0.02133  0.55735  0.48831  1.0000
  I   I105      1.0  0.84862  0.83200  0.13995  1.0000
  I   I106      1.0  0.18480  0.78977  0.94115  1.0000
  I   I107      1.0  0.01380  0.85563  0.26736  1.0000
  I   I108      1.0  0.13030  0.89252  0.71960  1.0000
  I   I109      1.0  0.41201  0.24216  0.95784  1.0000
  I   I110      1.0  0.38798  0.35917  0.20390  1.0000
  I   I111      1.0  0.47153  0.10996  0.69642  1.0000
  I   I112      1.0  0.40952  0.50708  0.89299  1.0000
  I   I113      1.0  0.25098  0.55394  0.04652  1.0000
  I   I114      1.0  0.12369  0.54255  0.28089  1.0000
  I   I115      1.0  0.27423  0.72802  0.24411  1.0000
  I   I116      1.0  0.37927  0.72763  0.13480  1.0000
  I   I117      1.0  0.43343  0.59805  0.82441  1.0000
  I   I118      1.0  0.39444  0.76884  0.58103  1.0000
  I   I119      1.0  0.33337  0.93054  0.71800  1.0000
  I   I120      1.0  0.47603  0.87196  0.18180  1.0000
  I   I121      1.0  0.59059  0.22895  0.28229  1.0000
  I   I122      1.0  0.59169  0.24114  0.60228  1.0000
  I   I123      1.0  0.59721  0.24839  0.95197  1.0000
  I   I124      1.0  0.64902  0.42781  0.96842  1.0000
  I   I125      1.0  0.59905  0.42727  0.28488  1.0000
  I   I126      1.0  0.69941  0.44643  0.65238  1.0000
  I   I127      1.0  0.68706  0.61188  0.08616  1.0000
  I   I128      1.0  0.63871  0.63458  0.40130  1.0000
  I   I129      1.0  0.76553  0.57739  0.79118  1.0000
  I   I130      1.0  0.78396  0.75987  0.86081  1.0000
  I   I131      1.0  0.81238  0.69808  0.17024  1.0000
  I   I132      1.0  0.74456  0.81699  0.43284  1.0000
  I   I133      1.0  0.83918  0.16604  0.82730  1.0000
  I   I134      1.0  0.85093  0.13937  0.14172  1.0000
  I   I135      1.0  0.84922  0.15515  0.48367  1.0000
  I   I136      1.0  0.13616  0.02562  0.52720  1.0000
  I   I137      1.0  0.98173  0.32861  0.00895  1.0000
  I   I138      1.0  0.01787  0.21525  0.48540  1.0000
  I   I139      1.0  0.05362  0.48207  0.97539  1.0000
  I   I140      1.0  0.93879  0.44037  0.39588  1.0000
  I   I141      1.0  0.01481  0.44052  0.67534  1.0000
  I   I142      1.0  0.60928  0.05835  0.02414  1.0000
  I   I143      1.0  0.79658  0.98374  0.41979  1.0000
  I   I144      1.0  0.72842  0.03341  0.74388  1.0000
  I   I145      1.0  0.41287  0.95099  0.41663  1.0000
  I   I146      1.0  0.18137  0.99320  0.92141  1.0000
  I   I147      1.0  0.30146  0.93517  0.16542  1.0000
  I   I148      1.0  0.20632  0.16656  0.22329  1.0000
  I   I149      1.0  0.17849  0.22934  0.60878  1.0000
  I   I150      1.0  0.17263  0.21886  0.94586  1.0000
  I   I151      1.0  0.04312  0.64677  0.35590  1.0000
  I   I152      1.0  0.88147  0.77559  0.62642  1.0000
  I   I153      1.0  0.97453  0.71239  0.08008  1.0000
  I   I154      1.0  0.02728  0.96190  0.25852  1.0000
  I   I155      1.0  0.10913  0.89775  0.54501  1.0000
  I   I156      1.0  0.20899  0.83647  0.82461  1.0000
  I   I157      1.0  0.33457  0.28369  0.09401  1.0000
  I   I158      1.0  0.46169  0.12547  0.46069  1.0000
  I   I159      1.0  0.40459  0.16115  0.86324  1.0000
  I   I160      1.0  0.37345  0.44867  0.00841  1.0000
  I   I161      1.0  0.24119  0.47853  0.18934  1.0000
  I   I162      1.0  0.46153  0.43132  0.68946  1.0000
  I   I163      1.0  0.28806  0.79783  0.27902  1.0000
  I   I164      1.0  0.46786  0.53511  0.96616  1.0000
  I   I165      1.0  0.19685  0.73743  0.45172  1.0000
  I   I166      1.0  0.32459  0.79850  0.68119  1.0000
  I   I167      1.0  0.46185  0.83509  0.96050  1.0000
  I   I168      1.0  0.46898  0.77372  0.47879  1.0000
  I   I169      1.0  0.62772  0.15664  0.40204  1.0000
  I   I170      1.0  0.62932  0.17986  0.73045  1.0000
  I   I171      1.0  0.61405  0.18159  0.06090  1.0000
  I   I172      1.0  0.65784  0.35764  0.07324  1.0000
  I   I173      1.0  0.73545  0.46549  0.51149  1.0000
  I   I174      1.0  0.69659  0.37173  0.76326  1.0000
  I   I175      1.0  0.62066  0.58837  0.17448  1.0000
  I   I176      1.0  0.75935  0.54859  0.56909  1.0000
  I   I177      1.0  0.70319  0.53801  0.88578  1.0000
  I   I178      1.0  0.79071  0.68323  0.94418  1.0000
  I   I179      1.0  0.73288  0.76684  0.31675  1.0000
  I   I180      1.0  0.70777  0.73755  0.68598  1.0000
  I   I181      1.0  0.78002  0.15122  0.94307  1.0000
  I   I182      1.0  0.79739  0.14206  0.28026  1.0000
  I   I183      1.0  0.80560  0.14337  0.60943  1.0000
  I   I184      1.0  0.88908  0.37246  0.97249  1.0000
  I   I185      1.0  0.95756  0.27298  0.33718  1.0000
  I   I186      1.0  0.08108  0.08169  0.42358  1.0000
  I   I187      1.0  0.88375  0.52105  0.22453  1.0000
  I   I188      1.0  0.89774  0.48150  0.53881  1.0000
  I   I189      1.0  0.95185  0.51702  0.83431  1.0000
  I   I190      1.0  0.80018  0.94259  0.21543  1.0000
  I   I191      1.0  0.81629  0.94254  0.59147  1.0000
  I   I192      1.0  0.72528  0.99045  0.92080  1.0000
  I   I193      1.0  0.47264  0.95105  0.54163  1.0000
  I   I194      1.0  0.24870  0.02512  0.92491  1.0000
  I   I195      1.0  0.34527  0.98172  0.13466  1.0000
  I   I196      1.0  0.20189  0.28063  0.31662  1.0000
  I   I197      1.0  0.21111  0.29186  0.69363  1.0000
  I   I198      1.0  0.21763  0.27620  0.03930  1.0000
  I   I199      1.0  0.02892  0.62101  0.56425  1.0000
  I   I200      1.0  0.94852  0.76588  0.80558  1.0000
  I   I201      1.0  0.94018  0.78631  0.18956  1.0000
  I   I202      1.0  0.02162  0.90842  0.14521  1.0000
  I   I203      1.0  0.17064  0.92776  0.59559  1.0000
  I   I204      1.0  0.26094  0.71918  0.88558  1.0000
  I   I205      1.0  0.42803  0.27640  0.11501  1.0000
  I   I206      1.0  0.53317  0.08259  0.57715  1.0000
  I   I207      1.0  0.46546  0.15057  0.99936  1.0000
  I   I208      1.0  0.35236  0.54129  0.04649  1.0000
  I   I209      1.0  0.20219  0.53804  0.29995  1.0000
  I   I210      1.0  0.45887  0.51213  0.71758  1.0000
  I   I211      1.0  0.37910  0.75019  0.29309  1.0000
  I   I212      1.0  0.51031  0.59815  0.89721  1.0000
  I   I213      1.0  0.28731  0.66772  0.38779  1.0000
  I   I214      1.0  0.31982  0.88194  0.85790  1.0000
  I   I215      1.0  0.52647  0.79567  0.07495  1.0000
  I   I216      1.0  0.47192  0.82487  0.60829  1.0000
  I   I217      1.0  0.64795  0.22809  0.45331  1.0000
  I   I218      1.0  0.62509  0.25523  0.78273  1.0000
  I   I219      1.0  0.64796  0.22898  0.16474  1.0000
  I   I220      1.0  0.64946  0.43566  0.15062  1.0000
  I   I221      1.0  0.73001  0.38632  0.51900  1.0000
  I   I222      1.0  0.71572  0.43569  0.88642  1.0000
  I   I223      1.0  0.68695  0.57587  0.27120  1.0000
  I   I224      1.0  0.78179  0.61451  0.63258  1.0000
  I   I225      1.0  0.76950  0.55443  0.98694  1.0000
  I   I226      1.0  0.86532  0.67022  0.02464  1.0000
  I   I227      1.0  0.80565  0.82891  0.33720  1.0000
  I   I228      1.0  0.78802  0.75851  0.69712  1.0000
  I   I229      1.0  0.87029  0.09571  0.99600  1.0000
  I   I230      1.0  0.88434  0.09180  0.36102  1.0000
  I   I231      1.0  0.87638  0.11606  0.69672  1.0000
  I   I232      1.0  0.91494  0.30115  0.08307  1.0000
  I   I233      1.0  0.95168  0.33311  0.47579  1.0000
  I   I234      1.0  0.07691  0.05917  0.65198  1.0000
  I   I235      1.0  0.97390  0.45484  0.21526  1.0000
  I   I236      1.0  0.00428  0.41356  0.53103  1.0000
  I   I237      1.0  0.99891  0.44736  0.94532  1.0000
  I   I238      1.0  0.71457  0.02896  0.27299  1.0000
  I   I239      1.0  0.73676  0.05771  0.58642  1.0000
  I   I240      1.0  0.66776  0.08687  0.94308  1.0000
  I   I241      1.0  0.43003  0.90830  0.56015  1.0000
  I   I242      1.0  0.26427  0.93351  0.99181  1.0000
  I   I243      1.0  0.37525  0.91814  0.25723  1.0000
  I   I244      1.0  0.26476  0.20170  0.21045  1.0000
  I   I245      1.0  0.23559  0.19844  0.74935  1.0000
  I   I246      1.0  0.23182  0.18394  0.07187  1.0000
  I   I247      1.0  0.09011  0.57934  0.47822  1.0000
  I   I248      1.0  0.87625  0.74576  0.79780  1.0000
  I   I249      1.0  0.02151  0.71631  0.22668  1.0000
  I   I250      1.0  0.96125  0.95059  0.29327  1.0000
  I   I251      1.0  0.20379  0.84093  0.49401  1.0000
  I   I252      1.0  0.19824  0.71010  0.84850  1.0000
  I   I253      1.0  0.37526  0.28341  0.24825  1.0000
  I   I254      1.0  0.45968  0.05447  0.55560  1.0000
  I   I255      1.0  0.37734  0.16015  0.03393  1.0000
  I   I256      1.0  0.32346  0.49469  0.15191  1.0000
  I   I257      1.0  0.19601  0.44863  0.31065  1.0000
  I   I258      1.0  0.50795  0.43335  0.81292  1.0000
  I   I259      1.0  0.35266  0.82524  0.19678  1.0000
  I   I260      1.0  0.44082  0.66916  0.77283  1.0000
  I   I261      1.0  0.26711  0.75331  0.40925  1.0000
  I   I262      1.0  0.24681  0.92449  0.77441  1.0000
  I   I263      1.0  0.44201  0.81967  0.13526  1.0000
  I   I264      1.0  0.47950  0.73703  0.63887  1.0000
  I   I265      1.0  0.67519  0.15982  0.55322  1.0000
  I   I266      1.0  0.66709  0.17217  0.86786  1.0000
  I   I267      1.0  0.65702  0.14499  0.19302  1.0000
  I   I268      1.0  0.68065  0.35086  0.23358  1.0000
  I   I269      1.0  0.65773  0.47491  0.43995  1.0000
  I   I270      1.0  0.72865  0.35727  0.95771  1.0000
  I   I271      1.0  0.61846  0.56707  0.33926  1.0000
  I   I272      1.0  0.83362  0.52589  0.67990  1.0000
  I   I273      1.0  0.71471  0.52207  0.05381  1.0000
  I   I274      1.0  0.80299  0.63503  0.07600  1.0000
  I   I275      1.0  0.82691  0.74105  0.36094  1.0000
  I   I276      1.0  0.79116  0.68444  0.75634  1.0000
  I   I277      1.0  0.81493  0.08401  0.07784  1.0000
  I   I278      1.0  0.81324  0.09090  0.44376  1.0000
  I   I279      1.0  0.78996  0.12054  0.74373  1.0000
  I   I280      1.0  0.95665  0.34358  0.17357  1.0000
  I   I281      1.0  0.03716  0.27389  0.39987  1.0000
  I   I282      1.0  0.09682  0.12405  0.56990  1.0000
  I   I283      1.0  0.90405  0.43139  0.26647  1.0000
  I   I284      1.0  0.93891  0.43998  0.68338  1.0000
  I   I285      1.0  0.96243  0.53831  0.99850  1.0000
  I   I286      1.0  0.79803  0.02417  0.26644  1.0000
  I   I287      1.0  0.80969  0.00062  0.69619  1.0000
  I   I288      1.0  0.68973  0.03865  0.07986  1.0000
  I   I289      1.0  0.34256  0.98300  0.53345  1.0000
  I   I290      1.0  0.12153  0.06911  0.84534  1.0000
  I   I291      1.0  0.21693  0.95223  0.26598  1.0000
  I   I292      1.0  0.11959  0.18273  0.27481  1.0000
  I   I293      1.0  0.05385  0.29692  0.57658  1.0000
  I   I294      1.0  0.07893  0.24415  0.90393  1.0000
  I   I295      1.0  0.02682  0.58752  0.33284  1.0000
  I   I296      1.0  0.00361  0.82422  0.70566  1.0000
  I   I297      1.0  0.93281  0.80919  0.02474  1.0000
  I   I298      1.0  0.94264  0.03395  0.20948  1.0000
  I   I299      1.0  0.99496  0.81098  0.38974  1.0000
  I   I300      1.0  0.23095  0.75848  0.72118  1.0000
  I   I301      1.0  0.28698  0.33351  0.97885  1.0000
  I   I302      1.0  0.30130  0.34756  0.35090  1.0000
  I   I303      1.0  0.39551  0.23747  0.65476  1.0000
  I   I304      1.0  0.35076  0.43592  0.82869  1.0000
  I   I305      1.0  0.21606  0.44482  0.03760  1.0000
  I   I306      1.0  0.14870  0.39198  0.27280  1.0000
  I   I307      1.0  0.19288  0.85007  0.20289  1.0000
  I   I308      1.0  0.39592  0.63285  0.96191  1.0000
  I   I309      1.0  0.25736  0.59358  0.38592  1.0000
  I   I310      1.0  0.29102  0.89283  0.63328  1.0000
  I   I311      1.0  0.42338  0.97419  0.97986  1.0000
  I   I312      1.0  0.50039  0.80888  0.29936  1.0000
  I   I313      1.0  0.56253  0.14173  0.36256  1.0000
  I   I314      1.0  0.54987  0.16274  0.73485  1.0000
  I   I315      1.0  0.52587  0.19470  0.03409  1.0000
  I   I316      1.0  0.59070  0.34985  0.01582  1.0000
  I   I317      1.0  0.51700  0.46918  0.24855  1.0000
  I   I318      1.0  0.60449  0.41261  0.71093  1.0000
  I   I319      1.0  0.55399  0.65286  0.08873  1.0000
  I   I320      1.0  0.53916  0.60225  0.44242  1.0000
  I   I321      1.0  0.64082  0.58894  0.77916  1.0000
  I   I322      1.0  0.71689  0.73615  0.05058  1.0000
  I   I323      1.0  0.64910  0.82130  0.37936  1.0000
  I   I324      1.0  0.61749  0.82593  0.72651  1.0000
  I   I325      1.0  0.72643  0.24695  0.91614  1.0000
  I   I326      1.0  0.74673  0.23713  0.26246  1.0000
  I   I327      1.0  0.73727  0.22391  0.59574  1.0000
  I   I328      1.0  0.79862  0.41046  0.99278  1.0000
  I   I329      1.0  0.84207  0.32787  0.40476  1.0000
  I   I330      1.0  0.00719  0.04692  0.41258  1.0000
  I   I331      1.0  0.07744  0.59139  0.93685  1.0000
  I   I332      1.0  0.89244  0.55710  0.51736  1.0000
  I   I333      1.0  0.96623  0.57229  0.74287  1.0000
  I   I334      1.0  0.60847  0.04973  0.19319  1.0000
  I   I335      1.0  0.76310  0.89803  0.50423  1.0000
  I   I336      1.0  0.70258  0.93692  0.82768  1.0000
  I   I337      1.0  0.29429  0.05271  0.43819  1.0000
  I   I338      1.0  0.17995  0.11600  0.85714  1.0000
  I   I339      1.0  0.18052  0.04824  0.19869  1.0000
  I   I340      1.0  0.08683  0.27277  0.20848  1.0000
  I   I341      1.0  0.13839  0.28449  0.47367  1.0000
  I   I342      1.0  0.07818  0.32052  0.84590  1.0000
  I   I343      1.0  0.93460  0.64602  0.31929  1.0000
  I   I344      1.0  0.92262  0.88681  0.79140  1.0000
  I   I345      1.0  0.87559  0.76883  0.01647  1.0000
  I   I346      1.0  0.98746  0.99343  0.08056  1.0000
  I   I347      1.0  0.93077  0.87303  0.30654  1.0000
  I   I348      1.0  0.15729  0.81631  0.61156  1.0000
  I   I349      1.0  0.35155  0.31191  0.84913  1.0000
  I   I350      1.0  0.32372  0.41274  0.31228  1.0000
  I   I351      1.0  0.48089  0.17977  0.60694  1.0000
  I   I352      1.0  0.38010  0.49309  0.76678  1.0000
  I   I353      1.0  0.19463  0.52504  0.96540  1.0000
  I   I354      1.0  0.07008  0.47537  0.28267  1.0000
  I   I355      1.0  0.22180  0.77332  0.11445  1.0000
  I   I356      1.0  0.47837  0.59959  0.04483  1.0000
  I   I357      1.0  0.23887  0.64709  0.51944  1.0000
  I   I358      1.0  0.38419  0.85181  0.55801  1.0000
  I   I359      1.0  0.47008  0.90995  0.85038  1.0000
  I   I360      1.0  0.57807  0.79131  0.18697  1.0000
  I   I361      1.0  0.50337  0.23467  0.31438  1.0000
  I   I362      1.0  0.50735  0.24252  0.64033  1.0000
  I   I363      1.0  0.50471  0.28130  0.96185  1.0000
  I   I364      1.0  0.57376  0.43381  0.90864  1.0000
  I   I365      1.0  0.54196  0.39038  0.33450  1.0000
  I   I366      1.0  0.60511  0.49520  0.66137  1.0000
  I   I367      1.0  0.60407  0.68922  0.03256  1.0000
  I   I368      1.0  0.55448  0.66500  0.50725  1.0000
  I   I369      1.0  0.67545  0.63516  0.70902  1.0000
  I   I370      1.0  0.70616  0.80949  0.94306  1.0000
  I   I371      1.0  0.64193  0.89574  0.28746  1.0000
  I   I372      1.0  0.67626  0.84260  0.59101  1.0000
  I   I373      1.0  0.79866  0.25994  0.85004  1.0000
  I   I374      1.0  0.81727  0.22955  0.16826  1.0000
  I   I375      1.0  0.78790  0.25177  0.48676  1.0000
  I   I376      1.0  0.80576  0.35383  0.12074  1.0000
  I   I377      1.0  0.88101  0.34235  0.57021  1.0000
  I   I378      1.0  0.96623  0.14586  0.40706  1.0000
  I   I379      1.0  0.11250  0.50694  0.02004  1.0000
  I   I380      1.0  0.95885  0.50615  0.36040  1.0000
  I   I381      1.0  0.04605  0.50516  0.68509  1.0000
  I   I382      1.0  0.68537  0.95803  0.18735  1.0000
  I   I383      1.0  0.75237  0.94659  0.36614  1.0000
  I   I384      1.0  0.66959  0.99613  0.70546  1.0000
