data_image0
_chemical_formula_structural       Ti96I384
_chemical_formula_sum              "Ti96 I384"
_cell_length_a       81.1851
_cell_length_b       80.6006
_cell_length_c       39.4086
_cell_angle_alpha    88.7757
_cell_angle_beta     88.7757
_cell_angle_gamma    62.1586

_space_group_name_H-M_alt    "P 1"
_space_group_IT_number       1

loop_
  _space_group_symop_operation_xyz
  'x, y, z'

loop_
  _atom_site_type_symbol
  _atom_site_label
  _atom_site_symmetry_multiplicity
  _atom_site_fract_x
  _atom_site_fract_y
  _atom_site_fract_z
  _atom_site_occupancy
  Ti  Ti1       1.0  0.73449  0.37629  0.54813  1.0000
  Ti  Ti2       1.0  0.72980  0.16398  0.50632  1.0000
  Ti  Ti3       1.0  0.97018  0.02158  0.19288  1.0000
  Ti  Ti4       1.0  0.43900  0.82133  0.98480  1.0000
  Ti  Ti5       1.0  0.90846  0.37399  0.59741  1.0000
  Ti  Ti6       1.0  0.19886  0.89136  0.79103  1.0000
  Ti  Ti7       1.0  0.38629  0.42179  0.84799  1.0000
  Ti  Ti8       1.0  0.34047  0.67750  0.20283  1.0000
  Ti  Ti9       1.0  0.92080  0.17888  0.78287  1.0000
  Ti  Ti10      1.0  0.90994  0.24904  0.95111  1.0000
  Ti  Ti11      1.0  0.31248  0.78837  0.59053  1.0000
  Ti  Ti12      1.0  0.50222  0.95238  0.59344  1.0000
  Ti  Ti13      1.0  0.49924  0.57325  0.36360  1.0000
  Ti  Ti14      1.0  0.43637  0.85945  0.89804  1.0000
  Ti  Ti15      1.0  0.57449  0.37296  0.81846  1.0000
  Ti  Ti16      1.0  0.85151  0.74015  0.02998  1.0000
  Ti  Ti17      1.0  0.65022  0.02341  0.60727  1.0000
  Ti  Ti18      1.0  0.49555  0.42953  0.49626  1.0000
  Ti  Ti19      1.0  0.57834  0.12533  0.17761  1.0000
  Ti  Ti20      1.0  0.56656  0.78209  0.14576  1.0000
  Ti  Ti21      1.0  0.17264  0.63701  0.79633  1.0000
  Ti  Ti22      1.0  0.46815  0.21135  0.21002  1.0000
  Ti  Ti23      1.0  0.49658  0.03017  0.03795  1.0000
  Ti  Ti24      1.0  0.89355  0.31236  0.76179  1.0000
  Ti  Ti25      1.0  0.98597  0.93096  0.89040  1.0000
  Ti  Ti26      1.0  0.24485  0.68771  0.96646  1.0000
  Ti  Ti27      1.0  0.96825  0.76665  0.49523  1.0000
  Ti  Ti28      1.0  0.27280  0.24539  0.02589  1.0000
  Ti  Ti29      1.0  0.76730  0.83924  0.21133  1.0000
  Ti  Ti30      1.0  0.50794  0.54443  0.91100  1.0000
  Ti  Ti31      1.0  0.76584  0.92250  0.24378  1.0000
  Ti  Ti32      1.0  0.96559  0.34277  0.78358  1.0000
  Ti  Ti33      1.0  0.86674  0.20237  0.49662  1.0000
  Ti  Ti34      1.0  0.58837  0.70738  0.86335  1.0000
  Ti  Ti35      1.0  0.13382  0.15184  0.06541  1.0000
  Ti  Ti36      1.0  0.27420  0.79890  0.83491  1.0000
  Ti  Ti37      1.0  0.22844  0.94320  0.05163  1.0000
  Ti  Ti38      1.0  0.51709  0.65663  0.65606  1.0000
  Ti  Ti39      1.0  0.84528  0.25685  0.93586  1.0000
  Ti  Ti40      1.0  0.68779  0.97906  0.11729  1.0000
  Ti  Ti41      1.0  0.42946  0.78248  0.50395  1.0000
  Ti  Ti42      1.0  0.36478  0.57590  0.56957  1.0000
  Ti  Ti43      1.0  0.38773  0.60333  0.46465  1.0000
  Ti  Ti44      1.0  0.43724  0.45450  0.13205  1.0000
  Ti  Ti45      1.0  0.81581  0.19411  0.20968  1.0000
  Ti  Ti46      1.0  0.74043  0.70091  0.58145  1.0000
  Ti  Ti47      1.0  0.08536  0.65695  0.52036  1.0000
  Ti  Ti48      1.0  0.42776  0.96023  0.90733  1.0000
  Ti  Ti49      1.0  0.43211  0.93639  0.22188  1.0000
  Ti  Ti50      1.0  0.17900  0.37212  0.73040  1.0000
  Ti  Ti51      1.0  0.48668  0.00176  0.10722  1.0000
  Ti  Ti52      1.0  0.88740  0.43208  0.36532  1.0000
  Ti  Ti53      1.0  0.63609  0.40420  0.71502  1.0000
  Ti  Ti54      1.0  0.75339  0.93113  0.61697  1.0000
  Ti  Ti55      1.0  0.11462  0.72002  0.81830  1.0000
  Ti  Ti56      1.0  0.70574  0.18106  0.73676  1.0000
  Ti  Ti57      1.0  0.93561  0.18842  0.71980  1.0000
  Ti  Ti58      1.0  0.99622  0.76276  0.06427  1.0000
  Ti  Ti59      1.0  0.85075  0.73710  0.90443  1.0000
  Ti  Ti60      1.0  0.57530  0.08441  0.15391  1.0000
  Ti  Ti61      1.0  0.62168  0.25487  0.41942  1.0000
  Ti  Ti62      1.0  0.53339  0.54400  0.43743  1.0000
  Ti  Ti63      1.0  0.26356  0.57110  0.35025  1.0000
  Ti  Ti64      1.0  0.47632  0.42043  0.43451  1.0000
  Ti  Ti65      1.0  0.38662  0.13210  0.57831  1.0000
  Ti  Ti66      1.0  0.06632  0.14406  0.13376  1.0000
  Ti  Ti67      1.0  0.81213  0.81769  0.64476  1.0000
  Ti  Ti68      1.0  0.29248  0.42162  0.99099  1.0000
  Ti  Ti69      1.0  0.20891  0.70619  0.99842  1.0000
  Ti  Ti70      1.0  0.26718  0.91056  0.57534  1.0000
  Ti  Ti71      1.0  0.83803  0.45210  0.17465  1.0000
  Ti  Ti72      1.0  0.32493  0.04336  0.60345  1.0000
  Ti  Ti73      1.0  0.25418  0.76240  0.29779  1.0000
  Ti  Ti74      1.0  0.98517  0.96003  0.98474  1.0000
  Ti  Ti75      1.0  0.40588  0.98443  0.27803  1.0000
  Ti  Ti76      1.0  0.83633  0.60605  0.15092  1.0000
  Ti  Ti77      1.0  0.57962  0.37317  0.88781  1.0000
  Ti  Ti78      1.0  0.85254  0.56405  0.61750  1.0000
  Ti  Ti79      1.0  0.98502  0.89326  0.60396  1.0000
  Ti  Ti80      1.0  0.96679  0.56525  0.15685  1.0000
  Ti  Ti81      1.0  0.57789  0.29399  0.16758  1.0000
  Ti  Ti82      1.0  0.32901  0.79401  0.12031  1.0000
  Ti  Ti83      1.0  0.81592  0.16660  0.29471  1.0000
  Ti  Ti84      1.0  0.25541  0.78600  0.89710  1.0000
  Ti  Ti85      1.0  0.24412  0.95649  0.12934  1.0000
  Ti  Ti86      1.0  0.33860  0.45532  0.77437  1.0000
  Ti  Ti87      1.0  0.99835  0.82264  0.85615  1.0000
  Ti  Ti88      1.0  0.81968  0.16249  0.69144  1.0000
  Ti  Ti89      1.0  0.82974  0.07848  0.44872  1.0000
  Ti  Ti90      1.0  0.66229  0.96769  0.62670  1.0000
  Ti  Ti91      1.0  0.66817  0.35337  0.25891  1.0000
  Ti  Ti92      1.0  0.86438  0.26889  0.26761  1.0000
  Ti  Ti93      1.0  0.63384  0.73857  0.55437  1.0000
  Ti  Ti94      1.0  0.39593  0.98087  0.97014  1.0000
  Ti  Ti95      1.0  0.40604  0.81045  0.67450  1.0000
  Ti  Ti96      1.0  0.90339  0.10822  0.05214  1.0000
  I   I1        1.0  0.09186  0.65850  0.58185  1.0000
  I   I2        1.0  0.50996  0.99198  0.15706  1.0000
  I   I3        1.0  0.39971  0.97141  0.21083  1.0000
  I   I4        1.0  0.62445  0.42687  0.66244  1.0000
  I   I5        1.0  0.21106  0.86594  0.74383  1.0000
  I   I6        1.0  0.79071  0.92162  0.61472  1.0000
  I   I7        1.0  0.37408  0.67551  0.18922  1.0000
  I   I8        1.0  0.67561  0.18015  0.75868  1.0000
  I   I9        1.0  0.96556  0.17289  0.67953  1.0000
  I   I10       1.0  0.70531  0.94395  0.14097  1.0000
  I   I11       1.0  0.34444  0.76300  0.61691  1.0000
  I   I12       1.0  0.87511  0.37916  0.62115  1.0000
  I   I13       1.0  0.46502  0.58976  0.37909  1.0000
  I   I14       1.0  0.25353  0.54640  0.37211  1.0000
  I   I15       1.0  0.54234  0.40136  0.86352  1.0000
  I   I16       1.0  0.69931  0.00152  0.09394  1.0000
  I   I17       1.0  0.04643  0.12825  0.15536  1.0000
  I   I18       1.0  0.44005  0.42989  0.44363  1.0000
  I   I19       1.0  0.29963  0.55386  0.35130  1.0000
  I   I20       1.0  0.28725  0.82535  0.59181  1.0000
  I   I21       1.0  0.31980  0.67110  0.24543  1.0000
  I   I22       1.0  0.54489  0.29954  0.17593  1.0000
  I   I23       1.0  0.83900  0.17623  0.65221  1.0000
  I   I24       1.0  0.26308  0.92669  0.63615  1.0000
  I   I25       1.0  0.97917  0.96912  0.91649  1.0000
  I   I26       1.0  0.42456  0.91275  0.19170  1.0000
  I   I27       1.0  0.14638  0.11774  0.09292  1.0000
  I   I28       1.0  0.25048  0.28088  0.00467  1.0000
  I   I29       1.0  0.82378  0.55912  0.60322  1.0000
  I   I30       1.0  0.51653  0.56450  0.86408  1.0000
  I   I31       1.0  0.99240  0.55937  0.20044  1.0000
  I   I32       1.0  0.56559  0.31146  0.10885  1.0000
  I   I33       1.0  0.00610  0.88238  0.66178  1.0000
  I   I34       1.0  0.14269  0.16550  0.00318  1.0000
  I   I35       1.0  0.27132  0.74998  0.91954  1.0000
  I   I36       1.0  0.61586  0.69435  0.90128  1.0000
  I   I37       1.0  0.20301  0.94139  0.01669  1.0000
  I   I38       1.0  0.81808  0.28587  0.88817  1.0000
  I   I39       1.0  0.22712  0.96413  0.19424  1.0000
  I   I40       1.0  0.41355  0.48716  0.16318  1.0000
  I   I41       1.0  0.21501  0.36490  0.72944  1.0000
  I   I42       1.0  0.66091  0.99768  0.16166  1.0000
  I   I43       1.0  0.02194  0.76370  0.10982  1.0000
  I   I44       1.0  0.82022  0.21578  0.17094  1.0000
  I   I45       1.0  0.79667  0.14788  0.29107  1.0000
  I   I46       1.0  0.39961  0.78349  0.65512  1.0000
  I   I47       1.0  0.10994  0.62036  0.51468  1.0000
  I   I48       1.0  0.43355  0.96558  0.98105  1.0000
  I   I49       1.0  0.40229  0.95402  0.29474  1.0000
  I   I50       1.0  0.74855  0.14046  0.45363  1.0000
  I   I51       1.0  0.52845  0.00309  0.05203  1.0000
  I   I52       1.0  0.93829  0.57183  0.19225  1.0000
  I   I53       1.0  0.62798  0.43170  0.76846  1.0000
  I   I54       1.0  0.75785  0.91965  0.67845  1.0000
  I   I55       1.0  0.33147  0.45010  0.71234  1.0000
  I   I56       1.0  0.14210  0.65866  0.76705  1.0000
  I   I57       1.0  0.39408  0.80868  0.73712  1.0000
  I   I58       1.0  0.90948  0.28162  0.95720  1.0000
  I   I59       1.0  0.82563  0.74126  0.97652  1.0000
  I   I60       1.0  0.57955  0.09308  0.22205  1.0000
  I   I61       1.0  0.54695  0.51052  0.45607  1.0000
  I   I62       1.0  0.49593  0.58110  0.30084  1.0000
  I   I63       1.0  0.54449  0.79981  0.09334  1.0000
  I   I64       1.0  0.86041  0.75316  0.95956  1.0000
  I   I65       1.0  0.67002  0.97464  0.06808  1.0000
  I   I66       1.0  0.28919  0.21473  0.99191  1.0000
  I   I67       1.0  0.55456  0.12007  0.12297  1.0000
  I   I68       1.0  0.57309  0.74779  0.14767  1.0000
  I   I69       1.0  0.25233  0.69131  0.03217  1.0000
  I   I70       1.0  0.30366  0.89094  0.56386  1.0000
  I   I71       1.0  0.46003  0.99038  0.12762  1.0000
  I   I72       1.0  0.35655  0.03999  0.63235  1.0000
  I   I73       1.0  0.93175  0.79918  0.48198  1.0000
  I   I74       1.0  0.21229  0.73242  0.95961  1.0000
  I   I75       1.0  0.17450  0.72470  0.98002  1.0000
  I   I76       1.0  0.57205  0.39421  0.94171  1.0000
  I   I77       1.0  0.60615  0.37679  0.83700  1.0000
  I   I78       1.0  0.74483  0.95672  0.23208  1.0000
  I   I79       1.0  0.84539  0.19886  0.45061  1.0000
  I   I80       1.0  0.73233  0.37555  0.48303  1.0000
  I   I81       1.0  0.96535  0.35219  0.72028  1.0000
  I   I82       1.0  0.34595  0.76964  0.07053  1.0000
  I   I83       1.0  0.78171  0.19548  0.19413  1.0000
  I   I84       1.0  0.23833  0.81756  0.86446  1.0000
  I   I85       1.0  0.25176  0.92235  0.14871  1.0000
  I   I86       1.0  0.26797  0.23265  0.08385  1.0000
  I   I87       1.0  0.85088  0.22404  0.92492  1.0000
  I   I88       1.0  0.86632  0.25575  0.98755  1.0000
  I   I89       1.0  0.59317  0.68389  0.81084  1.0000
  I   I90       1.0  0.16208  0.37135  0.67633  1.0000
  I   I91       1.0  0.63801  0.38467  0.23983  1.0000
  I   I92       1.0  0.85695  0.25512  0.21592  1.0000
  I   I93       1.0  0.43023  0.42924  0.15994  1.0000
  I   I94       1.0  0.39449  0.97475  0.88182  1.0000
  I   I95       1.0  0.75175  0.69195  0.64085  1.0000
  I   I96       1.0  0.43116  0.23260  0.20451  1.0000
  I   I97       1.0  0.96961  0.00455  0.13270  1.0000
  I   I98       1.0  0.73942  0.34100  0.57185  1.0000
  I   I99       1.0  0.73361  0.13869  0.55103  1.0000
  I   I100      1.0  0.44924  0.84615  0.83505  1.0000
  I   I101      1.0  0.79705  0.15727  0.65590  1.0000
  I   I102      1.0  0.92213  0.38599  0.64179  1.0000
  I   I103      1.0  0.36395  0.41761  0.78248  1.0000
  I   I104      1.0  0.11085  0.73885  0.87436  1.0000
  I   I105      1.0  0.41130  0.80577  0.45506  1.0000
  I   I106      1.0  0.53518  0.94277  0.62177  1.0000
  I   I107      1.0  0.87729  0.26038  0.90591  1.0000
  I   I108      1.0  0.49194  0.94913  0.66197  1.0000
  I   I109      1.0  0.59891  0.34537  0.78070  1.0000
  I   I110      1.0  0.56543  0.54225  0.44567  1.0000
  I   I111      1.0  0.59816  0.77950  0.13607  1.0000
  I   I112      1.0  0.50827  0.41359  0.39758  1.0000
  I   I113      1.0  0.38906  0.09933  0.55316  1.0000
  I   I114      1.0  0.61463  0.03994  0.59548  1.0000
  I   I115      1.0  0.82825  0.78675  0.68077  1.0000
  I   I116      1.0  0.82941  0.83670  0.64147  1.0000
  I   I117      1.0  0.29799  0.41299  0.92597  1.0000
  I   I118      1.0  0.90537  0.08669  0.10670  1.0000
  I   I119      1.0  0.81783  0.79889  0.58810  1.0000
  I   I120      1.0  0.09511  0.67202  0.46627  1.0000
  I   I121      1.0  0.24388  0.78184  0.23859  1.0000
  I   I122      1.0  0.99323  0.90108  0.85941  1.0000
  I   I123      1.0  0.43862  0.97031  0.24038  1.0000
  I   I124      1.0  0.52843  0.51229  0.87996  1.0000
  I   I125      1.0  0.86706  0.59306  0.17217  1.0000
  I   I126      1.0  0.88222  0.53561  0.63825  1.0000
  I   I127      1.0  0.89117  0.21088  0.46730  1.0000
  I   I128      1.0  0.43844  0.88516  0.93113  1.0000
  I   I129      1.0  0.49751  0.06107  0.02221  1.0000
  I   I130      1.0  0.30117  0.79367  0.80038  1.0000
  I   I131      1.0  0.35538  0.80355  0.12114  1.0000
  I   I132      1.0  0.09900  0.16319  0.06107  1.0000
  I   I133      1.0  0.92145  0.22918  0.00274  1.0000
  I   I134      1.0  0.53015  0.67130  0.60028  1.0000
  I   I135      1.0  0.06490  0.16099  0.18798  1.0000
  I   I136      1.0  0.36050  0.55136  0.60981  1.0000
  I   I137      1.0  0.90359  0.41381  0.42065  1.0000
  I   I138      1.0  0.81023  0.11331  0.47159  1.0000
  I   I139      1.0  0.69867  0.35318  0.28136  1.0000
  I   I140      1.0  0.85542  0.30308  0.24625  1.0000
  I   I141      1.0  0.66320  0.70884  0.57183  1.0000
  I   I142      1.0  0.39518  0.01148  0.96792  1.0000
  I   I143      1.0  0.00658  0.00799  0.19646  1.0000
  I   I144      1.0  0.47005  0.18373  0.25344  1.0000
  I   I145      1.0  0.76927  0.36312  0.54417  1.0000
  I   I146      1.0  0.69959  0.17501  0.46869  1.0000
  I   I147      1.0  0.97677  0.98453  0.20332  1.0000
  I   I148      1.0  0.87398  0.46605  0.32902  1.0000
  I   I149      1.0  0.91337  0.39113  0.54332  1.0000
  I   I150      1.0  0.21994  0.90658  0.81087  1.0000
  I   I151      1.0  0.08119  0.71938  0.84307  1.0000
  I   I152      1.0  0.32719  0.67837  0.14459  1.0000
  I   I153      1.0  0.92442  0.21647  0.67321  1.0000
  I   I154      1.0  0.37606  0.58747  0.41191  1.0000
  I   I155      1.0  0.32348  0.80513  0.63789  1.0000
  I   I156      1.0  0.59467  0.05071  0.14407  1.0000
  I   I157      1.0  0.57628  0.34379  0.85729  1.0000
  I   I158      1.0  0.24709  0.59760  0.38888  1.0000
  I   I159      1.0  0.62497  0.22710  0.37749  1.0000
  I   I160      1.0  0.46746  0.40364  0.38655  1.0000
  I   I161      1.0  0.68797  0.94210  0.58478  1.0000
  I   I162      1.0  0.52795  0.42752  0.50475  1.0000
  I   I163      1.0  0.60425  0.12912  0.20197  1.0000
  I   I164      1.0  0.71743  0.68811  0.56835  1.0000
  I   I165      1.0  0.18285  0.66166  0.82053  1.0000
  I   I166      1.0  0.88669  0.11880  0.98435  1.0000
  I   I167      1.0  0.58521  0.31837  0.20926  1.0000
  I   I168      1.0  0.91071  0.28564  0.80472  1.0000
  I   I169      1.0  0.01370  0.96544  0.97775  1.0000
  I   I170      1.0  0.97396  0.93321  0.95926  1.0000
  I   I171      1.0  0.97441  0.74969  0.55889  1.0000
  I   I172      1.0  0.81167  0.59809  0.17928  1.0000
  I   I173      1.0  0.76925  0.81426  0.25243  1.0000
  I   I174      1.0  0.50881  0.53713  0.97886  1.0000
  I   I175      1.0  0.79442  0.90349  0.20547  1.0000
  I   I176      1.0  0.98701  0.35568  0.79731  1.0000
  I   I177      1.0  0.95790  0.90524  0.55472  1.0000
  I   I178      1.0  0.30007  0.78611  0.10888  1.0000
  I   I179      1.0  0.82749  0.17004  0.15444  1.0000
  I   I180      1.0  0.24486  0.90867  0.05236  1.0000
  I   I181      1.0  0.49326  0.98584  0.56696  1.0000
  I   I182      1.0  0.34546  0.44564  0.85744  1.0000
  I   I183      1.0  0.01703  0.84155  0.87790  1.0000
  I   I184      1.0  0.83763  0.12976  0.71797  1.0000
  I   I185      1.0  0.84224  0.08485  0.39305  1.0000
  I   I186      1.0  0.34535  0.60889  0.60291  1.0000
  I   I187      1.0  0.90055  0.26014  0.24590  1.0000
  I   I188      1.0  0.44373  0.44713  0.06277  1.0000
  I   I189      1.0  0.02414  0.78955  0.84441  1.0000
  I   I190      1.0  0.76842  0.67960  0.54319  1.0000
  I   I191      1.0  0.67806  0.99147  0.64061  1.0000
  I   I192      1.0  0.96160  0.04369  0.24371  1.0000
  I   I193      1.0  0.85922  0.57811  0.56131  1.0000
  I   I194      1.0  0.53950  0.79942  0.18991  1.0000
  I   I195      1.0  0.95933  0.05676  0.15246  1.0000
  I   I196      1.0  0.43474  0.85100  0.01465  1.0000
  I   I197      1.0  0.97342  0.74947  0.04730  1.0000
  I   I198      1.0  0.17530  0.92426  0.76805  1.0000
  I   I199      1.0  0.93761  0.36315  0.83441  1.0000
  I   I200      1.0  0.70171  0.20594  0.69380  1.0000
  I   I201      1.0  0.92682  0.15390  0.72478  1.0000
  I   I202      1.0  0.86219  0.70592  0.05154  1.0000
  I   I203      1.0  0.22062  0.68723  0.92852  1.0000
  I   I204      1.0  0.50950  0.93018  0.54380  1.0000
  I   I205      1.0  0.50135  0.53959  0.37631  1.0000
  I   I206      1.0  0.40704  0.87535  0.85240  1.0000
  I   I207      1.0  0.55875  0.39320  0.75968  1.0000
  I   I208      1.0  0.87552  0.75045  0.06109  1.0000
  I   I209      1.0  0.67540  0.94432  0.68551  1.0000
  I   I210      1.0  0.01172  0.85737  0.59632  1.0000
  I   I211      1.0  0.27080  0.93140  0.52574  1.0000
  I   I212      1.0  0.25790  0.58345  0.28295  1.0000
  I   I213      1.0  0.22167  0.67217  0.01994  1.0000
  I   I214      1.0  0.48943  0.22389  0.23383  1.0000
  I   I215      1.0  0.46385  0.02714  0.04653  1.0000
  I   I216      1.0  0.65093  0.74598  0.50460  1.0000
  I   I217      1.0  0.95492  0.95300  0.86333  1.0000
  I   I218      1.0  0.40754  0.00648  0.32230  1.0000
  I   I219      1.0  0.26696  0.77479  0.34672  1.0000
  I   I220      1.0  0.61075  0.35278  0.92305  1.0000
  I   I221      1.0  0.79052  0.83048  0.15941  1.0000
  I   I222      1.0  0.82179  0.64135  0.14822  1.0000
  I   I223      1.0  0.78418  0.90757  0.29906  1.0000
  I   I224      1.0  0.98602  0.30579  0.78836  1.0000
  I   I225      1.0  0.84493  0.22953  0.53339  1.0000
  I   I226      1.0  0.32318  0.71413  0.22554  1.0000
  I   I227      1.0  0.13839  0.17498  0.10482  1.0000
  I   I228      1.0  0.28746  0.78566  0.90436  1.0000
  I   I229      1.0  0.99354  0.77693  0.99828  1.0000
  I   I230      1.0  0.48998  0.64747  0.65474  1.0000
  I   I231      1.0  0.93108  0.23259  0.89782  1.0000
  I   I232      1.0  0.46190  0.82804  0.92798  1.0000
  I   I233      1.0  0.41015  0.76418  0.50261  1.0000
  I   I234      1.0  0.65776  0.03933  0.54784  1.0000
  I   I235      1.0  0.37923  0.61608  0.53045  1.0000
  I   I236      1.0  0.63062  0.76079  0.59808  1.0000
  I   I237      1.0  0.67531  0.34489  0.19560  1.0000
  I   I238      1.0  0.44232  0.79713  0.68767  1.0000
  I   I239      1.0  0.93248  0.08720  0.01302  1.0000
  I   I240      1.0  0.40833  0.94367  0.94438  1.0000
  I   I241      1.0  0.71959  0.41054  0.57439  1.0000
  I   I242      1.0  0.74972  0.17918  0.52818  1.0000
  I   I243      1.0  0.28162  0.39691  0.00745  1.0000
  I   I244      1.0  0.81540  0.17725  0.75480  1.0000
  I   I245      1.0  0.67595  0.39923  0.71200  1.0000
  I   I246      1.0  0.18036  0.87986  0.83345  1.0000
  I   I247      1.0  0.39290  0.38650  0.86058  1.0000
  I   I248      1.0  0.17228  0.61013  0.83354  1.0000
  I   I249      1.0  0.89962  0.20333  0.73173  1.0000
  I   I250      1.0  0.86536  0.70069  0.91399  1.0000
  I   I251      1.0  0.28914  0.77846  0.60774  1.0000
  I   I252      1.0  0.60680  0.08936  0.13465  1.0000
  I   I253      1.0  0.49897  0.58759  0.43736  1.0000
  I   I254      1.0  0.41975  0.81861  0.03240  1.0000
  I   I255      1.0  0.64134  0.27016  0.44394  1.0000
  I   I256      1.0  0.36360  0.17000  0.57351  1.0000
  I   I257      1.0  0.24401  0.94990  0.99536  1.0000
  I   I258      1.0  0.47805  0.44138  0.55739  1.0000
  I   I259      1.0  0.77837  0.84458  0.62964  1.0000
  I   I260      1.0  0.71505  0.73257  0.58328  1.0000
  I   I261      1.0  0.19790  0.62786  0.74909  1.0000
  I   I262      1.0  0.49313  0.18398  0.16951  1.0000
  I   I263      1.0  0.82637  0.44179  0.23165  1.0000
  I   I264      1.0  0.27455  0.83083  0.86030  1.0000
  I   I265      1.0  0.95899  0.97890  0.03250  1.0000
  I   I266      1.0  0.27573  0.66405  0.94217  1.0000
  I   I267      1.0  0.27036  0.72273  0.29360  1.0000
  I   I268      1.0  0.10218  0.11844  0.13218  1.0000
  I   I269      1.0  0.83750  0.58843  0.66776  1.0000
  I   I270      1.0  0.30403  0.24046  0.06108  1.0000
  I   I271      1.0  0.74481  0.91007  0.22598  1.0000
  I   I272      1.0  0.61532  0.27725  0.15485  1.0000
  I   I273      1.0  0.88679  0.17768  0.53628  1.0000
  I   I274      1.0  0.45729  0.78913  0.47469  1.0000
  I   I275      1.0  0.98015  0.74041  0.44732  1.0000
  I   I276      1.0  0.22801  0.78625  0.93055  1.0000
  I   I277      1.0  0.34385  0.76941  0.16857  1.0000
  I   I278      1.0  0.54647  0.65145  0.69700  1.0000
  I   I279      1.0  0.46683  0.46142  0.13551  1.0000
  I   I280      1.0  0.91866  0.42014  0.33008  1.0000
  I   I281      1.0  0.42885  0.79231  0.56553  1.0000
  I   I282      1.0  0.35701  0.58080  0.50511  1.0000
  I   I283      1.0  0.42022  0.57173  0.45921  1.0000
  I   I284      1.0  0.91246  0.31558  0.70686  1.0000
  I   I285      1.0  0.97163  0.83754  0.90283  1.0000
  I   I286      1.0  0.39598  0.84614  0.66488  1.0000
  I   I287      1.0  0.30248  0.06684  0.64632  1.0000
  I   I288      1.0  0.42727  0.99099  0.88170  1.0000
  I   I289      1.0  0.39655  0.62662  0.43524  1.0000
  I   I290      1.0  0.63712  0.96015  0.64199  1.0000
  I   I291      1.0  0.48155  0.04076  0.10259  1.0000
  I   I292      1.0  0.87861  0.41207  0.33155  1.0000
  I   I293      1.0  0.65429  0.37001  0.70221  1.0000
  I   I294      1.0  0.76190  0.90572  0.56895  1.0000
  I   I295      1.0  0.35484  0.47447  0.76630  1.0000
  I   I296      1.0  0.70238  0.19889  0.80276  1.0000
  I   I297      1.0  0.89554  0.18936  0.83555  1.0000
  I   I298      1.0  0.96835  0.79345  0.08978  1.0000
  I   I299      1.0  0.86412  0.75816  0.87022  1.0000
  I   I300      1.0  0.61059  0.73000  0.59693  1.0000
  I   I301      1.0  0.64153  0.22595  0.46488  1.0000
  I   I302      1.0  0.51680  0.55309  0.49290  1.0000
  I   I303      1.0  0.40110  0.14041  0.52062  1.0000
  I   I304      1.0  0.49531  0.39791  0.50486  1.0000
  I   I305      1.0  0.82350  0.76484  0.06852  1.0000
  I   I306      1.0  0.38953  0.43194  0.91012  1.0000
  I   I307      1.0  0.20526  0.96807  0.10292  1.0000
  I   I308      1.0  0.17889  0.34483  0.76972  1.0000
  I   I309      1.0  0.35489  0.67286  0.26805  1.0000
  I   I310      1.0  0.44715  0.93933  0.15386  1.0000
  I   I311      1.0  0.83420  0.47485  0.12479  1.0000
  I   I312      1.0  0.04928  0.67423  0.51170  1.0000
  I   I313      1.0  0.22288  0.77537  0.32572  1.0000
  I   I314      1.0  0.01318  0.93496  0.86049  1.0000
  I   I315      1.0  0.37061  0.00874  0.26428  1.0000
  I   I316      1.0  0.84293  0.60474  0.08609  1.0000
  I   I317      1.0  0.04819  0.16742  0.07406  1.0000
  I   I318      1.0  0.73611  0.85588  0.18513  1.0000
  I   I319      1.0  0.98001  0.93119  0.60602  1.0000
  I   I320      1.0  0.46911  0.78921  0.99266  1.0000
  I   I321      1.0  0.13089  0.68627  0.84490  1.0000
  I   I322      1.0  0.56716  0.69447  0.89342  1.0000
  I   I323      1.0  0.81433  0.20992  0.26848  1.0000
  I   I324      1.0  0.26466  0.77323  0.81502  1.0000
  I   I325      1.0  0.26397  0.95392  0.07045  1.0000
  I   I326      1.0  0.41824  0.41927  0.81918  1.0000
  I   I327      1.0  0.83716  0.16276  0.34267  1.0000
  I   I328      1.0  0.81570  0.25871  0.96991  1.0000
  I   I329      1.0  0.80127  0.07204  0.43153  1.0000
  I   I330      1.0  0.64519  0.99567  0.57925  1.0000
  I   I331      1.0  0.98125  0.83472  0.79603  1.0000
  I   I332      1.0  0.64739  0.04699  0.65779  1.0000
  I   I333      1.0  0.59187  0.73623  0.83297  1.0000
  I   I334      1.0  0.38279  0.97903  0.02956  1.0000
  I   I335      1.0  0.30230  0.43487  0.03929  1.0000
  I   I336      1.0  0.87490  0.14165  0.05926  1.0000
  I   I337      1.0  0.46349  0.92031  0.24970  1.0000
  I   I338      1.0  0.16684  0.40780  0.73949  1.0000
  I   I339      1.0  0.49815  0.97854  0.04961  1.0000
  I   I340      1.0  0.96781  0.59102  0.11900  1.0000
  I   I341      1.0  0.88255  0.28808  0.73185  1.0000
  I   I342      1.0  0.73733  0.96463  0.59324  1.0000
  I   I343      1.0  0.14073  0.72124  0.76919  1.0000
  I   I344      1.0  0.73519  0.14918  0.71132  1.0000
  I   I345      1.0  0.94081  0.19812  0.77656  1.0000
  I   I346      1.0  0.25414  0.88790  0.55803  1.0000
  I   I347      1.0  0.82422  0.74116  0.86893  1.0000
  I   I348      1.0  0.55263  0.14823  0.23250  1.0000
  I   I349      1.0  0.58659  0.27617  0.41981  1.0000
  I   I350      1.0  0.53791  0.56192  0.36623  1.0000
  I   I351      1.0  0.41194  0.84556  0.92269  1.0000
  I   I352      1.0  0.47034  0.45647  0.44730  1.0000
  I   I353      1.0  0.41205  0.11828  0.62303  1.0000
  I   I354      1.0  0.30111  0.47227  0.79117  1.0000
  I   I355      1.0  0.57683  0.15585  0.15095  1.0000
  I   I356      1.0  0.25831  0.45012  0.99249  1.0000
  I   I357      1.0  0.25297  0.71011  0.91998  1.0000
  I   I358      1.0  0.93073  0.34127  0.59650  1.0000
  I   I359      1.0  0.84156  0.42297  0.14598  1.0000
  I   I360      1.0  0.30965  0.06802  0.55682  1.0000
  I   I361      1.0  0.98685  0.78636  0.51163  1.0000
  I   I362      1.0  0.00172  0.92480  0.01550  1.0000
  I   I363      1.0  0.20065  0.71808  0.06389  1.0000
  I   I364      1.0  0.47414  0.55370  0.91057  1.0000
  I   I365      1.0  0.60164  0.40596  0.73160  1.0000
  I   I366      1.0  0.77727  0.85780  0.24811  1.0000
  I   I367      1.0  0.96295  0.87807  0.61871  1.0000
  I   I368      1.0  0.97794  0.53729  0.10505  1.0000
  I   I369      1.0  0.49604  0.02855  0.96384  1.0000
  I   I370      1.0  0.94314  0.15085  0.81459  1.0000
  I   I371      1.0  0.78878  0.19565  0.32940  1.0000
  I   I372      1.0  0.86135  0.32918  0.78711  1.0000
  I   I373      1.0  0.27335  0.95615  0.16336  1.0000
  I   I374      1.0  0.50045  0.69402  0.68690  1.0000
  I   I375      1.0  0.83723  0.15540  0.24153  1.0000
  I   I376      1.0  0.86582  0.45244  0.20227  1.0000
  I   I377      1.0  0.85779  0.03981  0.46066  1.0000
  I   I378      1.0  0.39711  0.57039  0.57448  1.0000
  I   I379      1.0  0.65602  0.32994  0.29141  1.0000
  I   I380      1.0  0.84582  0.26081  0.31363  1.0000
  I   I381      1.0  0.53984  0.09286  0.17554  1.0000
  I   I382      1.0  0.44935  0.93301  0.87443  1.0000
  I   I383      1.0  0.32030  0.77708  0.52713  1.0000
  I   I384      1.0  0.32383  0.01044  0.59719  1.0000
