data_image0
_chemical_formula_structural       Ti96I384
_chemical_formula_sum              "Ti96 I384"
_cell_length_a       52.8637
_cell_length_b       53
_cell_length_c       25.5792
_cell_angle_alpha    88.7757
_cell_angle_beta     88.7757
_cell_angle_gamma    62.1586

_space_group_name_H-M_alt    "P 1"
_space_group_IT_number       1

loop_
  _space_group_symop_operation_xyz
  'x, y, z'

loop_
  _atom_site_type_symbol
  _atom_site_label
  _atom_site_symmetry_multiplicity
  _atom_site_fract_x
  _atom_site_fract_y
  _atom_site_fract_z
  _atom_site_occupancy
  Ti  Ti1       1.0  0.61596  0.74173  0.30570  1.0000
  Ti  Ti2       1.0  0.04311  0.02405  0.26523  1.0000
  Ti  Ti3       1.0  0.45508  0.86751  0.24941  1.0000
  Ti  Ti4       1.0  0.23962  0.02379  0.49081  1.0000
  Ti  Ti5       1.0  0.14231  0.27608  0.42734  1.0000
  Ti  Ti6       1.0  0.13463  0.20738  0.91875  1.0000
  Ti  Ti7       1.0  0.01841  0.82668  0.20920  1.0000
  Ti  Ti8       1.0  0.96462  0.08246  0.54590  1.0000
  Ti  Ti9       1.0  0.89339  0.82389  0.34941  1.0000
  Ti  Ti10      1.0  0.35059  0.75223  0.96839  1.0000
  Ti  Ti11      1.0  0.87917  0.79457  0.84456  1.0000
  Ti  Ti12      1.0  0.04013  0.66622  0.94477  1.0000
  Ti  Ti13      1.0  0.35431  0.21222  0.30519  1.0000
  Ti  Ti14      1.0  0.36703  0.13243  0.62091  1.0000
  Ti  Ti15      1.0  0.31551  0.13790  0.07900  1.0000
  Ti  Ti16      1.0  0.20257  0.64159  0.08455  1.0000
  Ti  Ti17      1.0  0.21544  0.60526  0.37283  1.0000
  Ti  Ti18      1.0  0.27801  0.39631  0.44418  1.0000
  Ti  Ti19      1.0  0.44889  0.70105  0.64396  1.0000
  Ti  Ti20      1.0  0.65144  0.81404  0.76406  1.0000
  Ti  Ti21      1.0  0.29298  0.53632  0.80037  1.0000
  Ti  Ti22      1.0  0.40703  0.91056  0.87401  1.0000
  Ti  Ti23      1.0  0.76813  0.84885  0.10683  1.0000
  Ti  Ti24      1.0  0.47270  0.89605  0.58830  1.0000
  Ti  Ti25      1.0  0.30061  0.27627  0.80072  1.0000
  Ti  Ti26      1.0  0.35660  0.31107  0.98624  1.0000
  Ti  Ti27      1.0  0.51571  0.47090  0.49486  1.0000
  Ti  Ti28      1.0  0.41076  0.64688  0.22568  1.0000
  Ti  Ti29      1.0  0.66476  0.39767  0.96375  1.0000
  Ti  Ti30      1.0  0.69294  0.52754  0.87982  1.0000
  Ti  Ti31      1.0  0.92774  0.45911  0.08379  1.0000
  Ti  Ti32      1.0  0.78766  0.38650  0.65662  1.0000
  Ti  Ti33      1.0  0.90217  0.53008  0.80664  1.0000
  Ti  Ti34      1.0  0.85365  0.99209  0.85205  1.0000
  Ti  Ti35      1.0  0.75339  0.65333  0.02984  1.0000
  Ti  Ti36      1.0  0.81356  0.60301  0.53802  1.0000
  Ti  Ti37      1.0  0.66992  0.22582  0.24005  1.0000
  Ti  Ti38      1.0  0.58038  0.37384  0.31746  1.0000
  Ti  Ti39      1.0  0.49159  0.34531  0.89522  1.0000
  Ti  Ti40      1.0  0.96109  0.15774  0.94792  1.0000
  Ti  Ti41      1.0  0.76349  0.23354  0.64200  1.0000
  Ti  Ti42      1.0  0.26283  0.82545  0.30703  1.0000
  Ti  Ti43      1.0  0.78689  0.39691  0.19725  1.0000
  Ti  Ti44      1.0  0.04196  0.45432  0.49183  1.0000
  Ti  Ti45      1.0  0.11349  0.47049  0.74691  1.0000
  Ti  Ti46      1.0  0.67667  0.00596  0.54900  1.0000
  Ti  Ti47      1.0  0.57025  0.07806  0.27849  1.0000
  Ti  Ti48      1.0  0.60198  0.14546  0.80440  1.0000
  Ti  Ti49      1.0  0.53610  0.79444  0.31590  1.0000
  Ti  Ti50      1.0  0.01879  0.96118  0.23635  1.0000
  Ti  Ti51      1.0  0.06017  0.07144  0.31275  1.0000
  Ti  Ti52      1.0  0.29391  0.94283  0.43286  1.0000
  Ti  Ti53      1.0  0.12637  0.21205  0.44786  1.0000
  Ti  Ti54      1.0  0.11166  0.24901  0.79796  1.0000
  Ti  Ti55      1.0  0.93765  0.84669  0.22807  1.0000
  Ti  Ti56      1.0  0.93957  0.04777  0.55767  1.0000
  Ti  Ti57      1.0  0.81725  0.86750  0.38794  1.0000
  Ti  Ti58      1.0  0.29781  0.84082  0.91407  1.0000
  Ti  Ti59      1.0  0.30187  0.71132  0.93386  1.0000
  Ti  Ti60      1.0  0.94974  0.71138  0.86708  1.0000
  Ti  Ti61      1.0  0.30823  0.17616  0.19441  1.0000
  Ti  Ti62      1.0  0.40180  0.24748  0.30696  1.0000
  Ti  Ti63      1.0  0.30556  0.14061  0.65388  1.0000
  Ti  Ti64      1.0  0.20453  0.44676  0.38186  1.0000
  Ti  Ti65      1.0  0.20706  0.61678  0.23418  1.0000
  Ti  Ti66      1.0  0.10736  0.63331  0.46312  1.0000
  Ti  Ti67      1.0  0.49865  0.65083  0.72481  1.0000
  Ti  Ti68      1.0  0.72855  0.79300  0.80357  1.0000
  Ti  Ti69      1.0  0.32132  0.50532  0.70427  1.0000
  Ti  Ti70      1.0  0.44154  0.92795  0.72766  1.0000
  Ti  Ti71      1.0  0.81449  0.78407  0.09448  1.0000
  Ti  Ti72      1.0  0.67236  0.92708  0.14070  1.0000
  Ti  Ti73      1.0  0.52367  0.48854  0.64437  1.0000
  Ti  Ti74      1.0  0.28814  0.35896  0.86165  1.0000
  Ti  Ti75      1.0  0.32619  0.39727  0.03848  1.0000
  Ti  Ti76      1.0  0.64722  0.60658  0.83916  1.0000
  Ti  Ti77      1.0  0.49287  0.57902  0.20229  1.0000
  Ti  Ti78      1.0  0.66834  0.45211  0.87155  1.0000
  Ti  Ti79      1.0  0.92235  0.46336  0.91369  1.0000
  Ti  Ti80      1.0  0.99283  0.41585  0.19875  1.0000
  Ti  Ti81      1.0  0.84135  0.37036  0.73978  1.0000
  Ti  Ti82      1.0  0.81536  0.07795  0.92496  1.0000
  Ti  Ti83      1.0  0.73723  0.60472  0.15835  1.0000
  Ti  Ti84      1.0  0.76203  0.67438  0.54962  1.0000
  Ti  Ti85      1.0  0.66424  0.16654  0.18415  1.0000
  Ti  Ti86      1.0  0.61892  0.33157  0.18640  1.0000
  Ti  Ti87      1.0  0.43648  0.41426  0.91063  1.0000
  Ti  Ti88      1.0  0.98629  0.09969  0.90674  1.0000
  Ti  Ti89      1.0  0.75302  0.18236  0.72773  1.0000
  Ti  Ti90      1.0  0.24345  0.77889  0.28317  1.0000
  Ti  Ti91      1.0  0.16513  0.48760  0.67936  1.0000
  Ti  Ti92      1.0  0.82101  0.34088  0.12122  1.0000
  Ti  Ti93      1.0  0.06098  0.50800  0.58663  1.0000
  Ti  Ti94      1.0  0.56437  0.16310  0.93180  1.0000
  Ti  Ti95      1.0  0.68124  0.94279  0.57430  1.0000
  Ti  Ti96      1.0  0.51222  0.12317  0.20174  1.0000
  I   I1        1.0  0.98877  0.95562  0.31111  1.0000
  I   I2        1.0  0.02932  0.07310  0.20965  1.0000
  I   I3        1.0  0.49102  0.81585  0.21570  1.0000
  I   I4        1.0  0.15633  0.16005  0.42080  1.0000
  I   I5        1.0  0.14676  0.25702  0.86489  1.0000
  I   I6        1.0  0.17564  0.16872  0.85304  1.0000
  I   I7        1.0  0.90801  0.11180  0.53352  1.0000
  I   I8        1.0  0.97789  0.11557  0.48371  1.0000
  I   I9        1.0  0.90638  0.86539  0.31881  1.0000
  I   I10       1.0  0.33795  0.71355  0.01099  1.0000
  I   I11       1.0  0.88971  0.74673  0.90619  1.0000
  I   I12       1.0  0.30761  0.86709  0.83586  1.0000
  I   I13       1.0  0.38904  0.21333  0.21968  1.0000
  I   I14       1.0  0.35203  0.13133  0.73282  1.0000
  I   I15       1.0  0.28468  0.20191  0.10542  1.0000
  I   I16       1.0  0.15938  0.65937  0.17801  1.0000
  I   I17       1.0  0.06089  0.63298  0.49847  1.0000
  I   I18       1.0  0.22208  0.41588  0.48602  1.0000
  I   I19       1.0  0.70880  0.77487  0.72580  1.0000
  I   I20       1.0  0.35853  0.45226  0.75318  1.0000
  I   I21       1.0  0.27502  0.59191  0.83527  1.0000
  I   I22       1.0  0.84859  0.74774  0.15891  1.0000
  I   I23       1.0  0.76928  0.81632  0.18395  1.0000
  I   I24       1.0  0.49179  0.88793  0.69347  1.0000
  I   I25       1.0  0.23572  0.39304  0.85198  1.0000
  I   I26       1.0  0.37173  0.35769  0.97083  1.0000
  I   I27       1.0  0.46258  0.49430  0.52423  1.0000
  I   I28       1.0  0.46593  0.63962  0.20769  1.0000
  I   I29       1.0  0.62161  0.45408  0.92540  1.0000
  I   I30       1.0  0.64984  0.55334  0.81276  1.0000
  I   I31       1.0  0.98948  0.40942  0.08729  1.0000
  I   I32       1.0  0.82716  0.41454  0.66629  1.0000
  I   I33       1.0  0.95509  0.48107  0.84586  1.0000
  I   I34       1.0  0.80745  0.64010  0.01715  1.0000
  I   I35       1.0  0.72657  0.66406  0.60791  1.0000
  I   I36       1.0  0.86207  0.08406  0.91821  1.0000
  I   I37       1.0  0.61760  0.28031  0.26245  1.0000
  I   I38       1.0  0.38545  0.43644  0.95862  1.0000
  I   I39       1.0  0.60965  0.18096  0.15555  1.0000
  I   I40       1.0  0.78657  0.12693  0.74839  1.0000
  I   I41       1.0  0.19903  0.76645  0.26223  1.0000
  I   I42       1.0  0.94412  0.10026  0.97630  1.0000
  I   I43       1.0  0.82178  0.29216  0.10144  1.0000
  I   I44       1.0  0.01598  0.50013  0.56180  1.0000
  I   I45       1.0  0.08547  0.51329  0.80499  1.0000
  I   I46       1.0  0.69841  0.97814  0.64288  1.0000
  I   I47       1.0  0.54618  0.04462  0.25811  1.0000
  I   I48       1.0  0.62520  0.13424  0.91622  1.0000
  I   I49       1.0  0.55404  0.79413  0.40279  1.0000
  I   I50       1.0  0.05236  0.99028  0.17497  1.0000
  I   I51       1.0  0.09957  0.05824  0.38854  1.0000
  I   I52       1.0  0.21149  0.03310  0.58347  1.0000
  I   I53       1.0  0.09010  0.27865  0.47201  1.0000
  I   I54       1.0  0.14242  0.23174  0.71193  1.0000
  I   I55       1.0  0.96866  0.84675  0.13512  1.0000
  I   I56       1.0  0.97158  0.99278  0.57107  1.0000
  I   I57       1.0  0.83389  0.84826  0.29301  1.0000
  I   I58       1.0  0.40554  0.71373  0.94089  1.0000
  I   I59       1.0  0.26434  0.70574  0.99018  1.0000
  I   I60       1.0  0.01253  0.67833  0.84787  1.0000
  I   I61       1.0  0.35195  0.16520  0.27055  1.0000
  I   I62       1.0  0.45487  0.21126  0.28547  1.0000
  I   I63       1.0  0.38323  0.07336  0.63131  1.0000
  I   I64       1.0  0.25420  0.61802  0.05599  1.0000
  I   I65       1.0  0.25703  0.57988  0.28456  1.0000
  I   I66       1.0  0.09359  0.68077  0.41846  1.0000
  I   I67       1.0  0.53172  0.59469  0.70455  1.0000
  I   I68       1.0  0.61405  0.79353  0.75533  1.0000
  I   I69       1.0  0.34150  0.53397  0.75665  1.0000
  I   I70       1.0  0.39217  0.94616  0.78816  1.0000
  I   I71       1.0  0.78919  0.82747  0.01270  1.0000
  I   I72       1.0  0.68992  0.96485  0.13095  1.0000
  I   I73       1.0  0.52442  0.42163  0.45563  1.0000
  I   I74       1.0  0.35479  0.30859  0.87953  1.0000
  I   I75       1.0  0.27441  0.41931  0.08602  1.0000
  I   I76       1.0  0.41212  0.60655  0.28680  1.0000
  I   I77       1.0  0.52817  0.58902  0.25687  1.0000
  I   I78       1.0  0.70801  0.46595  0.83123  1.0000
  I   I79       1.0  0.90841  0.44178  0.99588  1.0000
  I   I80       1.0  0.98658  0.44112  0.29046  1.0000
  I   I81       1.0  0.78495  0.39247  0.76206  1.0000
  I   I82       1.0  0.82935  0.96236  0.87638  1.0000
  I   I83       1.0  0.73381  0.70909  0.04174  1.0000
  I   I84       1.0  0.72151  0.71824  0.50654  1.0000
  I   I85       1.0  0.65652  0.21887  0.13423  1.0000
  I   I86       1.0  0.65172  0.33892  0.11928  1.0000
  I   I87       1.0  0.44480  0.37391  0.98787  1.0000
  I   I88       1.0  0.96883  0.20174  0.96567  1.0000
  I   I89       1.0  0.79508  0.25610  0.66993  1.0000
  I   I90       1.0  0.26691  0.85820  0.37798  1.0000
  I   I91       1.0  0.16897  0.48978  0.57148  1.0000
  I   I92       1.0  0.81045  0.33653  0.22872  1.0000
  I   I93       1.0  0.10673  0.50719  0.64525  1.0000
  I   I94       1.0  0.51698  0.16985  0.96374  1.0000
  I   I95       1.0  0.64643  0.94595  0.49478  1.0000
  I   I96       1.0  0.49743  0.17417  0.16259  1.0000
  I   I97       1.0  0.50199  0.85617  0.31268  1.0000
  I   I98       1.0  0.63424  0.71691  0.39587  1.0000
  I   I99       1.0  0.09757  0.01475  0.25276  1.0000
  I   I100      1.0  0.32327  0.92913  0.35091  1.0000
  I   I101      1.0  0.27755  0.03451  0.52481  1.0000
  I   I102      1.0  0.11105  0.32935  0.39699  1.0000
  I   I103      1.0  0.90668  0.81688  0.23557  1.0000
  I   I104      1.0  0.04507  0.81243  0.29791  1.0000
  I   I105      1.0  0.79103  0.85973  0.46754  1.0000
  I   I106      1.0  0.05626  0.61230  0.94472  1.0000
  I   I107      1.0  0.34012  0.73303  0.87406  1.0000
  I   I108      1.0  0.93956  0.72031  0.76912  1.0000
  I   I109      1.0  0.26505  0.18545  0.25518  1.0000
  I   I110      1.0  0.39902  0.19458  0.37499  1.0000
  I   I111      1.0  0.41252  0.13811  0.63169  1.0000
  I   I112      1.0  0.25313  0.40988  0.33683  1.0000
  I   I113      1.0  0.21779  0.58494  0.14203  1.0000
  I   I114      1.0  0.25686  0.60207  0.43058  1.0000
  I   I115      1.0  0.46127  0.63887  0.66791  1.0000
  I   I116      1.0  0.44443  0.69791  0.53855  1.0000
  I   I117      1.0  0.61661  0.85961  0.81602  1.0000
  I   I118      1.0  0.44596  0.96732  0.65901  1.0000
  I   I119      1.0  0.43739  0.87187  0.94638  1.0000
  I   I120      1.0  0.70527  0.88258  0.07048  1.0000
  I   I121      1.0  0.54836  0.49105  0.52806  1.0000
  I   I122      1.0  0.28037  0.30969  0.88965  1.0000
  I   I123      1.0  0.40860  0.26979  0.98565  1.0000
  I   I124      1.0  0.72531  0.54466  0.83151  1.0000
  I   I125      1.0  0.39598  0.68942  0.29059  1.0000
  I   I126      1.0  0.70545  0.42149  0.95135  1.0000
  I   I127      1.0  0.87484  0.51869  0.90465  1.0000
  I   I128      1.0  0.91047  0.43408  0.15348  1.0000
  I   I129      1.0  0.74119  0.43740  0.66714  1.0000
  I   I130      1.0  0.81624  0.63378  0.62364  1.0000
  I   I131      1.0  0.80110  0.04826  0.83749  1.0000
  I   I132      1.0  0.78319  0.54968  0.16890  1.0000
  I   I133      1.0  0.43644  0.46247  0.88113  1.0000
  I   I134      1.0  0.67984  0.26604  0.18511  1.0000
  I   I135      1.0  0.52952  0.37982  0.29964  1.0000
  I   I136      1.0  0.24345  0.86295  0.23440  1.0000
  I   I137      1.0  0.96983  0.08341  0.82690  1.0000
  I   I138      1.0  0.80923  0.17675  0.69148  1.0000
  I   I139      1.0  0.16505  0.46717  0.78356  1.0000
  I   I140      1.0  0.86947  0.33608  0.15375  1.0000
  I   I141      1.0  0.09711  0.45829  0.53027  1.0000
  I   I142      1.0  0.62794  0.18118  0.79203  1.0000
  I   I143      1.0  0.72088  0.95526  0.51469  1.0000
  I   I144      1.0  0.57607  0.08687  0.17659  1.0000
  I   I145      1.0  0.57415  0.79441  0.24594  1.0000
  I   I146      1.0  0.99042  0.02461  0.25646  1.0000
  I   I147      1.0  0.41516  0.85229  0.23302  1.0000
  I   I148      1.0  0.30402  0.89390  0.47364  1.0000
  I   I149      1.0  0.11694  0.21159  0.55054  1.0000
  I   I150      1.0  0.08454  0.25956  0.91641  1.0000
  I   I151      1.0  0.98140  0.79672  0.24819  1.0000
  I   I152      1.0  0.01623  0.03662  0.54700  1.0000
  I   I153      1.0  0.87139  0.84579  0.44204  1.0000
  I   I154      1.0  0.36647  0.76321  0.05376  1.0000
  I   I155      1.0  0.87280  0.84282  0.88362  1.0000
  I   I156      1.0  0.93955  0.66744  0.87600  1.0000
  I   I157      1.0  0.30904  0.22484  0.22042  1.0000
  I   I158      1.0  0.36372  0.12370  0.52085  1.0000
  I   I159      1.0  0.26770  0.14138  0.03606  1.0000
  I   I160      1.0  0.32027  0.40014  0.40625  1.0000
  I   I161      1.0  0.18163  0.59121  0.28616  1.0000
  I   I162      1.0  0.29941  0.34340  0.41456  1.0000
  I   I163      1.0  0.50560  0.64531  0.82794  1.0000
  I   I164      1.0  0.74390  0.80476  0.89460  1.0000
  I   I165      1.0  0.25658  0.51752  0.82538  1.0000
  I   I166      1.0  0.46370  0.94845  0.80617  1.0000
  I   I167      1.0  0.82316  0.83182  0.14331  1.0000
  I   I168      1.0  0.43687  0.91544  0.51556  1.0000
  I   I169      1.0  0.30690  0.23100  0.85926  1.0000
  I   I170      1.0  0.30090  0.36077  0.96567  1.0000
  I   I171      1.0  0.54352  0.43092  0.58364  1.0000
  I   I172      1.0  0.67161  0.63686  0.86065  1.0000
  I   I173      1.0  0.65262  0.41530  0.05361  1.0000
  I   I174      1.0  0.66238  0.49992  0.92923  1.0000
  I   I175      1.0  0.95045  0.47990  0.99824  1.0000
  I   I176      1.0  0.84428  0.33575  0.65768  1.0000
  I   I177      1.0  0.92922  0.53006  0.72109  1.0000
  I   I178      1.0  0.86475  0.01451  0.93743  1.0000
  I   I179      1.0  0.71098  0.65933  0.11528  1.0000
  I   I180      1.0  0.77069  0.60943  0.47571  1.0000
  I   I181      1.0  0.64301  0.20155  0.29242  1.0000
  I   I182      1.0  0.63829  0.33954  0.28391  1.0000
  I   I183      1.0  0.49240  0.29770  0.87084  1.0000
  I   I184      1.0  0.92145  0.17275  0.87183  1.0000
  I   I185      1.0  0.75936  0.24518  0.54738  1.0000
  I   I186      1.0  0.27798  0.72146  0.27057  1.0000
  I   I187      1.0  0.75505  0.37662  0.13484  1.0000
  I   I188      1.0  0.06881  0.40046  0.52126  1.0000
  I   I189      1.0  0.07046  0.46454  0.69382  1.0000
  I   I190      1.0  0.70422  0.03663  0.52858  1.0000
  I   I191      1.0  0.57660  0.07821  0.38239  1.0000
  I   I192      1.0  0.58504  0.16158  0.70558  1.0000
  I   I193      1.0  0.64726  0.76551  0.28760  1.0000
  I   I194      1.0  0.05975  0.96769  0.30727  1.0000
  I   I195      1.0  0.42546  0.91240  0.30593  1.0000
  I   I196      1.0  0.20611  0.07072  0.44601  1.0000
  I   I197      1.0  0.13371  0.24090  0.35835  1.0000
  I   I198      1.0  0.10955  0.18051  0.95492  1.0000
  I   I199      1.0  0.02784  0.86394  0.15672  1.0000
  I   I200      1.0  0.89161  0.04458  0.53875  1.0000
  I   I201      1.0  0.86647  0.79088  0.37192  1.0000
  I   I202      1.0  0.35384  0.79323  0.89939  1.0000
  I   I203      1.0  0.88261  0.81108  0.74861  1.0000
  I   I204      1.0  0.05435  0.66960  0.04195  1.0000
  I   I205      1.0  0.31209  0.22076  0.37106  1.0000
  I   I206      1.0  0.31976  0.18393  0.61909  1.0000
  I   I207      1.0  0.33086  0.14835  0.98700  1.0000
  I   I208      1.0  0.17748  0.62149  0.01603  1.0000
  I   I209      1.0  0.21629  0.55815  0.40238  1.0000
  I   I210      1.0  0.29516  0.38053  0.54040  1.0000
  I   I211      1.0  0.45483  0.74682  0.63340  1.0000
  I   I212      1.0  0.77372  0.78666  0.75098  1.0000
  I   I213      1.0  0.26980  0.55572  0.70127  1.0000
  I   I214      1.0  0.36802  0.89567  0.86345  1.0000
  I   I215      1.0  0.76680  0.90052  0.08662  1.0000
  I   I216      1.0  0.51442  0.90505  0.54405  1.0000
  I   I217      1.0  0.26575  0.28811  0.72536  1.0000
  I   I218      1.0  0.33658  0.27812  0.02668  1.0000
  I   I219      1.0  0.49183  0.47588  0.70455  1.0000
  I   I220      1.0  0.35862  0.66503  0.18861  1.0000
  I   I221      1.0  0.62580  0.38150  0.93193  1.0000
  I   I222      1.0  0.72551  0.50388  0.96239  1.0000
  I   I223      1.0  0.87975  0.51071  0.09437  1.0000
  I   I224      1.0  0.76682  0.35128  0.66261  1.0000
  I   I225      1.0  0.86937  0.51226  0.76600  1.0000
  I   I226      1.0  0.90919  0.95343  0.85613  1.0000
  I   I227      1.0  0.74761  0.65181  0.92844  1.0000
  I   I228      1.0  0.86329  0.58770  0.48978  1.0000
  I   I229      1.0  0.71497  0.16778  0.21436  1.0000
  I   I230      1.0  0.57836  0.42089  0.34680  1.0000
  I   I231      1.0  0.43967  0.38723  0.82366  1.0000
  I   I232      1.0  0.92801  0.16460  0.02538  1.0000
  I   I233      1.0  0.70567  0.18253  0.75046  1.0000
  I   I234      1.0  0.26655  0.78387  0.19074  1.0000
  I   I235      1.0  0.76145  0.42381  0.28775  1.0000
  I   I236      1.0  0.99775  0.45413  0.45545  1.0000
  I   I237      1.0  0.16204  0.43128  0.67523  1.0000
  I   I238      1.0  0.65452  0.01019  0.45696  1.0000
  I   I239      1.0  0.62690  0.05434  0.27334  1.0000
  I   I240      1.0  0.64197  0.09734  0.77377  1.0000
  I   I241      1.0  0.64018  0.69640  0.24789  1.0000
  I   I242      1.0  0.04303  0.03898  0.36561  1.0000
  I   I243      1.0  0.44946  0.89923  0.16740  1.0000
  I   I244      1.0  0.23792  0.97277  0.49773  1.0000
  I   I245      1.0  0.19335  0.26152  0.38385  1.0000
  I   I246      1.0  0.17137  0.19054  0.99150  1.0000
  I   I247      1.0  0.05435  0.77906  0.16851  1.0000
  I   I248      1.0  0.95495  0.05357  0.45897  1.0000
  I   I249      1.0  0.94518  0.79025  0.38188  1.0000
  I   I250      1.0  0.29613  0.79890  0.98609  1.0000
  I   I251      1.0  0.82362  0.81355  0.85114  1.0000
  I   I252      1.0  0.08062  0.67843  0.90030  1.0000
  I   I253      1.0  0.34216  0.27194  0.28313  1.0000
  I   I254      1.0  0.26851  0.16546  0.73453  1.0000
  I   I255      1.0  0.34967  0.08133  0.06498  1.0000
  I   I256      1.0  0.18124  0.69519  0.04874  1.0000
  I   I257      1.0  0.17881  0.62241  0.45803  1.0000
  I   I258      1.0  0.20230  0.47113  0.28603  1.0000
  I   I259      1.0  0.39358  0.72521  0.65600  1.0000
  I   I260      1.0  0.68880  0.84996  0.78342  1.0000
  I   I261      1.0  0.31798  0.51559  0.89373  1.0000
  I   I262      1.0  0.38300  0.95413  0.94054  1.0000
  I   I263      1.0  0.72982  0.88579  0.18990  1.0000
  I   I264      1.0  0.48664  0.84347  0.57628  1.0000
  I   I265      1.0  0.35247  0.25560  0.75180  1.0000
  I   I266      1.0  0.34784  0.33407  0.08342  1.0000
  I   I267      1.0  0.50553  0.49630  0.40199  1.0000
  I   I268      1.0  0.44434  0.59617  0.14698  1.0000
  I   I269      1.0  0.70476  0.34769  0.99068  1.0000
  I   I270      1.0  0.65406  0.57760  0.94025  1.0000
  I   I271      1.0  0.95443  0.47396  0.15198  1.0000
  I   I272      1.0  0.77966  0.39404  0.55381  1.0000
  I   I273      1.0  0.87479  0.58555  0.78776  1.0000
  I   I274      1.0  0.86686  0.98174  0.75110  1.0000
  I   I275      1.0  0.73614  0.61958  0.25359  1.0000
  I   I276      1.0  0.82046  0.55376  0.57296  1.0000
  I   I277      1.0  0.70985  0.21386  0.30877  1.0000
  I   I278      1.0  0.57770  0.34815  0.40347  1.0000
  I   I279      1.0  0.51694  0.32281  0.98582  1.0000
  I   I280      1.0  0.01380  0.12951  0.86918  1.0000
  I   I281      1.0  0.74425  0.18831  0.62396  1.0000
  I   I282      1.0  0.31557  0.80643  0.27517  1.0000
  I   I283      1.0  0.76823  0.44254  0.15095  1.0000
  I   I284      1.0  0.05840  0.46207  0.40215  1.0000
  I   I285      1.0  0.12369  0.42580  0.80415  1.0000
  I   I286      1.0  0.63722  0.04354  0.60622  1.0000
  I   I287      1.0  0.53201  0.13875  0.29016  1.0000
  I   I288      1.0  0.57052  0.11811  0.86043  1.0000
  I   I289      1.0  0.56266  0.73924  0.29715  1.0000
  I   I290      1.0  0.99901  0.96015  0.14727  1.0000
  I   I291      1.0  0.00697  0.11263  0.33050  1.0000
  I   I292      1.0  0.26755  0.00140  0.38373  1.0000
  I   I293      1.0  0.07825  0.21997  0.39870  1.0000
  I   I294      1.0  0.08184  0.29763  0.76125  1.0000
  I   I295      1.0  0.96371  0.88069  0.25717  1.0000
  I   I296      1.0  0.95106  0.06131  0.65849  1.0000
  I   I297      1.0  0.82558  0.91295  0.37488  1.0000
  I   I298      1.0  0.25028  0.84263  0.87179  1.0000
  I   I299      1.0  0.32689  0.65922  0.90713  1.0000
  I   I300      1.0  0.98318  0.68914  0.97136  1.0000
  I   I301      1.0  0.35726  0.14439  0.13379  1.0000
  I   I302      1.0  0.39682  0.25926  0.40435  1.0000
  I   I303      1.0  0.27291  0.15887  0.57356  1.0000
  I   I304      1.0  0.21737  0.48604  0.41583  1.0000
  I   I305      1.0  0.19907  0.65549  0.30618  1.0000
  I   I306      1.0  0.11182  0.59728  0.39262  1.0000
  I   I307      1.0  0.44984  0.70556  0.75861  1.0000
  I   I308      1.0  0.64351  0.83846  0.66908  1.0000
  I   I309      1.0  0.29418  0.47478  0.69169  1.0000
  I   I310      1.0  0.45014  0.88227  0.79978  1.0000
  I   I311      1.0  0.78265  0.75535  0.07395  1.0000
  I   I312      1.0  0.65466  0.92084  0.22983  1.0000
  I   I313      1.0  0.49159  0.54269  0.62822  1.0000
  I   I314      1.0  0.30655  0.39420  0.82452  1.0000
  I   I315      1.0  0.31549  0.42925  0.95406  1.0000
  I   I316      1.0  0.59289  0.64333  0.85294  1.0000
  I   I317      1.0  0.52275  0.56635  0.11493  1.0000
  I   I318      1.0  0.63300  0.47913  0.78578  1.0000
  I   I319      1.0  0.96945  0.41110  0.90856  1.0000
  I   I320      1.0  0.04545  0.40440  0.17595  1.0000
  I   I321      1.0  0.84806  0.39976  0.82023  1.0000
  I   I322      1.0  0.76937  0.12665  0.91602  1.0000
  I   I323      1.0  0.75778  0.59847  0.05105  1.0000
  I   I324      1.0  0.79790  0.65975  0.46687  1.0000
  I   I325      1.0  0.68540  0.12772  0.11554  1.0000
  I   I326      1.0  0.57921  0.38337  0.20579  1.0000
  I   I327      1.0  0.53444  0.34060  0.83198  1.0000
  I   I328      1.0  0.02255  0.04857  0.93430  1.0000
  I   I329      1.0  0.71786  0.26111  0.70640  1.0000
  I   I330      1.0  0.27355  0.78040  0.36894  1.0000
  I   I331      1.0  0.22138  0.45996  0.67080  1.0000
  I   I332      1.0  0.83312  0.39952  0.23690  1.0000
  I   I333      1.0  0.03442  0.54837  0.65716  1.0000
  I   I334      1.0  0.54831  0.20484  0.86029  1.0000
  I   I335      1.0  0.65147  0.94586  0.65879  1.0000
  I   I336      1.0  0.46785  0.12790  0.25361  1.0000
  I   I337      1.0  0.48189  0.80519  0.34949  1.0000
  I   I338      1.0  0.05679  0.90569  0.23354  1.0000
  I   I339      1.0  0.07313  0.10802  0.26356  1.0000
  I   I340      1.0  0.33318  0.94753  0.48459  1.0000
  I   I341      1.0  0.15738  0.28057  0.52176  1.0000
  I   I342      1.0  0.09851  0.20630  0.80398  1.0000
  I   I343      1.0  0.89846  0.89446  0.18180  1.0000
  I   I344      1.0  0.97859  0.11323  0.62001  1.0000
  I   I345      1.0  0.76896  0.90630  0.35180  1.0000
  I   I346      1.0  0.26328  0.88798  0.95577  1.0000
  I   I347      1.0  0.26817  0.73757  0.85734  1.0000
  I   I348      1.0  0.94232  0.76633  0.88416  1.0000
  I   I349      1.0  0.31397  0.11841  0.19058  1.0000
  I   I350      1.0  0.40924  0.28716  0.25846  1.0000
  I   I351      1.0  0.30624  0.09277  0.64667  1.0000
  I   I352      1.0  0.14993  0.47050  0.40406  1.0000
  I   I353      1.0  0.22748  0.65158  0.17463  1.0000
  I   I354      1.0  0.14025  0.61357  0.54837  1.0000
  I   I355      1.0  0.52115  0.67757  0.67926  1.0000
  I   I356      1.0  0.68460  0.78594  0.85765  1.0000
  I   I357      1.0  0.35419  0.50100  0.61874  1.0000
  I   I358      1.0  0.41970  0.90651  0.65069  1.0000
  I   I359      1.0  0.85680  0.75401  0.02547  1.0000
  I   I360      1.0  0.62518  0.94988  0.08661  1.0000
  I   I361      1.0  0.56526  0.48415  0.69717  1.0000
  I   I362      1.0  0.29512  0.32993  0.77079  1.0000
  I   I363      1.0  0.35388  0.41432  0.09775  1.0000
  I   I364      1.0  0.65736  0.60605  0.73375  1.0000
  I   I365      1.0  0.49387  0.53365  0.23772  1.0000
  I   I366      1.0  0.67586  0.40432  0.84059  1.0000
  I   I367      1.0  0.89838  0.44835  0.84019  1.0000
  I   I368      1.0  0.99736  0.36950  0.23529  1.0000
  I   I369      1.0  0.89456  0.33035  0.76691  1.0000
  I   I370      1.0  0.80669  0.06881  0.01925  1.0000
  I   I371      1.0  0.69609  0.59250  0.16490  1.0000
  I   I372      1.0  0.77453  0.71033  0.59817  1.0000
  I   I373      1.0  0.66675  0.13053  0.26916  1.0000
  I   I374      1.0  0.58247  0.32212  0.12824  1.0000
  I   I375      1.0  0.49582  0.39742  0.92748  1.0000
  I   I376      1.0  0.00648  0.11591  0.00438  1.0000
  I   I377      1.0  0.75781  0.20401  0.81527  1.0000
  I   I378      1.0  0.20141  0.83451  0.31023  1.0000
  I   I379      1.0  0.16137  0.53615  0.70966  1.0000
  I   I380      1.0  0.81546  0.35995  0.02320  1.0000
  I   I381      1.0  0.06574  0.52619  0.48934  1.0000
  I   I382      1.0  0.57605  0.18599  0.00513  1.0000
  I   I383      1.0  0.71884  0.89113  0.59909  1.0000
  I   I384      1.0  0.51176  0.09247  0.12180  1.0000
