data_image0
_chemical_formula_structural       Ti96I384
_chemical_formula_sum              "Ti96 I384"
_cell_length_a       81.0681
_cell_length_b       80.4825
_cell_length_c       39.349
_cell_angle_alpha    88.7757
_cell_angle_beta     88.7757
_cell_angle_gamma    62.1586

_space_group_name_H-M_alt    "P 1"
_space_group_IT_number       1

loop_
  _space_group_symop_operation_xyz
  'x, y, z'

loop_
  _atom_site_type_symbol
  _atom_site_label
  _atom_site_symmetry_multiplicity
  _atom_site_fract_x
  _atom_site_fract_y
  _atom_site_fract_z
  _atom_site_occupancy
  Ti  Ti1       1.0  0.70281  0.42283  0.48416  1.0000
  Ti  Ti2       1.0  0.72787  0.12671  0.53037  1.0000
  Ti  Ti3       1.0  0.96943  0.02223  0.17102  1.0000
  Ti  Ti4       1.0  0.42782  0.84549  0.99142  1.0000
  Ti  Ti5       1.0  0.90737  0.39494  0.57714  1.0000
  Ti  Ti6       1.0  0.19764  0.88164  0.74158  1.0000
  Ti  Ti7       1.0  0.34187  0.40898  0.85315  1.0000
  Ti  Ti8       1.0  0.35505  0.67087  0.15356  1.0000
  Ti  Ti9       1.0  0.89915  0.21105  0.78603  1.0000
  Ti  Ti10      1.0  0.90762  0.24632  0.96384  1.0000
  Ti  Ti11      1.0  0.30400  0.80481  0.62800  1.0000
  Ti  Ti12      1.0  0.52094  0.92319  0.54447  1.0000
  Ti  Ti13      1.0  0.53315  0.55497  0.36098  1.0000
  Ti  Ti14      1.0  0.44459  0.86019  0.89848  1.0000
  Ti  Ti15      1.0  0.60575  0.34477  0.78686  1.0000
  Ti  Ti16      1.0  0.85213  0.72204  0.04499  1.0000
  Ti  Ti17      1.0  0.62433  0.01433  0.59184  1.0000
  Ti  Ti18      1.0  0.52245  0.43505  0.44857  1.0000
  Ti  Ti19      1.0  0.59231  0.15417  0.17272  1.0000
  Ti  Ti20      1.0  0.56980  0.78195  0.21457  1.0000
  Ti  Ti21      1.0  0.20526  0.63495  0.75876  1.0000
  Ti  Ti22      1.0  0.49384  0.18714  0.15298  1.0000
  Ti  Ti23      1.0  0.48604  0.05033  0.00745  1.0000
  Ti  Ti24      1.0  0.88114  0.35318  0.71480  1.0000
  Ti  Ti25      1.0  0.96512  0.96620  0.89722  1.0000
  Ti  Ti26      1.0  0.27294  0.67909  0.01360  1.0000
  Ti  Ti27      1.0  0.95612  0.77933  0.51893  1.0000
  Ti  Ti28      1.0  0.28545  0.23049  0.03245  1.0000
  Ti  Ti29      1.0  0.81881  0.77762  0.21204  1.0000
  Ti  Ti30      1.0  0.48254  0.55886  0.86882  1.0000
  Ti  Ti31      1.0  0.78711  0.92024  0.30880  1.0000
  Ti  Ti32      1.0  0.99555  0.32579  0.78503  1.0000
  Ti  Ti33      1.0  0.84806  0.22058  0.46907  1.0000
  Ti  Ti34      1.0  0.60252  0.69766  0.85464  1.0000
  Ti  Ti35      1.0  0.17862  0.11639  0.05543  1.0000
  Ti  Ti36      1.0  0.26657  0.81532  0.91690  1.0000
  Ti  Ti37      1.0  0.24255  0.92883  0.98887  1.0000
  Ti  Ti38      1.0  0.51235  0.65310  0.65498  1.0000
  Ti  Ti39      1.0  0.86437  0.25129  0.93231  1.0000
  Ti  Ti40      1.0  0.60085  0.01583  0.09861  1.0000
  Ti  Ti41      1.0  0.42267  0.81563  0.53095  1.0000
  Ti  Ti42      1.0  0.37242  0.54925  0.59527  1.0000
  Ti  Ti43      1.0  0.38201  0.58708  0.43106  1.0000
  Ti  Ti44      1.0  0.42816  0.47260  0.17786  1.0000
  Ti  Ti45      1.0  0.84839  0.16284  0.18903  1.0000
  Ti  Ti46      1.0  0.69706  0.74325  0.56845  1.0000
  Ti  Ti47      1.0  0.10773  0.63993  0.53469  1.0000
  Ti  Ti48      1.0  0.46046  0.95394  0.95234  1.0000
  Ti  Ti49      1.0  0.43828  0.94584  0.26135  1.0000
  Ti  Ti50      1.0  0.17534  0.35404  0.69308  1.0000
  Ti  Ti51      1.0  0.51740  0.00396  0.03027  1.0000
  Ti  Ti52      1.0  0.88200  0.44435  0.37743  1.0000
  Ti  Ti53      1.0  0.64698  0.38823  0.76265  1.0000
  Ti  Ti54      1.0  0.75809  0.94749  0.58395  1.0000
  Ti  Ti55      1.0  0.09936  0.71819  0.88763  1.0000
  Ti  Ti56      1.0  0.71241  0.15760  0.74788  1.0000
  Ti  Ti57      1.0  0.92916  0.17747  0.76398  1.0000
  Ti  Ti58      1.0  0.99102  0.78433  0.06515  1.0000
  Ti  Ti59      1.0  0.84704  0.70636  0.94988  1.0000
  Ti  Ti60      1.0  0.59032  0.12466  0.12827  1.0000
  Ti  Ti61      1.0  0.61743  0.24786  0.40507  1.0000
  Ti  Ti62      1.0  0.55645  0.52429  0.46065  1.0000
  Ti  Ti63      1.0  0.27595  0.58885  0.40410  1.0000
  Ti  Ti64      1.0  0.49349  0.40936  0.45217  1.0000
  Ti  Ti65      1.0  0.39136  0.10743  0.49541  1.0000
  Ti  Ti66      1.0  0.09543  0.12342  0.08580  1.0000
  Ti  Ti67      1.0  0.78094  0.81625  0.65037  1.0000
  Ti  Ti68      1.0  0.27267  0.44798  0.00388  1.0000
  Ti  Ti69      1.0  0.21963  0.72204  0.07118  1.0000
  Ti  Ti70      1.0  0.25217  0.89000  0.51988  1.0000
  Ti  Ti71      1.0  0.84210  0.44381  0.14825  1.0000
  Ti  Ti72      1.0  0.31496  0.09072  0.62778  1.0000
  Ti  Ti73      1.0  0.26173  0.74185  0.32752  1.0000
  Ti  Ti74      1.0  0.96284  0.97178  0.98000  1.0000
  Ti  Ti75      1.0  0.41074  0.01691  0.27427  1.0000
  Ti  Ti76      1.0  0.80505  0.61589  0.19598  1.0000
  Ti  Ti77      1.0  0.58690  0.34629  0.87614  1.0000
  Ti  Ti78      1.0  0.87933  0.56589  0.58436  1.0000
  Ti  Ti79      1.0  0.95423  0.91454  0.59579  1.0000
  Ti  Ti80      1.0  0.01111  0.53291  0.13737  1.0000
  Ti  Ti81      1.0  0.58792  0.28770  0.08648  1.0000
  Ti  Ti82      1.0  0.35021  0.74297  0.14766  1.0000
  Ti  Ti83      1.0  0.81309  0.15496  0.26327  1.0000
  Ti  Ti84      1.0  0.22441  0.82291  0.89526  1.0000
  Ti  Ti85      1.0  0.23358  0.95007  0.10965  1.0000
  Ti  Ti86      1.0  0.35123  0.44676  0.83535  1.0000
  Ti  Ti87      1.0  0.96273  0.81465  0.83875  1.0000
  Ti  Ti88      1.0  0.83086  0.17480  0.76388  1.0000
  Ti  Ti89      1.0  0.85389  0.06664  0.52170  1.0000
  Ti  Ti90      1.0  0.64236  0.97041  0.59158  1.0000
  Ti  Ti91      1.0  0.64951  0.34059  0.25273  1.0000
  Ti  Ti92      1.0  0.84005  0.29381  0.21860  1.0000
  Ti  Ti93      1.0  0.58548  0.78080  0.57221  1.0000
  Ti  Ti94      1.0  0.42176  0.96803  0.95809  1.0000
  Ti  Ti95      1.0  0.39591  0.81136  0.72614  1.0000
  Ti  Ti96      1.0  0.92182  0.11337  0.06577  1.0000
  I   I1        1.0  0.11005  0.66675  0.55994  1.0000
  I   I2        1.0  0.53604  0.99502  0.08540  1.0000
  I   I3        1.0  0.40795  0.97692  0.24193  1.0000
  I   I4        1.0  0.63049  0.40023  0.70005  1.0000
  I   I5        1.0  0.20241  0.84929  0.71992  1.0000
  I   I6        1.0  0.76688  0.91140  0.56541  1.0000
  I   I7        1.0  0.38609  0.63735  0.16942  1.0000
  I   I8        1.0  0.71636  0.12403  0.72946  1.0000
  I   I9        1.0  0.95782  0.15698  0.72154  1.0000
  I   I10       1.0  0.63480  0.98934  0.07879  1.0000
  I   I11       1.0  0.31411  0.80681  0.55956  1.0000
  I   I12       1.0  0.86959  0.41455  0.56792  1.0000
  I   I13       1.0  0.49812  0.56498  0.35983  1.0000
  I   I14       1.0  0.23657  0.61464  0.39642  1.0000
  I   I15       1.0  0.56734  0.37040  0.81410  1.0000
  I   I16       1.0  0.59845  0.04447  0.06734  1.0000
  I   I17       1.0  0.05996  0.13986  0.08897  1.0000
  I   I18       1.0  0.46480  0.42029  0.49560  1.0000
  I   I19       1.0  0.27450  0.56070  0.37188  1.0000
  I   I20       1.0  0.26701  0.81414  0.61247  1.0000
  I   I21       1.0  0.32207  0.67448  0.15789  1.0000
  I   I22       1.0  0.57959  0.27478  0.14440  1.0000
  I   I23       1.0  0.86428  0.17069  0.76848  1.0000
  I   I24       1.0  0.24415  0.87639  0.58022  1.0000
  I   I25       1.0  0.93623  0.99789  0.92550  1.0000
  I   I26       1.0  0.41952  0.93856  0.31145  1.0000
  I   I27       1.0  0.21012  0.10505  0.08508  1.0000
  I   I28       1.0  0.29760  0.21611  0.97138  1.0000
  I   I29       1.0  0.86406  0.54415  0.58814  1.0000
  I   I30       1.0  0.47572  0.58719  0.82740  1.0000
  I   I31       1.0  0.01085  0.55950  0.09052  1.0000
  I   I32       1.0  0.57042  0.28536  0.03115  1.0000
  I   I33       1.0  0.93482  0.89790  0.60083  1.0000
  I   I34       1.0  0.17215  0.10505  0.99580  1.0000
  I   I35       1.0  0.23348  0.79473  0.84711  1.0000
  I   I36       1.0  0.57224  0.69512  0.84071  1.0000
  I   I37       1.0  0.21164  0.96212  0.99597  1.0000
  I   I38       1.0  0.87051  0.27325  0.88798  1.0000
  I   I39       1.0  0.21732  0.95969  0.16774  1.0000
  I   I40       1.0  0.43411  0.49812  0.13393  1.0000
  I   I41       1.0  0.15677  0.37380  0.63790  1.0000
  I   I42       1.0  0.60321  0.02423  0.16133  1.0000
  I   I43       1.0  0.00029  0.78519  0.12661  1.0000
  I   I44       1.0  0.84087  0.19772  0.20105  1.0000
  I   I45       1.0  0.82142  0.12103  0.24315  1.0000
  I   I46       1.0  0.36010  0.83216  0.71194  1.0000
  I   I47       1.0  0.12899  0.61038  0.56536  1.0000
  I   I48       1.0  0.43275  0.99550  0.97546  1.0000
  I   I49       1.0  0.40835  0.99591  0.32351  1.0000
  I   I50       1.0  0.75490  0.11597  0.48493  1.0000
  I   I51       1.0  0.52799  0.02199  0.98416  1.0000
  I   I52       1.0  0.00751  0.54902  0.19328  1.0000
  I   I53       1.0  0.64150  0.41053  0.81434  1.0000
  I   I54       1.0  0.76432  0.93759  0.64806  1.0000
  I   I55       1.0  0.37689  0.45414  0.86252  1.0000
  I   I56       1.0  0.18692  0.63170  0.70894  1.0000
  I   I57       1.0  0.38875  0.81068  0.79171  1.0000
  I   I58       1.0  0.91439  0.27336  0.93513  1.0000
  I   I59       1.0  0.84052  0.69210  0.01293  1.0000
  I   I60       1.0  0.57820  0.13014  0.19362  1.0000
  I   I61       1.0  0.57323  0.48708  0.44615  1.0000
  I   I62       1.0  0.53312  0.57498  0.31346  1.0000
  I   I63       1.0  0.56528  0.81608  0.21976  1.0000
  I   I64       1.0  0.86992  0.71497  0.98712  1.0000
  I   I65       1.0  0.57766  0.00621  0.07195  1.0000
  I   I66       1.0  0.31040  0.21818  0.07552  1.0000
  I   I67       1.0  0.56563  0.16206  0.13110  1.0000
  I   I68       1.0  0.53730  0.78421  0.21993  1.0000
  I   I69       1.0  0.25293  0.68097  0.07941  1.0000
  I   I70       1.0  0.28721  0.87852  0.53447  1.0000
  I   I71       1.0  0.48752  0.01494  0.98792  1.0000
  I   I72       1.0  0.34262  0.05683  0.62606  1.0000
  I   I73       1.0  0.94293  0.81767  0.50295  1.0000
  I   I74       1.0  0.24167  0.72039  0.01672  1.0000
  I   I75       1.0  0.18664  0.75114  0.06528  1.0000
  I   I76       1.0  0.56375  0.37481  0.91288  1.0000
  I   I77       1.0  0.61870  0.34736  0.85394  1.0000
  I   I78       1.0  0.81436  0.91791  0.26919  1.0000
  I   I79       1.0  0.82812  0.23675  0.41840  1.0000
  I   I80       1.0  0.70458  0.42978  0.41512  1.0000
  I   I81       1.0  0.01130  0.29502  0.74579  1.0000
  I   I82       1.0  0.33388  0.73723  0.09283  1.0000
  I   I83       1.0  0.81495  0.16250  0.18050  1.0000
  I   I84       1.0  0.23378  0.83883  0.95482  1.0000
  I   I85       1.0  0.26010  0.91958  0.13812  1.0000
  I   I86       1.0  0.25722  0.22241  0.04643  1.0000
  I   I87       1.0  0.84157  0.24096  0.89034  1.0000
  I   I88       1.0  0.87137  0.27036  0.98492  1.0000
  I   I89       1.0  0.62623  0.69822  0.81067  1.0000
  I   I90       1.0  0.17656  0.32179  0.67225  1.0000
  I   I91       1.0  0.63313  0.32171  0.28283  1.0000
  I   I92       1.0  0.81625  0.32059  0.17910  1.0000
  I   I93       1.0  0.43870  0.45059  0.22889  1.0000
  I   I94       1.0  0.43953  0.93242  0.95232  1.0000
  I   I95       1.0  0.72132  0.75214  0.57756  1.0000
  I   I96       1.0  0.46455  0.18379  0.13996  1.0000
  I   I97       1.0  0.95685  0.02822  0.10592  1.0000
  I   I98       1.0  0.67692  0.41693  0.50947  1.0000
  I   I99       1.0  0.72491  0.11471  0.59531  1.0000
  I   I100      1.0  0.46951  0.85528  0.85030  1.0000
  I   I101      1.0  0.80175  0.20533  0.79123  1.0000
  I   I102      1.0  0.92075  0.39600  0.63611  1.0000
  I   I103      1.0  0.36634  0.40987  0.80254  1.0000
  I   I104      1.0  0.08882  0.75212  0.86516  1.0000
  I   I105      1.0  0.44569  0.81220  0.48132  1.0000
  I   I106      1.0  0.54686  0.90216  0.58714  1.0000
  I   I107      1.0  0.90155  0.21902  0.93375  1.0000
  I   I108      1.0  0.49992  0.90696  0.54940  1.0000
  I   I109      1.0  0.64251  0.31442  0.78674  1.0000
  I   I110      1.0  0.57660  0.52555  0.50985  1.0000
  I   I111      1.0  0.59060  0.77340  0.15648  1.0000
  I   I112      1.0  0.52462  0.40833  0.40310  1.0000
  I   I113      1.0  0.39103  0.07862  0.51670  1.0000
  I   I114      1.0  0.60981  0.04922  0.60650  1.0000
  I   I115      1.0  0.81106  0.78491  0.66546  1.0000
  I   I116      1.0  0.80127  0.82187  0.60585  1.0000
  I   I117      1.0  0.26772  0.43936  0.94594  1.0000
  I   I118      1.0  0.88562  0.12054  0.05820  1.0000
  I   I119      1.0  0.75638  0.80988  0.61638  1.0000
  I   I120      1.0  0.12223  0.64338  0.47541  1.0000
  I   I121      1.0  0.24987  0.77204  0.36948  1.0000
  I   I122      1.0  0.98874  0.93343  0.87802  1.0000
  I   I123      1.0  0.43135  0.00285  0.21912  1.0000
  I   I124      1.0  0.51975  0.55099  0.86849  1.0000
  I   I125      1.0  0.81085  0.61332  0.26013  1.0000
  I   I126      1.0  0.88298  0.56853  0.51724  1.0000
  I   I127      1.0  0.87765  0.20928  0.42995  1.0000
  I   I128      1.0  0.46703  0.86114  0.94863  1.0000
  I   I129      1.0  0.49337  0.07485  0.04537  1.0000
  I   I130      1.0  0.28261  0.78436  0.88581  1.0000
  I   I131      1.0  0.32982  0.77645  0.12075  1.0000
  I   I132      1.0  0.15512  0.11773  0.10375  1.0000
  I   I133      1.0  0.91095  0.26103  0.02097  1.0000
  I   I134      1.0  0.54537  0.64863  0.63290  1.0000
  I   I135      1.0  0.10048  0.15073  0.10997  1.0000
  I   I136      1.0  0.36241  0.51844  0.59633  1.0000
  I   I137      1.0  0.87925  0.42818  0.43304  1.0000
  I   I138      1.0  0.83565  0.05811  0.56586  1.0000
  I   I139      1.0  0.64784  0.36337  0.29953  1.0000
  I   I140      1.0  0.86203  0.30882  0.22186  1.0000
  I   I141      1.0  0.58592  0.80428  0.61854  1.0000
  I   I142      1.0  0.38781  0.98281  0.92807  1.0000
  I   I143      1.0  0.99556  0.03120  0.13318  1.0000
  I   I144      1.0  0.52084  0.15504  0.14864  1.0000
  I   I145      1.0  0.73257  0.39304  0.49910  1.0000
  I   I146      1.0  0.69678  0.13398  0.50434  1.0000
  I   I147      1.0  0.98341  0.98798  0.19186  1.0000
  I   I148      1.0  0.90245  0.45489  0.40012  1.0000
  I   I149      1.0  0.91444  0.41659  0.52983  1.0000
  I   I150      1.0  0.23032  0.88059  0.75950  1.0000
  I   I151      1.0  0.07538  0.72128  0.93518  1.0000
  I   I152      1.0  0.35239  0.66813  0.09072  1.0000
  I   I153      1.0  0.92504  0.21462  0.74205  1.0000
  I   I154      1.0  0.34681  0.60079  0.41680  1.0000
  I   I155      1.0  0.30571  0.82613  0.67675  1.0000
  I   I156      1.0  0.61631  0.08864  0.12222  1.0000
  I   I157      1.0  0.59181  0.32281  0.81570  1.0000
  I   I158      1.0  0.27349  0.58813  0.46860  1.0000
  I   I159      1.0  0.63983  0.22117  0.35916  1.0000
  I   I160      1.0  0.47471  0.38566  0.44116  1.0000
  I   I161      1.0  0.64740  0.96341  0.52693  1.0000
  I   I162      1.0  0.51939  0.46116  0.40400  1.0000
  I   I163      1.0  0.62674  0.12278  0.18247  1.0000
  I   I164      1.0  0.69937  0.70964  0.56687  1.0000
  I   I165      1.0  0.22136  0.65691  0.76209  1.0000
  I   I166      1.0  0.92206  0.12797  0.00414  1.0000
  I   I167      1.0  0.59876  0.31317  0.09972  1.0000
  I   I168      1.0  0.90872  0.32263  0.74423  1.0000
  I   I169      1.0  0.95380  0.00956  0.99226  1.0000
  I   I170      1.0  0.96680  0.93936  0.95571  1.0000
  I   I171      1.0  0.99170  0.74804  0.53333  1.0000
  I   I172      1.0  0.77200  0.62685  0.20164  1.0000
  I   I173      1.0  0.80879  0.75814  0.16820  1.0000
  I   I174      1.0  0.46799  0.57892  0.92277  1.0000
  I   I175      1.0  0.79152  0.91193  0.37333  1.0000
  I   I176      1.0  0.01812  0.31954  0.84091  1.0000
  I   I177      1.0  0.98552  0.92101  0.58011  1.0000
  I   I178      1.0  0.33505  0.73441  0.19918  1.0000
  I   I179      1.0  0.87600  0.15256  0.15098  1.0000
  I   I180      1.0  0.23425  0.90257  0.00907  1.0000
  I   I181      1.0  0.49984  0.94510  0.60019  1.0000
  I   I182      1.0  0.31191  0.42173  0.80844  1.0000
  I   I183      1.0  0.97434  0.79858  0.89729  1.0000
  I   I184      1.0  0.81341  0.17167  0.71067  1.0000
  I   I185      1.0  0.84177  0.10681  0.52455  1.0000
  I   I186      1.0  0.33374  0.57860  0.58984  1.0000
  I   I187      1.0  0.85420  0.25955  0.18797  1.0000
  I   I188      1.0  0.39263  0.48058  0.16706  1.0000
  I   I189      1.0  0.96382  0.84869  0.82702  1.0000
  I   I190      1.0  0.68921  0.75032  0.50503  1.0000
  I   I191      1.0  0.64035  0.99909  0.65607  1.0000
  I   I192      1.0  0.93273  0.02999  0.18729  1.0000
  I   I193      1.0  0.85608  0.59554  0.61408  1.0000
  I   I194      1.0  0.58316  0.77055  0.27544  1.0000
  I   I195      1.0  0.95361  0.05742  0.18841  1.0000
  I   I196      1.0  0.40921  0.85486  0.04983  1.0000
  I   I197      1.0  0.00220  0.74497  0.05539  1.0000
  I   I198      1.0  0.16300  0.91111  0.72082  1.0000
  I   I199      1.0  0.99629  0.35555  0.76415  1.0000
  I   I200      1.0  0.70530  0.17046  0.67669  1.0000
  I   I201      1.0  0.95307  0.14053  0.79039  1.0000
  I   I202      1.0  0.85799  0.70417  0.10770  1.0000
  I   I203      1.0  0.25427  0.68370  0.95717  1.0000
  I   I204      1.0  0.52623  0.94060  0.48511  1.0000
  I   I205      1.0  0.53160  0.52936  0.40538  1.0000
  I   I206      1.0  0.41569  0.88420  0.87034  1.0000
  I   I207      1.0  0.58891  0.34355  0.72582  1.0000
  I   I208      1.0  0.85489  0.75315  0.05488  1.0000
  I   I209      1.0  0.67463  0.95259  0.61576  1.0000
  I   I210      1.0  0.98616  0.89810  0.64361  1.0000
  I   I211      1.0  0.22703  0.92496  0.52117  1.0000
  I   I212      1.0  0.28835  0.61121  0.38442  1.0000
  I   I213      1.0  0.19926  0.70597  0.08918  1.0000
  I   I214      1.0  0.48578  0.21037  0.20957  1.0000
  I   I215      1.0  0.44742  0.06009  0.03100  1.0000
  I   I216      1.0  0.61089  0.77524  0.52963  1.0000
  I   I217      1.0  0.95146  0.97283  0.83304  1.0000
  I   I218      1.0  0.42100  0.03462  0.31804  1.0000
  I   I219      1.0  0.26288  0.71463  0.37142  1.0000
  I   I220      1.0  0.59755  0.31435  0.91186  1.0000
  I   I221      1.0  0.84570  0.77640  0.17597  1.0000
  I   I222      1.0  0.80556  0.64122  0.15702  1.0000
  I   I223      1.0  0.75691  0.95321  0.30230  1.0000
  I   I224      1.0  0.96040  0.33339  0.79551  1.0000
  I   I225      1.0  0.85221  0.24436  0.50225  1.0000
  I   I226      1.0  0.36279  0.70257  0.13733  1.0000
  I   I227      1.0  0.17152  0.15381  0.05086  1.0000
  I   I228      1.0  0.24439  0.80091  0.94858  1.0000
  I   I229      1.0  0.02904  0.77372  0.04734  1.0000
  I   I230      1.0  0.50579  0.63145  0.69540  1.0000
  I   I231      1.0  0.94546  0.21886  0.94585  1.0000
  I   I232      1.0  0.43166  0.83674  0.90519  1.0000
  I   I233      1.0  0.41173  0.79147  0.50211  1.0000
  I   I234      1.0  0.61893  0.01300  0.52792  1.0000
  I   I235      1.0  0.39115  0.59495  0.48964  1.0000
  I   I236      1.0  0.55565  0.79010  0.53548  1.0000
  I   I237      1.0  0.63813  0.36186  0.19623  1.0000
  I   I238      1.0  0.40962  0.77676  0.71307  1.0000
  I   I239      1.0  0.95376  0.08703  0.05824  1.0000
  I   I240      1.0  0.46758  0.94982  0.01902  1.0000
  I   I241      1.0  0.70436  0.44474  0.53766  1.0000
  I   I242      1.0  0.72643  0.15363  0.56843  1.0000
  I   I243      1.0  0.24397  0.45741  0.04110  1.0000
  I   I244      1.0  0.84536  0.14056  0.79724  1.0000
  I   I245      1.0  0.66546  0.40510  0.72728  1.0000
  I   I246      1.0  0.18388  0.87965  0.80000  1.0000
  I   I247      1.0  0.35854  0.37551  0.82714  1.0000
  I   I248      1.0  0.19858  0.62881  0.82665  1.0000
  I   I249      1.0  0.90054  0.19440  0.71736  1.0000
  I   I250      1.0  0.82095  0.70481  0.91510  1.0000
  I   I251      1.0  0.32888  0.77463  0.65679  1.0000
  I   I252      1.0  0.61304  0.13585  0.10313  1.0000
  I   I253      1.0  0.54430  0.56250  0.42281  1.0000
  I   I254      1.0  0.39434  0.84465  0.97377  1.0000
  I   I255      1.0  0.61919  0.27974  0.42741  1.0000
  I   I256      1.0  0.35848  0.12615  0.52344  1.0000
  I   I257      1.0  0.26183  0.92259  0.93488  1.0000
  I   I258      1.0  0.53476  0.43703  0.51137  1.0000
  I   I259      1.0  0.76591  0.82819  0.70976  1.0000
  I   I260      1.0  0.66652  0.76892  0.58765  1.0000
  I   I261      1.0  0.23614  0.60424  0.75768  1.0000
  I   I262      1.0  0.50085  0.20794  0.10725  1.0000
  I   I263      1.0  0.81008  0.44304  0.16463  1.0000
  I   I264      1.0  0.28856  0.83145  0.93459  1.0000
  I   I265      1.0  0.96291  0.95964  0.04263  1.0000
  I   I266      1.0  0.29638  0.64376  0.00337  1.0000
  I   I267      1.0  0.29538  0.73095  0.31260  1.0000
  I   I268      1.0  0.09792  0.09099  0.11071  1.0000
  I   I269      1.0  0.90736  0.55590  0.62421  1.0000
  I   I270      1.0  0.27146  0.26754  0.04606  1.0000
  I   I271      1.0  0.77209  0.90943  0.26608  1.0000
  I   I272      1.0  0.62144  0.27661  0.04429  1.0000
  I   I273      1.0  0.85779  0.18584  0.49102  1.0000
  I   I274      1.0  0.40608  0.85435  0.54853  1.0000
  I   I275      1.0  0.93087  0.77264  0.54161  1.0000
  I   I276      1.0  0.19031  0.83909  0.90394  1.0000
  I   I277      1.0  0.37835  0.74803  0.17365  1.0000
  I   I278      1.0  0.51441  0.67640  0.70668  1.0000
  I   I279      1.0  0.44545  0.44990  0.12881  1.0000
  I   I280      1.0  0.90821  0.41444  0.34745  1.0000
  I   I281      1.0  0.39711  0.81717  0.57529  1.0000
  I   I282      1.0  0.38400  0.53892  0.53206  1.0000
  I   I283      1.0  0.39964  0.55207  0.43834  1.0000
  I   I284      1.0  0.86930  0.38480  0.74708  1.0000
  I   I285      1.0  0.96911  0.79157  0.78384  1.0000
  I   I286      1.0  0.40251  0.83124  0.67711  1.0000
  I   I287      1.0  0.31907  0.08670  0.69369  1.0000
  I   I288      1.0  0.44041  0.96155  0.89218  1.0000
  I   I289      1.0  0.39999  0.59563  0.37887  1.0000
  I   I290      1.0  0.63132  0.94748  0.62399  1.0000
  I   I291      1.0  0.49004  0.02873  0.07119  1.0000
  I   I292      1.0  0.84466  0.47338  0.37008  1.0000
  I   I293      1.0  0.66637  0.35590  0.78517  1.0000
  I   I294      1.0  0.72350  0.96769  0.56493  1.0000
  I   I295      1.0  0.31961  0.45933  0.87375  1.0000
  I   I296      1.0  0.69452  0.16094  0.80795  1.0000
  I   I297      1.0  0.87388  0.24263  0.80064  1.0000
  I   I298      1.0  0.95405  0.80111  0.07384  1.0000
  I   I299      1.0  0.88317  0.67810  0.92493  1.0000
  I   I300      1.0  0.57783  0.75195  0.59552  1.0000
  I   I301      1.0  0.61931  0.23215  0.46271  1.0000
  I   I302      1.0  0.52951  0.53198  0.50547  1.0000
  I   I303      1.0  0.39201  0.09691  0.43356  1.0000
  I   I304      1.0  0.51959  0.39482  0.49789  1.0000
  I   I305      1.0  0.81479  0.74025  0.05581  1.0000
  I   I306      1.0  0.33651  0.38926  0.89904  1.0000
  I   I307      1.0  0.21221  0.93630  0.07800  1.0000
  I   I308      1.0  0.20806  0.34958  0.68650  1.0000
  I   I309      1.0  0.35467  0.68160  0.22895  1.0000
  I   I310      1.0  0.45025  0.92516  0.20618  1.0000
  I   I311      1.0  0.83803  0.46197  0.09435  1.0000
  I   I312      1.0  0.07379  0.64157  0.51559  1.0000
  I   I313      1.0  0.24774  0.72876  0.28052  1.0000
  I   I314      1.0  0.98990  0.97822  0.89082  1.0000
  I   I315      1.0  0.37830  0.04007  0.25256  1.0000
  I   I316      1.0  0.82061  0.58208  0.17620  1.0000
  I   I317      1.0  0.10626  0.13103  0.02758  1.0000
  I   I318      1.0  0.78672  0.80687  0.19415  1.0000
  I   I319      1.0  0.93681  0.94483  0.63248  1.0000
  I   I320      1.0  0.45730  0.82202  0.01981  1.0000
  I   I321      1.0  0.13130  0.69297  0.91298  1.0000
  I   I322      1.0  0.60134  0.72413  0.88859  1.0000
  I   I323      1.0  0.80242  0.19130  0.27626  1.0000
  I   I324      1.0  0.24686  0.83605  0.85943  1.0000
  I   I325      1.0  0.25909  0.94082  0.03582  1.0000
  I   I326      1.0  0.36642  0.41739  0.88781  1.0000
  I   I327      1.0  0.81316  0.15110  0.33049  1.0000
  I   I328      1.0  0.83191  0.27472  0.96063  1.0000
  I   I329      1.0  0.85314  0.04842  0.46513  1.0000
  I   I330      1.0  0.60063  0.00213  0.60838  1.0000
  I   I331      1.0  0.92499  0.83246  0.82891  1.0000
  I   I332      1.0  0.66033  0.00156  0.57084  1.0000
  I   I333      1.0  0.61731  0.65808  0.86322  1.0000
  I   I334      1.0  0.40619  0.96066  0.01862  1.0000
  I   I335      1.0  0.30050  0.42661  0.04095  1.0000
  I   I336      1.0  0.93637  0.13470  0.09194  1.0000
  I   I337      1.0  0.46544  0.94675  0.29067  1.0000
  I   I338      1.0  0.15217  0.36626  0.74400  1.0000
  I   I339      1.0  0.53928  0.97092  0.00275  1.0000
  I   I340      1.0  0.97812  0.54088  0.11307  1.0000
  I   I341      1.0  0.89227  0.35152  0.64883  1.0000
  I   I342      1.0  0.78642  0.94847  0.56092  1.0000
  I   I343      1.0  0.09261  0.69308  0.84173  1.0000
  I   I344      1.0  0.73994  0.15458  0.77993  1.0000
  I   I345      1.0  0.92874  0.19664  0.82553  1.0000
  I   I346      1.0  0.25034  0.85981  0.48831  1.0000
  I   I347      1.0  0.81869  0.74436  0.94951  1.0000
  I   I348      1.0  0.59736  0.17403  0.21801  1.0000
  I   I349      1.0  0.59375  0.24028  0.37074  1.0000
  I   I350      1.0  0.54453  0.52786  0.31300  1.0000
  I   I351      1.0  0.40799  0.88435  0.97644  1.0000
  I   I352      1.0  0.48655  0.44913  0.46942  1.0000
  I   I353      1.0  0.41764  0.10632  0.54183  1.0000
  I   I354      1.0  0.33948  0.47239  0.78717  1.0000
  I   I355      1.0  0.60352  0.18137  0.14800  1.0000
  I   I356      1.0  0.26920  0.48007  0.99111  1.0000
  I   I357      1.0  0.29006  0.69688  0.00437  1.0000
  I   I358      1.0  0.92179  0.36301  0.55606  1.0000
  I   I359      1.0  0.86602  0.40841  0.14462  1.0000
  I   I360      1.0  0.32777  0.11666  0.62768  1.0000
  I   I361      1.0  0.95622  0.76820  0.45779  1.0000
  I   I362      1.0  0.99857  0.96917  0.97653  1.0000
  I   I363      1.0  0.23680  0.73289  0.11777  1.0000
  I   I364      1.0  0.45906  0.54657  0.84888  1.0000
  I   I365      1.0  0.61882  0.37685  0.76725  1.0000
  I   I366      1.0  0.83039  0.77671  0.27327  1.0000
  I   I367      1.0  0.96163  0.90953  0.53141  1.0000
  I   I368      1.0  0.03753  0.49836  0.14160  1.0000
  I   I369      1.0  0.47353  0.07185  0.95317  1.0000
  I   I370      1.0  0.90006  0.17869  0.81691  1.0000
  I   I371      1.0  0.77846  0.16965  0.24607  1.0000
  I   I372      1.0  0.85385  0.34859  0.69627  1.0000
  I   I373      1.0  0.24681  0.97211  0.13361  1.0000
  I   I374      1.0  0.48405  0.66363  0.61371  1.0000
  I   I375      1.0  0.86395  0.14266  0.24736  1.0000
  I   I376      1.0  0.83715  0.46793  0.19259  1.0000
  I   I377      1.0  0.88015  0.07368  0.55554  1.0000
  I   I378      1.0  0.38673  0.55359  0.65045  1.0000
  I   I379      1.0  0.68357  0.31353  0.23751  1.0000
  I   I380      1.0  0.83471  0.29331  0.28389  1.0000
  I   I381      1.0  0.56483  0.11873  0.10624  1.0000
  I   I382      1.0  0.49432  0.93903  0.92433  1.0000
  I   I383      1.0  0.29668  0.77950  0.58383  1.0000
  I   I384      1.0  0.29295  0.09609  0.57960  1.0000
