data_image0
_chemical_formula_structural       Ti96I384
_chemical_formula_sum              "Ti96 I384"
_cell_length_a       81.4203
_cell_length_b       80.8566
_cell_length_c       39.4937
_cell_angle_alpha    88.7757
_cell_angle_beta     88.7757
_cell_angle_gamma    62.1586

_space_group_name_H-M_alt    "P 1"
_space_group_IT_number       1

loop_
  _space_group_symop_operation_xyz
  'x, y, z'

loop_
  _atom_site_type_symbol
  _atom_site_label
  _atom_site_symmetry_multiplicity
  _atom_site_fract_x
  _atom_site_fract_y
  _atom_site_fract_z
  _atom_site_occupancy
  Ti  Ti1       1.0  0.81242  0.26806  0.64431  1.0000
  Ti  Ti2       1.0  0.73471  0.23189  0.44351  1.0000
  Ti  Ti3       1.0  0.99372  0.01299  0.24158  1.0000
  Ti  Ti4       1.0  0.45761  0.80051  0.94429  1.0000
  Ti  Ti5       1.0  0.89528  0.34651  0.62085  1.0000
  Ti  Ti6       1.0  0.17711  0.95430  0.85365  1.0000
  Ti  Ti7       1.0  0.39254  0.45268  0.72124  1.0000
  Ti  Ti8       1.0  0.32154  0.69446  0.32894  1.0000
  Ti  Ti9       1.0  0.97817  0.12134  0.67170  1.0000
  Ti  Ti10      1.0  0.87282  0.23436  0.04176  1.0000
  Ti  Ti11      1.0  0.33740  0.76174  0.54129  1.0000
  Ti  Ti12      1.0  0.47289  0.01717  0.69253  1.0000
  Ti  Ti13      1.0  0.47891  0.58003  0.31351  1.0000
  Ti  Ti14      1.0  0.43430  0.80297  0.87813  1.0000
  Ti  Ti15      1.0  0.52440  0.42380  0.92226  1.0000
  Ti  Ti16      1.0  0.84778  0.79096  0.94810  1.0000
  Ti  Ti17      1.0  0.68795  0.01320  0.66346  1.0000
  Ti  Ti18      1.0  0.41837  0.44532  0.46650  1.0000
  Ti  Ti19      1.0  0.53944  0.07124  0.20508  1.0000
  Ti  Ti20      1.0  0.55397  0.77943  0.98960  1.0000
  Ti  Ti21      1.0  0.14796  0.60557  0.70506  1.0000
  Ti  Ti22      1.0  0.40596  0.25558  0.35841  1.0000
  Ti  Ti23      1.0  0.48634  0.97938  0.10643  1.0000
  Ti  Ti24      1.0  0.89479  0.28029  0.75974  1.0000
  Ti  Ti25      1.0  0.01672  0.94372  0.88721  1.0000
  Ti  Ti26      1.0  0.22243  0.67019  0.85592  1.0000
  Ti  Ti27      1.0  0.96434  0.78260  0.48187  1.0000
  Ti  Ti28      1.0  0.26635  0.26761  0.03014  1.0000
  Ti  Ti29      1.0  0.70155  0.81831  0.24455  1.0000
  Ti  Ti30      1.0  0.56027  0.49443  0.99696  1.0000
  Ti  Ti31      1.0  0.77322  0.96922  0.17325  1.0000
  Ti  Ti32      1.0  0.93550  0.36268  0.82528  1.0000
  Ti  Ti33      1.0  0.88548  0.16541  0.51766  1.0000
  Ti  Ti34      1.0  0.56357  0.71596  0.86970  1.0000
  Ti  Ti35      1.0  0.07883  0.23015  0.07287  1.0000
  Ti  Ti36      1.0  0.32554  0.73080  0.79122  1.0000
  Ti  Ti37      1.0  0.23485  0.96168  0.13267  1.0000
  Ti  Ti38      1.0  0.52896  0.68269  0.65536  1.0000
  Ti  Ti39      1.0  0.82797  0.24957  0.01257  1.0000
  Ti  Ti40      1.0  0.78281  0.97120  0.07290  1.0000
  Ti  Ti41      1.0  0.45490  0.72823  0.41386  1.0000
  Ti  Ti42      1.0  0.33298  0.63333  0.64681  1.0000
  Ti  Ti43      1.0  0.38789  0.67010  0.48382  1.0000
  Ti  Ti44      1.0  0.46182  0.42434  0.05078  1.0000
  Ti  Ti45      1.0  0.76847  0.23770  0.25958  1.0000
  Ti  Ti46      1.0  0.85039  0.65439  0.54985  1.0000
  Ti  Ti47      1.0  0.07492  0.65957  0.49380  1.0000
  Ti  Ti48      1.0  0.35734  0.00223  0.87338  1.0000
  Ti  Ti49      1.0  0.41884  0.91038  0.15710  1.0000
  Ti  Ti50      1.0  0.19808  0.41247  0.81037  1.0000
  Ti  Ti51      1.0  0.46706  0.99096  0.20132  1.0000
  Ti  Ti52      1.0  0.94923  0.39059  0.32954  1.0000
  Ti  Ti53      1.0  0.62600  0.46571  0.58096  1.0000
  Ti  Ti54      1.0  0.76383  0.93595  0.72038  1.0000
  Ti  Ti55      1.0  0.10013  0.71190  0.85130  1.0000
  Ti  Ti56      1.0  0.67733  0.25206  0.72518  1.0000
  Ti  Ti57      1.0  0.95274  0.16195  0.67670  1.0000
  Ti  Ti58      1.0  0.97225  0.75872  0.01948  1.0000
  Ti  Ti59      1.0  0.86641  0.78754  0.86581  1.0000
  Ti  Ti60      1.0  0.55178  0.02915  0.23845  1.0000
  Ti  Ti61      1.0  0.63098  0.26114  0.47040  1.0000
  Ti  Ti62      1.0  0.49489  0.59323  0.41376  1.0000
  Ti  Ti63      1.0  0.25977  0.52019  0.21641  1.0000
  Ti  Ti64      1.0  0.46362  0.41829  0.47495  1.0000
  Ti  Ti65      1.0  0.39724  0.18836  0.71161  1.0000
  Ti  Ti66      1.0  0.96509  0.17305  0.24833  1.0000
  Ti  Ti67      1.0  0.87130  0.81665  0.59859  1.0000
  Ti  Ti68      1.0  0.32233  0.36135  0.96099  1.0000
  Ti  Ti69      1.0  0.20886  0.64334  0.90190  1.0000
  Ti  Ti70      1.0  0.30553  0.95034  0.65456  1.0000
  Ti  Ti71      1.0  0.80995  0.46243  0.18850  1.0000
  Ti  Ti72      1.0  0.33294  0.96803  0.55243  1.0000
  Ti  Ti73      1.0  0.19900  0.85226  0.25422  1.0000
  Ti  Ti74      1.0  0.01607  0.93140  0.98538  1.0000
  Ti  Ti75      1.0  0.39677  0.90372  0.21942  1.0000
  Ti  Ti76      1.0  0.85745  0.59646  0.01120  1.0000
  Ti  Ti77      1.0  0.55718  0.42168  0.91538  1.0000
  Ti  Ti78      1.0  0.80560  0.51234  0.75745  1.0000
  Ti  Ti79      1.0  0.03444  0.83847  0.62920  1.0000
  Ti  Ti80      1.0  0.93276  0.62260  0.21448  1.0000
  Ti  Ti81      1.0  0.54550  0.33143  0.33625  1.0000
  Ti  Ti82      1.0  0.32361  0.84052  0.05976  1.0000
  Ti  Ti83      1.0  0.81152  0.21124  0.28409  1.0000
  Ti  Ti84      1.0  0.33623  0.75873  0.82964  1.0000
  Ti  Ti85      1.0  0.25150  0.95470  0.19783  1.0000
  Ti  Ti86      1.0  0.39573  0.47384  0.77573  1.0000
  Ti  Ti87      1.0  0.04170  0.83613  0.86499  1.0000
  Ti  Ti88      1.0  0.79345  0.13334  0.54778  1.0000
  Ti  Ti89      1.0  0.79197  0.08007  0.25764  1.0000
  Ti  Ti90      1.0  0.70857  0.96682  0.65122  1.0000
  Ti  Ti91      1.0  0.70208  0.37783  0.25086  1.0000
  Ti  Ti92      1.0  0.90370  0.22398  0.34445  1.0000
  Ti  Ti93      1.0  0.72864  0.63710  0.56487  1.0000
  Ti  Ti94      1.0  0.35537  0.01169  0.93286  1.0000
  Ti  Ti95      1.0  0.43523  0.79676  0.62740  1.0000
  Ti  Ti96      1.0  0.85516  0.08508  0.00862  1.0000
  I   I1        1.0  0.09789  0.62950  0.52172  1.0000
  I   I2        1.0  0.46323  0.01754  0.24632  1.0000
  I   I3        1.0  0.39253  0.94110  0.19590  1.0000
  I   I4        1.0  0.64689  0.46779  0.54071  1.0000
  I   I5        1.0  0.20130  0.92003  0.85352  1.0000
  I   I6        1.0  0.73182  0.94204  0.74333  1.0000
  I   I7        1.0  0.29316  0.72268  0.29566  1.0000
  I   I8        1.0  0.70216  0.25740  0.75672  1.0000
  I   I9        1.0  0.97815  0.14560  0.62156  1.0000
  I   I10       1.0  0.76457  0.95203  0.12022  1.0000
  I   I11       1.0  0.33614  0.73562  0.50792  1.0000
  I   I12       1.0  0.87608  0.36006  0.67165  1.0000
  I   I13       1.0  0.48122  0.55414  0.27563  1.0000
  I   I14       1.0  0.24030  0.55892  0.23096  1.0000
  I   I15       1.0  0.53105  0.44677  0.96678  1.0000
  I   I16       1.0  0.80283  0.98313  0.03023  1.0000
  I   I17       1.0  0.99092  0.14767  0.20100  1.0000
  I   I18       1.0  0.40279  0.47809  0.42841  1.0000
  I   I19       1.0  0.23618  0.51703  0.17238  1.0000
  I   I20       1.0  0.35054  0.77750  0.49168  1.0000
  I   I21       1.0  0.33389  0.68540  0.26113  1.0000
  I   I22       1.0  0.52591  0.35167  0.28931  1.0000
  I   I23       1.0  0.83247  0.11693  0.55273  1.0000
  I   I24       1.0  0.34239  0.94514  0.65176  1.0000
  I   I25       1.0  0.99037  0.94003  0.93483  1.0000
  I   I26       1.0  0.39798  0.92957  0.09350  1.0000
  I   I27       1.0  0.08970  0.21561  0.01398  1.0000
  I   I28       1.0  0.29650  0.24096  0.00586  1.0000
  I   I29       1.0  0.82624  0.48136  0.72187  1.0000
  I   I30       1.0  0.58646  0.47937  0.95031  1.0000
  I   I31       1.0  0.92638  0.66071  0.21302  1.0000
  I   I32       1.0  0.57400  0.33236  0.34229  1.0000
  I   I33       1.0  0.02603  0.80968  0.64054  1.0000
  I   I34       1.0  0.10660  0.23698  0.08797  1.0000
  I   I35       1.0  0.32413  0.78431  0.77214  1.0000
  I   I36       1.0  0.59450  0.70922  0.90344  1.0000
  I   I37       1.0  0.20230  0.99331  0.14797  1.0000
  I   I38       1.0  0.79500  0.27675  0.97993  1.0000
  I   I39       1.0  0.23498  0.96865  0.25258  1.0000
  I   I40       1.0  0.44784  0.44763  0.00260  1.0000
  I   I41       1.0  0.16894  0.44097  0.78791  1.0000
  I   I42       1.0  0.74679  0.98878  0.07014  1.0000
  I   I43       1.0  0.98684  0.72839  0.98066  1.0000
  I   I44       1.0  0.77234  0.26570  0.22638  1.0000
  I   I45       1.0  0.82598  0.20114  0.34648  1.0000
  I   I46       1.0  0.46513  0.79212  0.65426  1.0000
  I   I47       1.0  0.08881  0.66146  0.43582  1.0000
  I   I48       1.0  0.32331  0.01326  0.90352  1.0000
  I   I49       1.0  0.39524  0.88781  0.16812  1.0000
  I   I50       1.0  0.72049  0.23839  0.38464  1.0000
  I   I51       1.0  0.50098  0.96258  0.17133  1.0000
  I   I52       1.0  0.93849  0.61276  0.27715  1.0000
  I   I53       1.0  0.62027  0.44743  0.63252  1.0000
  I   I54       1.0  0.79437  0.90582  0.75031  1.0000
  I   I55       1.0  0.39022  0.50318  0.81350  1.0000
  I   I56       1.0  0.16663  0.57036  0.69544  1.0000
  I   I57       1.0  0.40800  0.79680  0.66207  1.0000
  I   I58       1.0  0.88654  0.24003  0.09481  1.0000
  I   I59       1.0  0.84464  0.76715  0.90713  1.0000
  I   I60       1.0  0.56236  0.99753  0.26675  1.0000
  I   I61       1.0  0.48647  0.57694  0.46397  1.0000
  I   I62       1.0  0.44831  0.60212  0.29033  1.0000
  I   I63       1.0  0.58678  0.77333  0.01938  1.0000
  I   I64       1.0  0.87500  0.79938  0.92784  1.0000
  I   I65       1.0  0.79248  0.94486  0.02732  1.0000
  I   I66       1.0  0.27288  0.27646  0.08568  1.0000
  I   I67       1.0  0.55905  0.03758  0.17326  1.0000
  I   I68       1.0  0.52476  0.80035  0.02528  1.0000
  I   I69       1.0  0.24740  0.68518  0.85400  1.0000
  I   I70       1.0  0.31501  0.94025  0.72116  1.0000
  I   I71       1.0  0.43210  0.00211  0.18988  1.0000
  I   I72       1.0  0.33567  0.96597  0.48764  1.0000
  I   I73       1.0  0.98614  0.79249  0.51102  1.0000
  I   I74       1.0  0.19711  0.68592  0.81467  1.0000
  I   I75       1.0  0.17340  0.65411  0.93123  1.0000
  I   I76       1.0  0.57175  0.44120  0.90268  1.0000
  I   I77       1.0  0.52595  0.45316  0.87397  1.0000
  I   I78       1.0  0.76456  0.00731  0.18946  1.0000
  I   I79       1.0  0.90705  0.13690  0.48050  1.0000
  I   I80       1.0  0.81666  0.23702  0.61085  1.0000
  I   I81       1.0  0.94249  0.32844  0.80527  1.0000
  I   I82       1.0  0.33793  0.80635  0.03415  1.0000
  I   I83       1.0  0.73602  0.26115  0.29195  1.0000
  I   I84       1.0  0.33897  0.72795  0.86781  1.0000
  I   I85       1.0  0.28360  0.94645  0.22642  1.0000
  I   I86       1.0  0.24582  0.25020  0.03580  1.0000
  I   I87       1.0  0.86046  0.22276  0.98182  1.0000
  I   I88       1.0  0.83121  0.26561  0.07074  1.0000
  I   I89       1.0  0.57797  0.69212  0.82228  1.0000
  I   I90       1.0  0.20113  0.37969  0.79862  1.0000
  I   I91       1.0  0.71997  0.33857  0.24306  1.0000
  I   I92       1.0  0.92187  0.24336  0.34740  1.0000
  I   I93       1.0  0.49250  0.41784  0.09378  1.0000
  I   I94       1.0  0.38760  0.00264  0.88813  1.0000
  I   I95       1.0  0.83967  0.63006  0.53724  1.0000
  I   I96       1.0  0.40747  0.26460  0.28795  1.0000
  I   I97       1.0  0.99258  0.97876  0.23142  1.0000
  I   I98       1.0  0.84095  0.26231  0.68663  1.0000
  I   I99       1.0  0.71430  0.21719  0.46849  1.0000
  I   I100      1.0  0.41230  0.79595  0.83968  1.0000
  I   I101      1.0  0.77484  0.16500  0.58245  1.0000
  I   I102      1.0  0.87978  0.36378  0.56189  1.0000
  I   I103      1.0  0.43231  0.46411  0.75206  1.0000
  I   I104      1.0  0.10966  0.67980  0.83625  1.0000
  I   I105      1.0  0.46944  0.75024  0.39358  1.0000
  I   I106      1.0  0.50938  0.99419  0.69512  1.0000
  I   I107      1.0  0.84554  0.26885  0.97584  1.0000
  I   I108      1.0  0.47740  0.03443  0.63964  1.0000
  I   I109      1.0  0.52905  0.40243  0.86509  1.0000
  I   I110      1.0  0.53056  0.57690  0.42674  1.0000
  I   I111      1.0  0.55043  0.78166  0.92638  1.0000
  I   I112      1.0  0.48094  0.38086  0.50924  1.0000
  I   I113      1.0  0.38889  0.20156  0.64798  1.0000
  I   I114      1.0  0.67769  0.01117  0.60188  1.0000
  I   I115      1.0  0.84993  0.80255  0.61595  1.0000
  I   I116      1.0  0.85706  0.85182  0.58250  1.0000
  I   I117      1.0  0.29482  0.39370  0.94238  1.0000
  I   I118      1.0  0.88524  0.08619  0.03208  1.0000
  I   I119      1.0  0.89413  0.81667  0.64720  1.0000
  I   I120      1.0  0.06064  0.69105  0.53446  1.0000
  I   I121      1.0  0.19825  0.86307  0.31556  1.0000
  I   I122      1.0  0.98726  0.97276  0.87009  1.0000
  I   I123      1.0  0.43496  0.89238  0.21481  1.0000
  I   I124      1.0  0.53090  0.52132  0.96397  1.0000
  I   I125      1.0  0.87617  0.60322  0.96926  1.0000
  I   I126      1.0  0.77064  0.52212  0.76186  1.0000
  I   I127      1.0  0.85780  0.20027  0.51804  1.0000
  I   I128      1.0  0.44807  0.80942  0.81717  1.0000
  I   I129      1.0  0.51801  0.95652  0.08641  1.0000
  I   I130      1.0  0.30705  0.74636  0.73587  1.0000
  I   I131      1.0  0.31014  0.84418  0.12168  1.0000
  I   I132      1.0  0.04837  0.26121  0.09033  1.0000
  I   I133      1.0  0.87243  0.20706  0.07460  1.0000
  I   I134      1.0  0.54017  0.70529  0.62364  1.0000
  I   I135      1.0  0.97520  0.19482  0.28071  1.0000
  I   I136      1.0  0.30747  0.66534  0.63211  1.0000
  I   I137      1.0  0.96033  0.40187  0.38375  1.0000
  I   I138      1.0  0.80788  0.04225  0.25479  1.0000
  I   I139      1.0  0.69541  0.38952  0.31614  1.0000
  I   I140      1.0  0.92235  0.19224  0.31553  1.0000
  I   I141      1.0  0.72017  0.67082  0.58980  1.0000
  I   I142      1.0  0.36859  0.97435  0.93196  1.0000
  I   I143      1.0  0.01356  0.98435  0.29162  1.0000
  I   I144      1.0  0.41336  0.27787  0.38752  1.0000
  I   I145      1.0  0.80639  0.30423  0.63776  1.0000
  I   I146      1.0  0.71670  0.26618  0.46896  1.0000
  I   I147      1.0  0.96580  0.03125  0.28468  1.0000
  I   I148      1.0  0.92141  0.38794  0.35596  1.0000
  I   I149      1.0  0.91630  0.31304  0.59617  1.0000
  I   I150      1.0  0.16529  0.95366  0.91424  1.0000
  I   I151      1.0  0.06686  0.74026  0.84616  1.0000
  I   I152      1.0  0.29528  0.68134  0.31796  1.0000
  I   I153      1.0  0.92388  0.19041  0.69683  1.0000
  I   I154      1.0  0.39079  0.68460  0.54120  1.0000
  I   I155      1.0  0.30384  0.79019  0.52715  1.0000
  I   I156      1.0  0.52310  0.02485  0.22526  1.0000
  I   I157      1.0  0.54698  0.40175  0.96453  1.0000
  I   I158      1.0  0.24992  0.50235  0.26570  1.0000
  I   I159      1.0  0.61040  0.29926  0.44821  1.0000
  I   I160      1.0  0.49113  0.42526  0.46404  1.0000
  I   I161      1.0  0.69103  0.95435  0.60792  1.0000
  I   I162      1.0  0.43884  0.40839  0.50832  1.0000
  I   I163      1.0  0.51305  0.07877  0.16034  1.0000
  I   I164      1.0  0.82865  0.68721  0.53307  1.0000
  I   I165      1.0  0.16712  0.61806  0.66824  1.0000
  I   I166      1.0  0.87505  0.04971  0.98303  1.0000
  I   I167      1.0  0.52619  0.33997  0.39332  1.0000
  I   I168      1.0  0.93043  0.25908  0.74980  1.0000
  I   I169      1.0  0.00680  0.91183  0.03310  1.0000
  I   I170      1.0  0.99798  0.96478  0.00207  1.0000
  I   I171      1.0  0.98131  0.74485  0.46172  1.0000
  I   I172      1.0  0.84010  0.57974  0.98977  1.0000
  I   I173      1.0  0.67271  0.82430  0.28274  1.0000
  I   I174      1.0  0.57291  0.46147  0.03571  1.0000
  I   I175      1.0  0.80669  0.95586  0.12419  1.0000
  I   I176      1.0  0.91573  0.36644  0.88338  1.0000
  I   I177      1.0  0.01475  0.85910  0.67728  1.0000
  I   I178      1.0  0.34402  0.85754  0.04998  1.0000
  I   I179      1.0  0.74706  0.23580  0.21141  1.0000
  I   I180      1.0  0.21496  0.95229  0.09571  1.0000
  I   I181      1.0  0.45867  0.99469  0.67581  1.0000
  I   I182      1.0  0.40115  0.42263  0.74872  1.0000
  I   I183      1.0  0.06227  0.80803  0.82343  1.0000
  I   I184      1.0  0.77998  0.13930  0.48996  1.0000
  I   I185      1.0  0.75422  0.09028  0.25197  1.0000
  I   I186      1.0  0.32906  0.60268  0.62464  1.0000
  I   I187      1.0  0.87009  0.23911  0.32436  1.0000
  I   I188      1.0  0.44140  0.44646  0.09582  1.0000
  I   I189      1.0  0.01281  0.85979  0.83021  1.0000
  I   I190      1.0  0.87396  0.64217  0.50030  1.0000
  I   I191      1.0  0.72898  0.99394  0.67562  1.0000
  I   I192      1.0  0.02979  0.99998  0.20915  1.0000
  I   I193      1.0  0.81904  0.49518  0.81353  1.0000
  I   I194      1.0  0.56429  0.74329  0.98616  1.0000
  I   I195      1.0  0.97606  0.03364  0.18486  1.0000
  I   I196      1.0  0.45786  0.82908  0.98479  1.0000
  I   I197      1.0  0.96555  0.74588  0.07034  1.0000
  I   I198      1.0  0.19108  0.96793  0.80288  1.0000
  I   I199      1.0  0.96968  0.35838  0.83284  1.0000
  I   I200      1.0  0.69056  0.26275  0.66795  1.0000
  I   I201      1.0  0.94862  0.13028  0.63537  1.0000
  I   I202      1.0  0.89642  0.75377  0.89499  1.0000
  I   I203      1.0  0.19591  0.63490  0.84205  1.0000
  I   I204      1.0  0.48894  0.02444  0.75383  1.0000
  I   I205      1.0  0.50609  0.58556  0.28571  1.0000
  I   I206      1.0  0.41848  0.80772  0.93866  1.0000
  I   I207      1.0  0.49003  0.43123  0.94222  1.0000
  I   I208      1.0  0.85585  0.76799  0.99748  1.0000
  I   I209      1.0  0.72290  0.93189  0.66084  1.0000
  I   I210      1.0  0.07126  0.82183  0.63493  1.0000
  I   I211      1.0  0.29962  0.92408  0.62610  1.0000
  I   I212      1.0  0.29183  0.50918  0.25168  1.0000
  I   I213      1.0  0.23094  0.60932  0.91418  1.0000
  I   I214      1.0  0.43494  0.22222  0.36024  1.0000
  I   I215      1.0  0.46657  0.95940  0.12394  1.0000
  I   I216      1.0  0.74282  0.63833  0.50240  1.0000
  I   I217      1.0  0.02595  0.96514  0.92715  1.0000
  I   I218      1.0  0.40292  0.89914  0.29036  1.0000
  I   I219      1.0  0.21372  0.81576  0.26311  1.0000
  I   I220      1.0  0.58592  0.39523  0.88838  1.0000
  I   I221      1.0  0.69623  0.83662  0.19057  1.0000
  I   I222      1.0  0.87916  0.57210  0.05782  1.0000
  I   I223      1.0  0.80014  0.95981  0.21906  1.0000
  I   I224      1.0  0.91055  0.39414  0.79622  1.0000
  I   I225      1.0  0.88301  0.15579  0.57954  1.0000
  I   I226      1.0  0.31465  0.68141  0.38310  1.0000
  I   I227      1.0  0.08944  0.19680  0.10658  1.0000
  I   I228      1.0  0.29909  0.76667  0.83235  1.0000
  I   I229      1.0  0.95515  0.79068  0.04997  1.0000
  I   I230      1.0  0.50886  0.68603  0.70885  1.0000
  I   I231      1.0  0.90307  0.22041  0.01047  1.0000
  I   I232      1.0  0.43012  0.83568  0.91323  1.0000
  I   I233      1.0  0.47746  0.69384  0.44006  1.0000
  I   I234      1.0  0.69233  0.04421  0.64814  1.0000
  I   I235      1.0  0.35311  0.68132  0.48318  1.0000
  I   I236      1.0  0.69407  0.64973  0.57743  1.0000
  I   I237      1.0  0.67280  0.40608  0.22385  1.0000
  I   I238      1.0  0.41824  0.82549  0.58613  1.0000
  I   I239      1.0  0.83332  0.10270  0.95067  1.0000
  I   I240      1.0  0.34393  0.04524  0.90426  1.0000
  I   I241      1.0  0.78825  0.27768  0.69798  1.0000
  I   I242      1.0  0.77196  0.20966  0.46592  1.0000
  I   I243      1.0  0.34567  0.37156  0.98657  1.0000
  I   I244      1.0  0.79427  0.10090  0.56153  1.0000
  I   I245      1.0  0.66178  0.43712  0.60691  1.0000
  I   I246      1.0  0.15074  0.96022  0.80975  1.0000
  I   I247      1.0  0.37594  0.49184  0.71134  1.0000
  I   I248      1.0  0.12216  0.62058  0.65477  1.0000
  I   I249      1.0  0.96100  0.14663  0.73797  1.0000
  I   I250      1.0  0.87448  0.81558  0.84896  1.0000
  I   I251      1.0  0.34478  0.78437  0.58481  1.0000
  I   I252      1.0  0.52156  0.09669  0.25109  1.0000
  I   I253      1.0  0.47089  0.61344  0.35609  1.0000
  I   I254      1.0  0.47388  0.77744  0.99646  1.0000
  I   I255      1.0  0.63983  0.26142  0.40409  1.0000
  I   I256      1.0  0.37407  0.21967  0.73242  1.0000
  I   I257      1.0  0.24591  0.96121  0.06525  1.0000
  I   I258      1.0  0.39874  0.42886  0.45685  1.0000
  I   I259      1.0  0.89737  0.79207  0.56002  1.0000
  I   I260      1.0  0.86676  0.64962  0.60921  1.0000
  I   I261      1.0  0.15289  0.62101  0.76626  1.0000
  I   I262      1.0  0.36842  0.26843  0.34993  1.0000
  I   I263      1.0  0.77930  0.45879  0.17768  1.0000
  I   I264      1.0  0.32056  0.69970  0.79596  1.0000
  I   I265      1.0  0.04672  0.91467  0.92097  1.0000
  I   I266      1.0  0.24320  0.64250  0.89723  1.0000
  I   I267      1.0  0.21968  0.86346  0.21672  1.0000
  I   I268      1.0  0.94387  0.19400  0.19954  1.0000
  I   I269      1.0  0.80716  0.54406  0.75081  1.0000
  I   I270      1.0  0.23548  0.29943  0.01179  1.0000
  I   I271      1.0  0.75042  0.97132  0.21613  1.0000
  I   I272      1.0  0.56298  0.29430  0.32725  1.0000
  I   I273      1.0  0.91472  0.17263  0.50951  1.0000
  I   I274      1.0  0.45358  0.74717  0.47635  1.0000
  I   I275      1.0  0.93928  0.77338  0.51200  1.0000
  I   I276      1.0  0.35717  0.76828  0.85486  1.0000
  I   I277      1.0  0.29937  0.85338  0.01673  1.0000
  I   I278      1.0  0.49835  0.71134  0.62379  1.0000
  I   I279      1.0  0.45048  0.39878  0.05212  1.0000
  I   I280      1.0  0.94646  0.41266  0.27390  1.0000
  I   I281      1.0  0.43934  0.71902  0.36747  1.0000
  I   I282      1.0  0.33795  0.61699  0.70186  1.0000
  I   I283      1.0  0.38852  0.68980  0.42600  1.0000
  I   I284      1.0  0.88689  0.25417  0.74656  1.0000
  I   I285      1.0  0.01566  0.82483  0.88316  1.0000
  I   I286      1.0  0.44906  0.76433  0.59919  1.0000
  I   I287      1.0  0.30930  0.97370  0.60378  1.0000
  I   I288      1.0  0.35188  0.97600  0.84712  1.0000
  I   I289      1.0  0.41004  0.63517  0.47727  1.0000
  I   I290      1.0  0.67478  0.98692  0.68537  1.0000
  I   I291      1.0  0.47624  0.00877  0.14301  1.0000
  I   I292      1.0  0.97951  0.36747  0.29943  1.0000
  I   I293      1.0  0.59827  0.46965  0.54382  1.0000
  I   I294      1.0  0.76439  0.96182  0.75201  1.0000
  I   I295      1.0  0.40856  0.45246  0.82740  1.0000
  I   I296      1.0  0.68794  0.21728  0.71200  1.0000
  I   I297      1.0  0.97241  0.09549  0.70249  1.0000
  I   I298      1.0  0.00422  0.75790  0.03230  1.0000
  I   I299      1.0  0.83315  0.81515  0.88575  1.0000
  I   I300      1.0  0.73941  0.61169  0.62196  1.0000
  I   I301      1.0  0.61136  0.24420  0.47484  1.0000
  I   I302      1.0  0.47197  0.62962  0.44369  1.0000
  I   I303      1.0  0.42864  0.19146  0.73656  1.0000
  I   I304      1.0  0.44676  0.42356  0.41850  1.0000
  I   I305      1.0  0.83505  0.82325  0.98609  1.0000
  I   I306      1.0  0.37293  0.45043  0.66618  1.0000
  I   I307      1.0  0.22599  0.93504  0.18713  1.0000
  I   I308      1.0  0.22834  0.41387  0.82995  1.0000
  I   I309      1.0  0.35142  0.69879  0.34804  1.0000
  I   I310      1.0  0.43662  0.93006  0.15689  1.0000
  I   I311      1.0  0.81999  0.47434  0.24129  1.0000
  I   I312      1.0  0.04411  0.66140  0.48173  1.0000
  I   I313      1.0  0.18531  0.84220  0.19584  1.0000
  I   I314      1.0  0.02361  0.92794  0.82332  1.0000
  I   I315      1.0  0.35933  0.92117  0.23457  1.0000
  I   I316      1.0  0.83250  0.62513  0.03466  1.0000
  I   I317      1.0  0.97678  0.14643  0.29600  1.0000
  I   I318      1.0  0.72042  0.82915  0.28675  1.0000
  I   I319      1.0  0.03796  0.87164  0.61794  1.0000
  I   I320      1.0  0.48849  0.79723  0.91400  1.0000
  I   I321      1.0  0.11954  0.72714  0.82473  1.0000
  I   I322      1.0  0.53558  0.72378  0.90767  1.0000
  I   I323      1.0  0.79238  0.20766  0.22344  1.0000
  I   I324      1.0  0.35750  0.73039  0.78803  1.0000
  I   I325      1.0  0.27336  0.93418  0.14798  1.0000
  I   I326      1.0  0.41618  0.44414  0.66872  1.0000
  I   I327      1.0  0.84600  0.19857  0.24901  1.0000
  I   I328      1.0  0.80659  0.23815  0.03299  1.0000
  I   I329      1.0  0.79247  0.11306  0.22608  1.0000
  I   I330      1.0  0.72861  0.96487  0.59087  1.0000
  I   I331      1.0  0.03302  0.85057  0.92728  1.0000
  I   I332      1.0  0.66377  0.03599  0.70759  1.0000
  I   I333      1.0  0.55297  0.75151  0.85181  1.0000
  I   I334      1.0  0.34004  0.02314  0.99491  1.0000
  I   I335      1.0  0.29698  0.36523  0.00866  1.0000
  I   I336      1.0  0.82341  0.09715  0.04204  1.0000
  I   I337      1.0  0.44396  0.89175  0.11567  1.0000
  I   I338      1.0  0.18248  0.41854  0.86980  1.0000
  I   I339      1.0  0.46748  0.97767  0.26223  1.0000
  I   I340      1.0  0.90441  0.61690  0.19462  1.0000
  I   I341      1.0  0.87958  0.28011  0.81898  1.0000
  I   I342      1.0  0.77138  0.94334  0.66281  1.0000
  I   I343      1.0  0.10738  0.70053  0.91318  1.0000
  I   I344      1.0  0.65177  0.25309  0.76669  1.0000
  I   I345      1.0  0.97499  0.17817  0.68716  1.0000
  I   I346      1.0  0.27603  0.97457  0.67913  1.0000
  I   I347      1.0  0.86896  0.76641  0.81422  1.0000
  I   I348      1.0  0.57662  0.04427  0.25034  1.0000
  I   I349      1.0  0.63443  0.26510  0.53928  1.0000
  I   I350      1.0  0.50608  0.56347  0.37379  1.0000
  I   I351      1.0  0.46569  0.76874  0.89244  1.0000
  I   I352      1.0  0.43489  0.45442  0.51842  1.0000
  I   I353      1.0  0.38056  0.16945  0.71261  1.0000
  I   I354      1.0  0.36133  0.47658  0.77564  1.0000
  I   I355      1.0  0.55161  0.09179  0.17186  1.0000
  I   I356      1.0  0.33267  0.33487  0.91370  1.0000
  I   I357      1.0  0.23599  0.64097  0.81907  1.0000
  I   I358      1.0  0.91288  0.36649  0.62708  1.0000
  I   I359      1.0  0.80626  0.48247  0.13490  1.0000
  I   I360      1.0  0.36685  0.93907  0.56942  1.0000
  I   I361      1.0  0.95259  0.80649  0.42590  1.0000
  I   I362      1.0  0.05088  0.92209  0.99975  1.0000
  I   I363      1.0  0.19384  0.68499  0.90472  1.0000
  I   I364      1.0  0.56778  0.50882  0.04332  1.0000
  I   I365      1.0  0.63470  0.48822  0.62238  1.0000
  I   I366      1.0  0.72524  0.78357  0.24033  1.0000
  I   I367      1.0  0.01710  0.84624  0.56853  1.0000
  I   I368      1.0  0.96781  0.60834  0.19762  1.0000
  I   I369      1.0  0.48061  0.99073  0.04029  1.0000
  I   I370      1.0  0.00994  0.11622  0.68798  1.0000
  I   I371      1.0  0.79053  0.24633  0.31241  1.0000
  I   I372      1.0  0.87458  0.31183  0.73028  1.0000
  I   I373      1.0  0.24562  0.98778  0.16548  1.0000
  I   I374      1.0  0.55603  0.64868  0.66287  1.0000
  I   I375      1.0  0.77432  0.21427  0.30626  1.0000
  I   I376      1.0  0.82920  0.42963  0.16584  1.0000
  I   I377      1.0  0.80156  0.07820  0.31976  1.0000
  I   I378      1.0  0.35652  0.62508  0.59616  1.0000
  I   I379      1.0  0.72121  0.39066  0.21631  1.0000
  I   I380      1.0  0.90283  0.22003  0.40706  1.0000
  I   I381      1.0  0.52472  0.05399  0.27952  1.0000
  I   I382      1.0  0.35490  0.01885  0.81685  1.0000
  I   I383      1.0  0.35050  0.74056  0.59616  1.0000
  I   I384      1.0  0.33088  0.00121  0.56678  1.0000
