data_image0
_chemical_formula_structural       Ti96I384
_chemical_formula_sum              "Ti96 I384"
_cell_length_a       51.0497
_cell_length_b       50.9998
_cell_length_c       24.6587
_cell_angle_alpha    88.7757
_cell_angle_beta     88.7757
_cell_angle_gamma    62.1586

_space_group_name_H-M_alt    "P 1"
_space_group_IT_number       1

loop_
  _space_group_symop_operation_xyz
  'x, y, z'

loop_
  _atom_site_type_symbol
  _atom_site_label
  _atom_site_symmetry_multiplicity
  _atom_site_fract_x
  _atom_site_fract_y
  _atom_site_fract_z
  _atom_site_occupancy
  Ti  Ti1       1.0  0.38353  0.85202  0.40300  1.0000
  Ti  Ti2       1.0  0.14418  0.00384  0.88080  1.0000
  Ti  Ti3       1.0  0.33115  0.87743  0.10022  1.0000
  Ti  Ti4       1.0  0.20160  0.06209  0.54413  1.0000
  Ti  Ti5       1.0  0.09360  0.41221  0.76221  1.0000
  Ti  Ti6       1.0  0.13933  0.21866  0.78497  1.0000
  Ti  Ti7       1.0  0.92757  0.73155  0.93960  1.0000
  Ti  Ti8       1.0  0.90665  0.03770  0.44423  1.0000
  Ti  Ti9       1.0  0.92144  0.79339  0.19084  1.0000
  Ti  Ti10      1.0  0.18617  0.80963  0.96980  1.0000
  Ti  Ti11      1.0  0.05746  0.76868  0.74453  1.0000
  Ti  Ti12      1.0  0.91851  0.89349  0.59648  1.0000
  Ti  Ti13      1.0  0.37186  0.16766  0.37213  1.0000
  Ti  Ti14      1.0  0.41340  0.00729  0.77766  1.0000
  Ti  Ti15      1.0  0.33587  0.10894  0.13855  1.0000
  Ti  Ti16      1.0  0.30049  0.54395  0.99959  1.0000
  Ti  Ti17      1.0  0.18783  0.65399  0.20489  1.0000
  Ti  Ti18      1.0  0.21331  0.46970  0.58032  1.0000
  Ti  Ti19      1.0  0.44905  0.64401  0.27193  1.0000
  Ti  Ti20      1.0  0.66340  0.68798  0.64751  1.0000
  Ti  Ti21      1.0  0.37268  0.62704  0.51075  1.0000
  Ti  Ti22      1.0  0.39458  0.77824  0.75468  1.0000
  Ti  Ti23      1.0  0.62259  0.84329  0.84699  1.0000
  Ti  Ti24      1.0  0.51026  0.71335  0.99929  1.0000
  Ti  Ti25      1.0  0.41901  0.35089  0.90748  1.0000
  Ti  Ti26      1.0  0.28504  0.39680  0.08509  1.0000
  Ti  Ti27      1.0  0.63332  0.30668  0.47971  1.0000
  Ti  Ti28      1.0  0.53653  0.37140  0.19939  1.0000
  Ti  Ti29      1.0  0.60461  0.53226  0.04349  1.0000
  Ti  Ti30      1.0  0.49244  0.54895  0.80554  1.0000
  Ti  Ti31      1.0  0.93305  0.53417  0.09162  1.0000
  Ti  Ti32      1.0  0.78472  0.42842  0.69229  1.0000
  Ti  Ti33      1.0  0.85465  0.51131  0.83070  1.0000
  Ti  Ti34      1.0  0.74548  0.94016  0.13549  1.0000
  Ti  Ti35      1.0  0.62271  0.72029  0.16457  1.0000
  Ti  Ti36      1.0  0.86204  0.67768  0.58803  1.0000
  Ti  Ti37      1.0  0.74252  0.16951  0.33012  1.0000
  Ti  Ti38      1.0  0.79087  0.26847  0.16917  1.0000
  Ti  Ti39      1.0  0.74714  0.19891  0.85520  1.0000
  Ti  Ti40      1.0  0.93353  0.31358  0.99394  1.0000
  Ti  Ti41      1.0  0.90151  0.23763  0.60880  1.0000
  Ti  Ti42      1.0  0.22402  0.87748  0.59462  1.0000
  Ti  Ti43      1.0  0.10272  0.33951  0.18787  1.0000
  Ti  Ti44      1.0  0.03040  0.61243  0.49867  1.0000
  Ti  Ti45      1.0  0.08947  0.56860  0.79175  1.0000
  Ti  Ti46      1.0  0.69872  0.86578  0.49436  1.0000
  Ti  Ti47      1.0  0.64584  0.03546  0.60231  1.0000
  Ti  Ti48      1.0  0.52701  0.16314  0.04358  1.0000
  Ti  Ti49      1.0  0.35570  0.90821  0.26249  1.0000
  Ti  Ti50      1.0  0.04332  0.05804  0.93624  1.0000
  Ti  Ti51      1.0  0.20924  0.03303  0.93049  1.0000
  Ti  Ti52      1.0  0.13580  0.09258  0.48585  1.0000
  Ti  Ti53      1.0  0.08745  0.39453  0.61544  1.0000
  Ti  Ti54      1.0  0.16241  0.18306  0.93668  1.0000
  Ti  Ti55      1.0  0.88696  0.81889  0.01682  1.0000
  Ti  Ti56      1.0  0.84239  0.04949  0.53797  1.0000
  Ti  Ti57      1.0  0.95206  0.85414  0.27233  1.0000
  Ti  Ti58      1.0  0.12163  0.86950  0.87447  1.0000
  Ti  Ti59      1.0  0.27204  0.73442  0.98315  1.0000
  Ti  Ti60      1.0  0.98591  0.81943  0.65446  1.0000
  Ti  Ti61      1.0  0.37795  0.09895  0.26191  1.0000
  Ti  Ti62      1.0  0.30815  0.24778  0.40543  1.0000
  Ti  Ti63      1.0  0.37452  0.08189  0.78641  1.0000
  Ti  Ti64      1.0  0.24749  0.39640  0.61178  1.0000
  Ti  Ti65      1.0  0.26787  0.56641  0.15613  1.0000
  Ti  Ti66      1.0  0.14435  0.70327  0.29397  1.0000
  Ti  Ti67      1.0  0.38744  0.68481  0.37250  1.0000
  Ti  Ti68      1.0  0.65035  0.67798  0.77295  1.0000
  Ti  Ti69      1.0  0.31826  0.62296  0.62282  1.0000
  Ti  Ti70      1.0  0.44888  0.72770  0.88674  1.0000
  Ti  Ti71      1.0  0.59062  0.86222  0.71279  1.0000
  Ti  Ti72      1.0  0.64649  0.83980  0.02241  1.0000
  Ti  Ti73      1.0  0.56918  0.33122  0.54905  1.0000
  Ti  Ti74      1.0  0.32782  0.40329  0.94142  1.0000
  Ti  Ti75      1.0  0.22953  0.36586  0.10289  1.0000
  Ti  Ti76      1.0  0.53958  0.54783  0.67441  1.0000
  Ti  Ti77      1.0  0.47466  0.41671  0.14973  1.0000
  Ti  Ti78      1.0  0.58176  0.52121  0.89429  1.0000
  Ti  Ti79      1.0  0.92323  0.47519  0.94931  1.0000
  Ti  Ti80      1.0  0.99965  0.54625  0.15604  1.0000
  Ti  Ti81      1.0  0.85308  0.44576  0.71596  1.0000
  Ti  Ti82      1.0  0.74136  0.00949  0.23857  1.0000
  Ti  Ti83      1.0  0.67890  0.70594  0.30832  1.0000
  Ti  Ti84      1.0  0.80699  0.69863  0.49625  1.0000
  Ti  Ti85      1.0  0.69477  0.14271  0.39544  1.0000
  Ti  Ti86      1.0  0.81912  0.17630  0.21557  1.0000
  Ti  Ti87      1.0  0.68147  0.28185  0.88337  1.0000
  Ti  Ti88      1.0  0.01223  0.27064  0.98652  1.0000
  Ti  Ti89      1.0  0.91500  0.18359  0.68948  1.0000
  Ti  Ti90      1.0  0.18335  0.86001  0.54337  1.0000
  Ti  Ti91      1.0  0.10864  0.54364  0.91976  1.0000
  Ti  Ti92      1.0  0.05030  0.33725  0.25480  1.0000
  Ti  Ti93      1.0  0.01842  0.58504  0.66067  1.0000
  Ti  Ti94      1.0  0.49057  0.15423  0.11717  1.0000
  Ti  Ti95      1.0  0.65289  0.95021  0.51083  1.0000
  Ti  Ti96      1.0  0.55859  0.09755  0.54286  1.0000
  I   I1        1.0  0.01411  0.04330  0.86717  1.0000
  I   I2        1.0  0.17687  0.01085  0.98756  1.0000
  I   I3        1.0  0.32397  0.96623  0.23367  1.0000
  I   I4        1.0  0.08899  0.35001  0.57491  1.0000
  I   I5        1.0  0.14948  0.14727  0.98052  1.0000
  I   I6        1.0  0.14458  0.20647  0.67846  1.0000
  I   I7        1.0  0.85415  0.09052  0.47558  1.0000
  I   I8        1.0  0.95040  0.98425  0.44378  1.0000
  I   I9        1.0  0.94166  0.78566  0.06888  1.0000
  I   I10       1.0  0.21585  0.74928  0.96011  1.0000
  I   I11       1.0  0.04548  0.81536  0.65454  1.0000
  I   I12       1.0  0.14567  0.89588  0.82338  1.0000
  I   I13       1.0  0.32318  0.20811  0.30198  1.0000
  I   I14       1.0  0.44446  0.02658  0.83407  1.0000
  I   I15       1.0  0.34643  0.07063  0.24262  1.0000
  I   I16       1.0  0.31504  0.56697  0.10000  1.0000
  I   I17       1.0  0.19336  0.64490  0.31548  1.0000
  I   I18       1.0  0.27612  0.42257  0.66266  1.0000
  I   I19       1.0  0.65061  0.62835  0.80976  1.0000
  I   I20       1.0  0.27307  0.61325  0.58981  1.0000
  I   I21       1.0  0.39231  0.67346  0.49100  1.0000
  I   I22       1.0  0.57158  0.91887  0.68718  1.0000
  I   I23       1.0  0.65424  0.84848  0.76514  1.0000
  I   I24       1.0  0.44534  0.74932  0.98782  1.0000
  I   I25       1.0  0.36470  0.35092  0.87752  1.0000
  I   I26       1.0  0.24620  0.38850  0.01535  1.0000
  I   I27       1.0  0.53504  0.30334  0.52686  1.0000
  I   I28       1.0  0.46018  0.41963  0.25308  1.0000
  I   I29       1.0  0.61983  0.48662  0.97228  1.0000
  I   I30       1.0  0.52786  0.50561  0.72815  1.0000
  I   I31       1.0  0.99716  0.49854  0.11711  1.0000
  I   I32       1.0  0.81923  0.46237  0.62401  1.0000
  I   I33       1.0  0.92146  0.47907  0.84171  1.0000
  I   I34       1.0  0.67456  0.67144  0.21559  1.0000
  I   I35       1.0  0.86418  0.66037  0.46433  1.0000
  I   I36       1.0  0.69429  0.05350  0.28145  1.0000
  I   I37       1.0  0.75360  0.18654  0.22248  1.0000
  I   I38       1.0  0.67620  0.33271  0.84538  1.0000
  I   I39       1.0  0.64871  0.14229  0.35565  1.0000
  I   I40       1.0  0.94817  0.12866  0.66642  1.0000
  I   I41       1.0  0.18136  0.82804  0.45888  1.0000
  I   I42       1.0  0.96878  0.30528  0.08410  1.0000
  I   I43       1.0  0.00228  0.37148  0.31685  1.0000
  I   I44       1.0  0.01019  0.55703  0.57555  1.0000
  I   I45       1.0  0.05711  0.54693  0.86813  1.0000
  I   I46       1.0  0.66360  0.89961  0.58574  1.0000
  I   I47       1.0  0.58355  0.05012  0.61604  1.0000
  I   I48       1.0  0.50425  0.10932  0.04425  1.0000
  I   I49       1.0  0.38654  0.83647  0.29307  1.0000
  I   I50       1.0  0.09532  0.06455  0.91758  1.0000
  I   I51       1.0  0.25294  0.98908  0.88571  1.0000
  I   I52       1.0  0.18354  0.04616  0.63968  1.0000
  I   I53       1.0  0.05269  0.39523  0.71135  1.0000
  I   I54       1.0  0.15552  0.23498  0.88463  1.0000
  I   I55       1.0  0.83340  0.83736  0.98668  1.0000
  I   I56       1.0  0.86004  0.99551  0.52243  1.0000
  I   I57       1.0  0.93215  0.84185  0.16755  1.0000
  I   I58       1.0  0.16939  0.80384  0.06877  1.0000
  I   I59       1.0  0.29213  0.67721  0.95952  1.0000
  I   I60       1.0  0.92554  0.85083  0.68502  1.0000
  I   I61       1.0  0.40261  0.13824  0.27804  1.0000
  I   I62       1.0  0.30265  0.29253  0.34583  1.0000
  I   I63       1.0  0.36379  0.10751  0.88221  1.0000
  I   I64       1.0  0.27270  0.52144  0.94584  1.0000
  I   I65       1.0  0.20416  0.58985  0.19654  1.0000
  I   I66       1.0  0.11821  0.69301  0.37903  1.0000
  I   I67       1.0  0.36096  0.70478  0.27742  1.0000
  I   I68       1.0  0.63935  0.65117  0.65669  1.0000
  I   I69       1.0  0.30983  0.67184  0.55018  1.0000
  I   I70       1.0  0.45327  0.71707  0.77766  1.0000
  I   I71       1.0  0.60050  0.81248  0.80002  1.0000
  I   I72       1.0  0.67468  0.78315  0.04899  1.0000
  I   I73       1.0  0.57801  0.31722  0.65038  1.0000
  I   I74       1.0  0.29522  0.44048  0.03675  1.0000
  I   I75       1.0  0.22196  0.36411  0.21026  1.0000
  I   I76       1.0  0.53253  0.34445  0.29100  1.0000
  I   I77       1.0  0.53243  0.39459  0.09443  1.0000
  I   I78       1.0  0.54379  0.55662  0.81170  1.0000
  I   I79       1.0  0.92221  0.48794  0.06776  1.0000
  I   I80       1.0  0.96981  0.59398  0.22282  1.0000
  I   I81       1.0  0.86946  0.44979  0.82763  1.0000
  I   I82       1.0  0.79258  0.92180  0.19355  1.0000
  I   I83       1.0  0.59571  0.68631  0.16995  1.0000
  I   I84       1.0  0.82035  0.73856  0.44923  1.0000
  I   I85       1.0  0.74788  0.11525  0.30701  1.0000
  I   I86       1.0  0.86242  0.18201  0.25624  1.0000
  I   I87       1.0  0.78430  0.19143  0.77955  1.0000
  I   I88       1.0  0.89310  0.36840  0.00022  1.0000
  I   I89       1.0  0.84828  0.27022  0.57504  1.0000
  I   I90       1.0  0.16762  0.91100  0.62994  1.0000
  I   I91       1.0  0.15791  0.53748  0.94956  1.0000
  I   I92       1.0  0.02545  0.31042  0.20902  1.0000
  I   I93       1.0  0.03790  0.61895  0.74713  1.0000
  I   I94       1.0  0.43325  0.16584  0.12806  1.0000
  I   I95       1.0  0.64460  0.00664  0.48465  1.0000
  I   I96       1.0  0.54728  0.14297  0.47096  1.0000
  I   I97       1.0  0.31676  0.89290  0.21588  1.0000
  I   I98       1.0  0.43651  0.81285  0.45059  1.0000
  I   I99       1.0  0.16798  0.03800  0.84581  1.0000
  I   I100      1.0  0.10531  0.10801  0.39692  1.0000
  I   I101      1.0  0.25791  0.02241  0.51981  1.0000
  I   I102      1.0  0.11405  0.36874  0.82873  1.0000
  I   I103      1.0  0.86702  0.82908  0.12577  1.0000
  I   I104      1.0  0.97843  0.73257  0.91730  1.0000
  I   I105      1.0  0.98876  0.83128  0.35457  1.0000
  I   I106      1.0  0.87330  0.89009  0.57119  1.0000
  I   I107      1.0  0.24111  0.80005  0.00811  1.0000
  I   I108      1.0  0.99526  0.76782  0.65333  1.0000
  I   I109      1.0  0.42490  0.05086  0.28417  1.0000
  I   I110      1.0  0.37039  0.22364  0.38447  1.0000
  I   I111      1.0  0.40626  0.96113  0.81755  1.0000
  I   I112      1.0  0.21033  0.41310  0.52642  1.0000
  I   I113      1.0  0.24660  0.58449  0.04791  1.0000
  I   I114      1.0  0.13474  0.65505  0.22246  1.0000
  I   I115      1.0  0.34994  0.65599  0.41281  1.0000
  I   I116      1.0  0.50030  0.59307  0.29874  1.0000
  I   I117      1.0  0.61776  0.73575  0.60267  1.0000
  I   I118      1.0  0.50091  0.73641  0.87389  1.0000
  I   I119      1.0  0.37607  0.74677  0.70796  1.0000
  I   I120      1.0  0.67075  0.79199  0.88275  1.0000
  I   I121      1.0  0.63172  0.25748  0.45943  1.0000
  I   I122      1.0  0.38495  0.37798  0.99971  1.0000
  I   I123      1.0  0.23819  0.43000  0.14158  1.0000
  I   I124      1.0  0.47634  0.58339  0.69297  1.0000
  I   I125      1.0  0.59399  0.33530  0.17375  1.0000
  I   I126      1.0  0.54960  0.55733  0.98427  1.0000
  I   I127      1.0  0.85894  0.51063  0.94050  1.0000
  I   I128      1.0  0.92647  0.52913  0.20265  1.0000
  I   I129      1.0  0.79299  0.47206  0.75628  1.0000
  I   I130      1.0  0.82214  0.65097  0.57908  1.0000
  I   I131      1.0  0.70918  0.97495  0.23033  1.0000
  I   I132      1.0  0.65532  0.73690  0.39298  1.0000
  I   I133      1.0  0.62318  0.30556  0.86830  1.0000
  I   I134      1.0  0.80401  0.14843  0.31351  1.0000
  I   I135      1.0  0.78729  0.28140  0.07240  1.0000
  I   I136      1.0  0.25131  0.90983  0.57935  1.0000
  I   I137      1.0  0.99248  0.23304  0.00453  1.0000
  I   I138      1.0  0.90627  0.20416  0.52174  1.0000
  I   I139      1.0  0.11799  0.59326  0.83935  1.0000
  I   I140      1.0  0.04110  0.38180  0.17479  1.0000
  I   I141      1.0  0.06600  0.59264  0.59490  1.0000
  I   I142      1.0  0.47275  0.19529  0.00560  1.0000
  I   I143      1.0  0.70900  0.92074  0.48798  1.0000
  I   I144      1.0  0.61680  0.08740  0.54373  1.0000
  I   I145      1.0  0.34281  0.90863  0.36544  1.0000
  I   I146      1.0  0.09898  0.99642  0.93881  1.0000
  I   I147      1.0  0.27668  0.91121  0.07066  1.0000
  I   I148      1.0  0.19328  0.08280  0.43530  1.0000
  I   I149      1.0  0.07390  0.44921  0.66352  1.0000
  I   I150      1.0  0.12408  0.18544  0.84010  1.0000
  I   I151      1.0  0.89192  0.76025  0.02594  1.0000
  I   I152      1.0  0.90676  0.03444  0.55831  1.0000
  I   I153      1.0  0.97784  0.75160  0.18508  1.0000
  I   I154      1.0  0.13313  0.81187  0.92887  1.0000
  I   I155      1.0  0.07757  0.72986  0.66454  1.0000
  I   I156      1.0  0.97660  0.82590  0.54552  1.0000
  I   I157      1.0  0.35201  0.11755  0.36638  1.0000
  I   I158      1.0  0.35435  0.04362  0.83444  1.0000
  I   I159      1.0  0.28422  0.11247  0.15427  1.0000
  I   I160      1.0  0.15662  0.50055  0.56069  1.0000
  I   I161      1.0  0.24886  0.63479  0.17104  1.0000
  I   I162      1.0  0.22566  0.50674  0.62852  1.0000
  I   I163      1.0  0.41434  0.61781  0.31643  1.0000
  I   I164      1.0  0.59329  0.71040  0.78469  1.0000
  I   I165      1.0  0.37221  0.62675  0.62209  1.0000
  I   I166      1.0  0.42277  0.78479  0.84304  1.0000
  I   I167      1.0  0.58031  0.89930  0.83467  1.0000
  I   I168      1.0  0.56525  0.66816  0.98212  1.0000
  I   I169      1.0  0.43512  0.33784  0.81133  1.0000
  I   I170      1.0  0.31767  0.35907  0.99197  1.0000
  I   I171      1.0  0.66186  0.31175  0.39518  1.0000
  I   I172      1.0  0.55084  0.52276  0.57956  1.0000
  I   I173      1.0  0.58149  0.50937  0.11207  1.0000
  I   I174      1.0  0.52911  0.51074  0.89871  1.0000
  I   I175      1.0  0.92876  0.53005  0.94955  1.0000
  I   I176      1.0  0.78961  0.40231  0.60368  1.0000
  I   I177      1.0  0.85561  0.49947  0.70432  1.0000
  I   I178      1.0  0.74889  0.99244  0.11521  1.0000
  I   I179      1.0  0.61815  0.74673  0.26810  1.0000
  I   I180      1.0  0.88609  0.70983  0.58168  1.0000
  I   I181      1.0  0.67869  0.19518  0.31351  1.0000
  I   I182      1.0  0.78145  0.23467  0.25791  1.0000
  I   I183      1.0  0.77843  0.16474  0.93550  1.0000
  I   I184      1.0  0.94394  0.29688  0.89445  1.0000
  I   I185      1.0  0.89368  0.25174  0.71177  1.0000
  I   I186      1.0  0.19687  0.83204  0.63985  1.0000
  I   I187      1.0  0.14719  0.29377  0.23255  1.0000
  I   I188      1.0  0.97871  0.62798  0.44418  1.0000
  I   I189      1.0  0.06694  0.54064  0.71423  1.0000
  I   I190      1.0  0.66856  0.83641  0.48842  1.0000
  I   I191      1.0  0.66836  0.97248  0.60430  1.0000
  I   I192      1.0  0.54852  0.13118  0.95232  1.0000
  I   I193      1.0  0.34957  0.82877  0.42960  1.0000
  I   I194      1.0  0.13516  0.98953  0.78752  1.0000
  I   I195      1.0  0.35554  0.87463  0.00673  1.0000
  I   I196      1.0  0.23079  0.08570  0.59980  1.0000
  I   I197      1.0  0.04735  0.45049  0.81855  1.0000
  I   I198      1.0  0.20058  0.17851  0.79021  1.0000
  I   I199      1.0  0.90942  0.72166  0.84700  1.0000
  I   I200      1.0  0.79703  0.06385  0.46805  1.0000
  I   I201      1.0  0.92246  0.81578  0.28558  1.0000
  I   I202      1.0  0.16090  0.86681  0.97256  1.0000
  I   I203      1.0  0.10465  0.77157  0.77168  1.0000
  I   I204      1.0  0.92370  0.91331  0.50480  1.0000
  I   I205      1.0  0.42045  0.14016  0.43044  1.0000
  I   I206      1.0  0.45338  0.98020  0.69865  1.0000
  I   I207      1.0  0.32377  0.14536  0.05835  1.0000
  I   I208      1.0  0.32193  0.56884  0.92550  1.0000
  I   I209      1.0  0.17976  0.64990  0.09678  1.0000
  I   I210      1.0  0.20448  0.44915  0.69184  1.0000
  I   I211      1.0  0.43765  0.69508  0.23149  1.0000
  I   I212      1.0  0.66011  0.69049  0.86347  1.0000
  I   I213      1.0  0.34860  0.59226  0.51073  1.0000
  I   I214      1.0  0.41566  0.79351  0.67158  1.0000
  I   I215      1.0  0.61066  0.82475  0.95277  1.0000
  I   I216      1.0  0.52750  0.75420  0.01301  1.0000
  I   I217      1.0  0.46247  0.36135  0.93926  1.0000
  I   I218      1.0  0.32995  0.37860  0.16010  1.0000
  I   I219      1.0  0.60631  0.35453  0.54471  1.0000
  I   I220      1.0  0.54407  0.41353  0.24786  1.0000
  I   I221      1.0  0.65959  0.51368  0.05702  1.0000
  I   I222      1.0  0.46909  0.58803  0.88455  1.0000
  I   I223      1.0  0.87737  0.57302  0.08049  1.0000
  I   I224      1.0  0.77885  0.38923  0.75769  1.0000
  I   I225      1.0  0.79828  0.53194  0.85889  1.0000
  I   I226      1.0  0.71777  0.90854  0.14155  1.0000
  I   I227      1.0  0.57787  0.76786  0.13379  1.0000
  I   I228      1.0  0.83683  0.69785  0.68762  1.0000
  I   I229      1.0  0.73984  0.15675  0.43976  1.0000
  I   I230      1.0  0.83245  0.27543  0.20280  1.0000
  I   I231      1.0  0.74180  0.25364  0.91511  1.0000
  I   I232      1.0  0.90780  0.28566  0.04110  1.0000
  I   I233      1.0  0.91407  0.17502  0.79442  1.0000
  I   I234      1.0  0.24945  0.83063  0.52508  1.0000
  I   I235      1.0  0.13094  0.36626  0.14084  1.0000
  I   I236      1.0  0.03162  0.65988  0.46807  1.0000
  I   I237      1.0  0.12617  0.56391  0.70188  1.0000
  I   I238      1.0  0.72166  0.84995  0.39635  1.0000
  I   I239      1.0  0.70178  0.02240  0.58762  1.0000
  I   I240      1.0  0.54622  0.20033  0.02045  1.0000
  I   I241      1.0  0.36604  0.88397  0.49420  1.0000
  I   I242      1.0  0.18654  0.94900  0.88905  1.0000
  I   I243      1.0  0.35001  0.82087  0.12012  1.0000
  I   I244      1.0  0.17518  0.03260  0.49103  1.0000
  I   I245      1.0  0.13674  0.42431  0.75677  1.0000
  I   I246      1.0  0.09723  0.27126  0.75956  1.0000
  I   I247      1.0  0.94117  0.67810  0.97810  1.0000
  I   I248      1.0  0.88625  0.02564  0.35585  1.0000
  I   I249      1.0  0.89787  0.75973  0.22892  1.0000
  I   I250      1.0  0.20024  0.80480  0.85746  1.0000
  I   I251      1.0  0.06458  0.72876  0.81760  1.0000
  I   I252      1.0  0.89749  0.93955  0.66023  1.0000
  I   I253      1.0  0.32547  0.18524  0.44081  1.0000
  I   I254      1.0  0.37671  0.04426  0.69154  1.0000
  I   I255      1.0  0.36571  0.05808  0.08960  1.0000
  I   I256      1.0  0.34688  0.49391  0.03213  1.0000
  I   I257      1.0  0.17868  0.71018  0.21377  1.0000
  I   I258      1.0  0.29551  0.36998  0.55588  1.0000
  I   I259      1.0  0.46071  0.62007  0.17823  1.0000
  I   I260      1.0  0.66238  0.72571  0.73293  1.0000
  I   I261      1.0  0.42267  0.60193  0.46076  1.0000
  I   I262      1.0  0.34474  0.82716  0.75251  1.0000
  I   I263      1.0  0.64635  0.87078  0.93493  1.0000
  I   I264      1.0  0.49637  0.69697  0.08653  1.0000
  I   I265      1.0  0.44316  0.29395  0.93589  1.0000
  I   I266      1.0  0.29144  0.33578  0.12116  1.0000
  I   I267      1.0  0.67190  0.28348  0.55538  1.0000
  I   I268      1.0  0.50365  0.35076  0.15342  1.0000
  I   I269      1.0  0.58297  0.58564  0.09004  1.0000
  I   I270      1.0  0.44355  0.54189  0.78753  1.0000
  I   I271      1.0  0.95736  0.57183  0.07914  1.0000
  I   I272      1.0  0.73459  0.47176  0.66839  1.0000
  I   I273      1.0  0.86033  0.56191  0.83049  1.0000
  I   I274      1.0  0.76169  0.91905  0.03621  1.0000
  I   I275      1.0  0.64926  0.71505  0.07124  1.0000
  I   I276      1.0  0.90467  0.62094  0.59577  1.0000
  I   I277      1.0  0.73292  0.21658  0.38679  1.0000
  I   I278      1.0  0.74282  0.31612  0.20499  1.0000
  I   I279      1.0  0.72241  0.16347  0.84365  1.0000
  I   I280      1.0  0.04828  0.23722  0.90976  1.0000
  I   I281      1.0  0.86117  0.19603  0.66283  1.0000
  I   I282      1.0  0.24498  0.85431  0.69831  1.0000
  I   I283      1.0  0.08139  0.35916  0.30645  1.0000
  I   I284      1.0  0.06362  0.56591  0.43774  1.0000
  I   I285      1.0  0.13147  0.51305  0.81041  1.0000
  I   I286      1.0  0.74103  0.83736  0.56099  1.0000
  I   I287      1.0  0.64623  0.05202  0.70010  1.0000
  I   I288      1.0  0.56803  0.12528  0.10808  1.0000
  I   I289      1.0  0.40955  0.90802  0.27481  1.0000
  I   I290      1.0  0.03083  0.05657  0.03748  1.0000
  I   I291      1.0  0.23217  0.04558  0.01479  1.0000
  I   I292      1.0  0.10348  0.08663  0.56880  1.0000
  I   I293      1.0  0.09585  0.41639  0.52709  1.0000
  I   I294      1.0  0.22061  0.15420  0.93272  1.0000
  I   I295      1.0  0.90852  0.79660  0.90103  1.0000
  I   I296      1.0  0.80515  0.06900  0.61755  1.0000
  I   I297      1.0  0.98878  0.86511  0.21532  1.0000
  I   I298      1.0  0.09718  0.85809  0.79476  1.0000
  I   I299      1.0  0.26981  0.72940  0.08943  1.0000
  I   I300      1.0  0.97405  0.88030  0.65409  1.0000
  I   I301      1.0  0.32278  0.15264  0.22185  1.0000
  I   I302      1.0  0.32716  0.26194  0.49660  1.0000
  I   I303      1.0  0.32045  0.12020  0.75138  1.0000
  I   I304      1.0  0.25269  0.35478  0.67654  1.0000
  I   I305      1.0  0.28611  0.56968  0.25459  1.0000
  I   I306      1.0  0.09573  0.74872  0.26334  1.0000
  I   I307      1.0  0.44777  0.66231  0.37326  1.0000
  I   I308      1.0  0.69862  0.67538  0.56151  1.0000
  I   I309      1.0  0.33773  0.56634  0.66049  1.0000
  I   I310      1.0  0.40463  0.71591  0.88621  1.0000
  I   I311      1.0  0.60530  0.84121  0.61682  1.0000
  I   I312      1.0  0.59857  0.86944  0.08042  1.0000
  I   I313      1.0  0.52605  0.38941  0.56218  1.0000
  I   I314      1.0  0.28298  0.41408  0.87616  1.0000
  I   I315      1.0  0.23900  0.31344  0.07893  1.0000
  I   I316      1.0  0.59700  0.52738  0.68827  1.0000
  I   I317      1.0  0.46769  0.47239  0.14779  1.0000
  I   I318      1.0  0.61064  0.47498  0.82973  1.0000
  I   I319      1.0  0.98207  0.44906  0.95713  1.0000
  I   I320      1.0  0.03826  0.55058  0.09347  1.0000
  I   I321      1.0  0.90712  0.41700  0.68880  1.0000
  I   I322      1.0  0.76068  0.98844  0.33142  1.0000
  I   I323      1.0  0.71866  0.72156  0.28486  1.0000
  I   I324      1.0  0.78213  0.73981  0.57647  1.0000
  I   I325      1.0  0.71295  0.09144  0.43886  1.0000
  I   I326      1.0  0.80700  0.20729  0.12480  1.0000
  I   I327      1.0  0.67563  0.23644  0.93911  1.0000
  I   I328      1.0  0.05156  0.25865  0.06716  1.0000
  I   I329      1.0  0.93161  0.26437  0.57539  1.0000
  I   I330      1.0  0.12575  0.87917  0.54077  1.0000
  I   I331      1.0  0.10765  0.50495  0.98841  1.0000
  I   I332      1.0  0.08872  0.28516  0.30644  1.0000
  I   I333      1.0  0.97806  0.59215  0.72539  1.0000
  I   I334      1.0  0.49107  0.20780  0.14413  1.0000
  I   I335      1.0  0.59479  0.97537  0.51789  1.0000
  I   I336      1.0  0.50518  0.12139  0.58134  1.0000
  I   I337      1.0  0.37854  0.89175  0.14977  1.0000
  I   I338      1.0  0.00484  0.11329  0.93391  1.0000
  I   I339      1.0  0.20351  0.08156  0.87579  1.0000
  I   I340      1.0  0.13677  0.14092  0.52113  1.0000
  I   I341      1.0  0.14471  0.36548  0.65001  1.0000
  I   I342      1.0  0.16820  0.21206  0.02305  1.0000
  I   I343      1.0  0.89061  0.86842  0.99650  1.0000
  I   I344      1.0  0.93326  0.06941  0.42214  1.0000
  I   I345      1.0  0.90528  0.90037  0.29929  1.0000
  I   I346      1.0  0.07922  0.89901  0.94240  1.0000
  I   I347      1.0  0.32123  0.73736  0.95804  1.0000
  I   I348      1.0  0.00102  0.81328  0.77551  1.0000
  I   I349      1.0  0.39182  0.10893  0.15403  1.0000
  I   I350      1.0  0.24932  0.27033  0.41746  1.0000
  I   I351      1.0  0.40076  0.11126  0.75738  1.0000
  I   I352      1.0  0.24215  0.46297  0.49148  1.0000
  I   I353      1.0  0.27192  0.51430  0.16021  1.0000
  I   I354      1.0  0.14564  0.74418  0.36178  1.0000
  I   I355      1.0  0.37414  0.73803  0.41168  1.0000
  I   I356      1.0  0.70458  0.64407  0.70986  1.0000
  I   I357      1.0  0.28576  0.65729  0.70365  1.0000
  I   I358      1.0  0.49286  0.67409  0.94016  1.0000
  I   I359      1.0  0.53802  0.86820  0.71282  1.0000
  I   I360      1.0  0.68482  0.85256  0.06685  1.0000
  I   I361      1.0  0.57268  0.34162  0.42691  1.0000
  I   I362      1.0  0.35402  0.42645  0.86985  1.0000
  I   I363      1.0  0.17368  0.40811  0.08592  1.0000
  I   I364      1.0  0.54219  0.59939  0.64963  1.0000
  I   I365      1.0  0.43083  0.42189  0.09752  1.0000
  I   I366      1.0  0.60988  0.55284  0.87176  1.0000
  I   I367      1.0  0.92931  0.42137  0.97113  1.0000
  I   I368      1.0  0.03008  0.51423  0.24245  1.0000
  I   I369      1.0  0.84736  0.39365  0.69382  1.0000
  I   I370      1.0  0.78395  0.01948  0.20845  1.0000
  I   I371      1.0  0.71335  0.65096  0.34936  1.0000
  I   I372      1.0  0.77133  0.68898  0.44064  1.0000
  I   I373      1.0  0.67051  0.17742  0.47751  1.0000
  I   I374      1.0  0.84930  0.12462  0.18246  1.0000
  I   I375      1.0  0.70114  0.24281  0.79731  1.0000
  I   I376      1.0  0.99433  0.32411  0.95550  1.0000
  I   I377      1.0  0.95942  0.19171  0.64924  1.0000
  I   I378      1.0  0.17962  0.90788  0.49284  1.0000
  I   I379      1.0  0.07041  0.59615  0.95327  1.0000
  I   I380      1.0  0.09958  0.31685  0.09842  1.0000
  I   I381      1.0  0.98684  0.63313  0.59317  1.0000
  I   I382      1.0  0.50751  0.12603  0.21109  1.0000
  I   I383      1.0  0.65500  0.91289  0.42466  1.0000
  I   I384      1.0  0.55302  0.06871  0.46518  1.0000
