data_image0
_chemical_formula_structural       Ti96I384
_chemical_formula_sum              "Ti96 I384"
_cell_length_a       78.2677
_cell_length_b       78.2073
_cell_length_c       38.2925
_cell_angle_alpha    88.7757
_cell_angle_beta     88.7757
_cell_angle_gamma    62.1586

_space_group_name_H-M_alt    "P 1"
_space_group_IT_number       1

loop_
  _space_group_symop_operation_xyz
  'x, y, z'

loop_
  _atom_site_type_symbol
  _atom_site_label
  _atom_site_symmetry_multiplicity
  _atom_site_fract_x
  _atom_site_fract_y
  _atom_site_fract_z
  _atom_site_occupancy
  Ti  Ti1       1.0  0.63093  0.75904  0.98593  1.0000
  Ti  Ti2       1.0  0.56867  0.85378  0.42814  1.0000
  Ti  Ti3       1.0  0.11006  0.08830  0.49763  1.0000
  Ti  Ti4       1.0  0.33254  0.94731  0.87099  1.0000
  Ti  Ti5       1.0  0.74366  0.05553  0.59258  1.0000
  Ti  Ti6       1.0  0.39197  0.84306  0.17872  1.0000
  Ti  Ti7       1.0  0.63334  0.00387  0.47469  1.0000
  Ti  Ti8       1.0  0.80976  0.27123  0.35345  1.0000
  Ti  Ti9       1.0  0.09267  0.11890  0.73222  1.0000
  Ti  Ti10      1.0  0.84606  0.47485  0.41792  1.0000
  Ti  Ti11      1.0  0.97718  0.92083  0.70821  1.0000
  Ti  Ti12      1.0  0.23775  0.88026  0.08681  1.0000
  Ti  Ti13      1.0  0.60993  0.73222  0.66580  1.0000
  Ti  Ti14      1.0  0.35832  0.89916  0.95248  1.0000
  Ti  Ti15      1.0  0.94843  0.12739  0.72379  1.0000
  Ti  Ti16      1.0  0.99873  0.21044  0.24798  1.0000
  Ti  Ti17      1.0  0.18666  0.21479  0.16495  1.0000
  Ti  Ti18      1.0  0.68153  0.27892  0.24235  1.0000
  Ti  Ti19      1.0  0.32942  0.03336  0.43654  1.0000
  Ti  Ti20      1.0  0.15257  0.41382  0.70816  1.0000
  Ti  Ti21      1.0  0.77380  0.27055  0.29722  1.0000
  Ti  Ti22      1.0  0.55261  0.43203  0.36320  1.0000
  Ti  Ti23      1.0  0.33639  0.32540  0.98357  1.0000
  Ti  Ti24      1.0  0.44070  0.39051  0.66990  1.0000
  Ti  Ti25      1.0  0.76062  0.20591  0.43928  1.0000
  Ti  Ti26      1.0  0.20439  0.76417  0.01554  1.0000
  Ti  Ti27      1.0  0.81729  0.78206  0.30328  1.0000
  Ti  Ti28      1.0  0.46193  0.90330  0.43752  1.0000
  Ti  Ti29      1.0  0.05188  0.88616  0.75640  1.0000
  Ti  Ti30      1.0  0.22140  0.65162  0.26709  1.0000
  Ti  Ti31      1.0  0.86158  0.03998  0.50452  1.0000
  Ti  Ti32      1.0  0.33341  0.98794  0.65969  1.0000
  Ti  Ti33      1.0  0.60579  0.24798  0.09639  1.0000
  Ti  Ti34      1.0  0.12806  0.40631  0.36552  1.0000
  Ti  Ti35      1.0  0.58274  0.10741  0.82762  1.0000
  Ti  Ti36      1.0  0.72425  0.05841  0.14499  1.0000
  Ti  Ti37      1.0  0.50942  0.00713  0.77668  1.0000
  Ti  Ti38      1.0  0.47304  0.56546  0.57073  1.0000
  Ti  Ti39      1.0  0.89861  0.47626  0.36418  1.0000
  Ti  Ti40      1.0  0.71823  0.62749  0.00151  1.0000
  Ti  Ti41      1.0  0.38617  0.55916  0.37520  1.0000
  Ti  Ti42      1.0  0.06384  0.53693  0.32742  1.0000
  Ti  Ti43      1.0  0.31524  0.76242  0.60430  1.0000
  Ti  Ti44      1.0  0.98721  0.28011  0.70835  1.0000
  Ti  Ti45      1.0  0.91062  0.34733  0.80411  1.0000
  Ti  Ti46      1.0  0.76287  0.56379  0.72066  1.0000
  Ti  Ti47      1.0  0.68935  0.26482  0.67865  1.0000
  Ti  Ti48      1.0  0.75800  0.79378  0.78270  1.0000
  Ti  Ti49      1.0  0.11470  0.83837  0.34438  1.0000
  Ti  Ti50      1.0  0.11702  0.42760  0.61932  1.0000
  Ti  Ti51      1.0  0.58013  0.86796  0.53035  1.0000
  Ti  Ti52      1.0  0.38104  0.68855  0.40053  1.0000
  Ti  Ti53      1.0  0.94651  0.80855  0.43100  1.0000
  Ti  Ti54      1.0  0.44211  0.81944  0.89713  1.0000
  Ti  Ti55      1.0  0.65864  0.57447  0.40514  1.0000
  Ti  Ti56      1.0  0.72825  0.15469  0.55831  1.0000
  Ti  Ti57      1.0  0.10524  0.14809  0.69616  1.0000
  Ti  Ti58      1.0  0.51976  0.21529  0.35473  1.0000
  Ti  Ti59      1.0  0.04598  0.15555  0.23961  1.0000
  Ti  Ti60      1.0  0.08188  0.30154  0.40404  1.0000
  Ti  Ti61      1.0  0.49537  0.22387  0.70462  1.0000
  Ti  Ti62      1.0  0.62467  0.67339  0.70508  1.0000
  Ti  Ti63      1.0  0.07312  0.77646  0.15787  1.0000
  Ti  Ti64      1.0  0.67175  0.28748  0.32349  1.0000
  Ti  Ti65      1.0  0.78450  0.62054  0.02686  1.0000
  Ti  Ti66      1.0  0.44173  0.90310  0.37571  1.0000
  Ti  Ti67      1.0  0.09761  0.63837  0.76688  1.0000
  Ti  Ti68      1.0  0.81243  0.55321  0.80651  1.0000
  Ti  Ti69      1.0  0.16210  0.82444  0.04338  1.0000
  Ti  Ti70      1.0  0.33854  0.21862  0.58295  1.0000
  Ti  Ti71      1.0  0.40281  0.76343  0.01101  1.0000
  Ti  Ti72      1.0  0.64835  0.24231  0.65645  1.0000
  Ti  Ti73      1.0  0.54385  0.29696  0.47406  1.0000
  Ti  Ti74      1.0  0.77351  0.21939  0.53669  1.0000
  Ti  Ti75      1.0  0.71155  0.74228  0.23896  1.0000
  Ti  Ti76      1.0  0.99258  0.02784  0.03357  1.0000
  Ti  Ti77      1.0  0.97510  0.13921  0.62557  1.0000
  Ti  Ti78      1.0  0.07758  0.89724  0.68399  1.0000
  Ti  Ti79      1.0  0.54256  0.97961  0.23763  1.0000
  Ti  Ti80      1.0  0.98822  0.59010  0.64463  1.0000
  Ti  Ti81      1.0  0.29340  0.37943  0.96001  1.0000
  Ti  Ti82      1.0  0.73393  0.43024  0.39809  1.0000
  Ti  Ti83      1.0  0.89474  0.33434  0.84940  1.0000
  Ti  Ti84      1.0  0.68411  0.09680  0.06803  1.0000
  Ti  Ti85      1.0  0.46969  0.01793  0.72422  1.0000
  Ti  Ti86      1.0  0.60040  0.99330  0.54094  1.0000
  Ti  Ti87      1.0  0.53213  0.84113  0.74148  1.0000
  Ti  Ti88      1.0  0.94472  0.12908  0.16481  1.0000
  Ti  Ti89      1.0  0.10749  0.24867  0.06977  1.0000
  Ti  Ti90      1.0  0.15737  0.18442  0.18838  1.0000
  Ti  Ti91      1.0  0.59326  0.43846  0.76198  1.0000
  Ti  Ti92      1.0  0.58814  0.58469  0.83705  1.0000
  Ti  Ti93      1.0  0.43766  0.71035  0.75874  1.0000
  Ti  Ti94      1.0  0.74594  0.82603  0.82644  1.0000
  Ti  Ti95      1.0  0.86131  0.98830  0.12107  1.0000
  Ti  Ti96      1.0  0.43942  0.32475  0.85441  1.0000
  I   I1        1.0  0.65346  0.27717  0.64276  1.0000
  I   I2        1.0  0.57738  0.90097  0.49472  1.0000
  I   I3        1.0  0.15184  0.82637  0.35865  1.0000
  I   I4        1.0  0.93593  0.80522  0.36421  1.0000
  I   I5        1.0  0.41707  0.85392  0.17628  1.0000
  I   I6        1.0  0.40588  0.82723  0.89218  1.0000
  I   I7        1.0  0.75097  0.28769  0.34575  1.0000
  I   I8        1.0  0.75575  0.15981  0.58363  1.0000
  I   I9        1.0  0.09415  0.09406  0.68989  1.0000
  I   I10       1.0  0.69975  0.62883  0.05676  1.0000
  I   I11       1.0  0.99774  0.90642  0.64963  1.0000
  I   I12       1.0  0.73911  0.03182  0.55340  1.0000
  I   I13       1.0  0.61528  0.68216  0.77307  1.0000
  I   I14       1.0  0.06670  0.76385  0.09831  1.0000
  I   I15       1.0  0.92684  0.12242  0.67896  1.0000
  I   I16       1.0  0.68662  0.64587  0.97207  1.0000
  I   I17       1.0  0.45016  0.86750  0.40633  1.0000
  I   I18       1.0  0.71010  0.28034  0.20303  1.0000
  I   I19       1.0  0.10879  0.75723  0.17320  1.0000
  I   I20       1.0  0.94652  0.95116  0.73322  1.0000
  I   I21       1.0  0.81477  0.26723  0.27329  1.0000
  I   I22       1.0  0.37056  0.30114  0.96890  1.0000
  I   I23       1.0  0.91682  0.12038  0.15004  1.0000
  I   I24       1.0  0.30474  0.24895  0.59596  1.0000
  I   I25       1.0  0.72807  0.23915  0.47285  1.0000
  I   I26       1.0  0.72151  0.70699  0.25717  1.0000
  I   I27       1.0  0.59593  0.12567  0.78626  1.0000
  I   I28       1.0  0.49024  0.87611  0.47658  1.0000
  I   I29       1.0  0.06139  0.88126  0.65009  1.0000
  I   I30       1.0  0.19924  0.67552  0.31473  1.0000
  I   I31       1.0  0.02452  0.58603  0.62108  1.0000
  I   I32       1.0  0.28576  0.41361  0.96818  1.0000
  I   I33       1.0  0.52937  0.01670  0.24534  1.0000
  I   I34       1.0  0.60286  0.07313  0.85343  1.0000
  I   I35       1.0  0.64579  0.12088  0.07229  1.0000
  I   I36       1.0  0.14846  0.40528  0.31494  1.0000
  I   I37       1.0  0.48988  0.04595  0.75118  1.0000
  I   I38       1.0  0.81405  0.50313  0.44097  1.0000
  I   I39       1.0  0.52610  0.97845  0.81542  1.0000
  I   I40       1.0  0.99386  0.26553  0.77318  1.0000
  I   I41       1.0  0.11028  0.39924  0.61034  1.0000
  I   I42       1.0  0.71274  0.59507  0.98057  1.0000
  I   I43       1.0  0.54488  0.20554  0.40511  1.0000
  I   I44       1.0  0.96635  0.32058  0.71713  1.0000
  I   I45       1.0  0.89740  0.34045  0.91199  1.0000
  I   I46       1.0  0.82745  0.99751  0.15317  1.0000
  I   I47       1.0  0.67359  0.28765  0.73417  1.0000
  I   I48       1.0  0.76292  0.78655  0.85399  1.0000
  I   I49       1.0  0.09134  0.87709  0.36747  1.0000
  I   I50       1.0  0.54845  0.88690  0.39802  1.0000
  I   I51       1.0  0.59215  0.84187  0.37703  1.0000
  I   I52       1.0  0.98166  0.62472  0.67858  1.0000
  I   I53       1.0  0.98639  0.79130  0.40822  1.0000
  I   I54       1.0  0.46419  0.78718  0.86324  1.0000
  I   I55       1.0  0.59306  0.00910  0.47095  1.0000
  I   I56       1.0  0.79391  0.28612  0.41321  1.0000
  I   I57       1.0  0.88527  0.00252  0.09468  1.0000
  I   I58       1.0  0.87713  0.49809  0.31098  1.0000
  I   I59       1.0  0.04993  0.18160  0.28144  1.0000
  I   I60       1.0  0.07978  0.27395  0.43915  1.0000
  I   I61       1.0  0.62117  0.73340  0.73436  1.0000
  I   I62       1.0  0.57917  0.73414  0.70814  1.0000
  I   I63       1.0  0.18596  0.40441  0.66349  1.0000
  I   I64       1.0  0.00762  0.17114  0.26381  1.0000
  I   I65       1.0  0.75730  0.60400  0.03274  1.0000
  I   I66       1.0  0.45212  0.89933  0.50576  1.0000
  I   I67       1.0  0.31148  0.01269  0.43256  1.0000
  I   I68       1.0  0.17297  0.37781  0.72388  1.0000
  I   I69       1.0  0.20253  0.79975  0.00440  1.0000
  I   I70       1.0  0.35516  0.23251  0.62572  1.0000
  I   I71       1.0  0.32693  0.29677  0.97456  1.0000
  I   I72       1.0  0.66388  0.20588  0.66607  1.0000
  I   I73       1.0  0.83003  0.80763  0.29421  1.0000
  I   I74       1.0  0.24083  0.74631  0.00330  1.0000
  I   I75       1.0  0.19525  0.74628  0.96479  1.0000
  I   I76       1.0  0.98196  0.10212  0.65543  1.0000
  I   I77       1.0  0.92268  0.15507  0.75553  1.0000
  I   I78       1.0  0.89166  0.00425  0.50098  1.0000
  I   I79       1.0  0.58001  0.24456  0.06365  1.0000
  I   I80       1.0  0.61329  0.74144  0.01982  1.0000
  I   I81       1.0  0.30564  0.99964  0.70166  1.0000
  I   I82       1.0  0.71927  0.47317  0.37993  1.0000
  I   I83       1.0  0.92434  0.30463  0.80792  1.0000
  I   I84       1.0  0.75164  0.06694  0.17895  1.0000
  I   I85       1.0  0.44118  0.05376  0.71729  1.0000
  I   I86       1.0  0.42987  0.93373  0.33544  1.0000
  I   I87       1.0  0.91545  0.49527  0.37715  1.0000
  I   I88       1.0  0.85669  0.46159  0.47937  1.0000
  I   I89       1.0  0.14836  0.39186  0.42144  1.0000
  I   I90       1.0  0.11524  0.41922  0.70099  1.0000
  I   I91       1.0  0.60442  0.41857  0.70235  1.0000
  I   I92       1.0  0.60015  0.54698  0.82365  1.0000
  I   I93       1.0  0.95293  0.27733  0.70711  1.0000
  I   I94       1.0  0.71881  0.81217  0.80786  1.0000
  I   I95       1.0  0.72811  0.58029  0.73389  1.0000
  I   I96       1.0  0.58852  0.40497  0.36036  1.0000
  I   I97       1.0  0.11606  0.11778  0.52927  1.0000
  I   I98       1.0  0.62925  0.78078  0.03910  1.0000
  I   I99       1.0  0.59793  0.84160  0.46928  1.0000
  I   I100      1.0  0.32931  0.93953  0.94232  1.0000
  I   I101      1.0  0.97806  0.11654  0.12387  1.0000
  I   I102      1.0  0.77325  0.05854  0.56056  1.0000
  I   I103      1.0  0.63163  0.96902  0.57417  1.0000
  I   I104      1.0  0.63055  0.59082  0.35138  1.0000
  I   I105      1.0  0.13125  0.12163  0.65895  1.0000
  I   I106      1.0  0.20623  0.88749  0.12066  1.0000
  I   I107      1.0  0.83256  0.45226  0.40095  1.0000
  I   I108      1.0  0.26410  0.84480  0.08091  1.0000
  I   I109      1.0  0.96715  0.10180  0.77115  1.0000
  I   I110      1.0  0.64391  0.72632  0.64233  1.0000
  I   I111      1.0  0.12766  0.45465  0.64135  1.0000
  I   I112      1.0  0.63770  0.30211  0.35477  1.0000
  I   I113      1.0  0.81441  0.59328  0.99694  1.0000
  I   I114      1.0  0.18042  0.24785  0.13467  1.0000
  I   I115      1.0  0.12240  0.60078  0.78316  1.0000
  I   I116      1.0  0.11192  0.64513  0.71213  1.0000
  I   I117      1.0  0.79197  0.57849  0.85374  1.0000
  I   I118      1.0  0.40205  0.34059  0.86568  1.0000
  I   I119      1.0  0.06345  0.63762  0.76595  1.0000
  I   I120      1.0  0.69948  0.28572  0.63203  1.0000
  I   I121      1.0  0.51852  0.28227  0.48109  1.0000
  I   I122      1.0  0.76717  0.19789  0.37307  1.0000
  I   I123      1.0  0.68780  0.74924  0.18759  1.0000
  I   I124      1.0  0.25266  0.65438  0.24565  1.0000
  I   I125      1.0  0.02849  0.00995  0.07357  1.0000
  I   I126      1.0  0.09367  0.91256  0.63934  1.0000
  I   I127      1.0  0.61766  0.22258  0.14824  1.0000
  I   I128      1.0  0.33798  0.90341  0.00998  1.0000
  I   I129      1.0  0.26900  0.39325  0.91240  1.0000
  I   I130      1.0  0.68182  0.08422  0.00254  1.0000
  I   I131      1.0  0.69223  0.45252  0.39487  1.0000
  I   I132      1.0  0.58150  0.13121  0.86984  1.0000
  I   I133      1.0  0.92674  0.45158  0.32691  1.0000
  I   I134      1.0  0.46550  0.59074  0.52328  1.0000
  I   I135      1.0  0.41787  0.89882  0.32502  1.0000
  I   I136      1.0  0.08360  0.55797  0.31543  1.0000
  I   I137      1.0  0.42021  0.67311  0.38510  1.0000
  I   I138      1.0  0.07239  0.26155  0.04350  1.0000
  I   I139      1.0  0.56116  0.45506  0.79901  1.0000
  I   I140      1.0  0.61707  0.59120  0.81990  1.0000
  I   I141      1.0  0.44877  0.73492  0.76813  1.0000
  I   I142      1.0  0.71817  0.84644  0.87121  1.0000
  I   I143      1.0  0.10517  0.07429  0.55611  1.0000
  I   I144      1.0  0.55346  0.45328  0.41142  1.0000
  I   I145      1.0  0.66289  0.72682  0.97283  1.0000
  I   I146      1.0  0.54481  0.87272  0.49984  1.0000
  I   I147      1.0  0.10699  0.06851  0.44376  1.0000
  I   I148      1.0  0.37892  0.69197  0.46680  1.0000
  I   I149      1.0  0.75996  0.04046  0.65078  1.0000
  I   I150      1.0  0.37798  0.84896  0.24490  1.0000
  I   I151      1.0  0.67555  0.59458  0.42897  1.0000
  I   I152      1.0  0.79144  0.30931  0.34314  1.0000
  I   I153      1.0  0.07130  0.15572  0.74883  1.0000
  I   I154      1.0  0.31077  0.79762  0.60860  1.0000
  I   I155      1.0  0.96976  0.89087  0.71438  1.0000
  I   I156      1.0  0.06276  0.33428  0.43298  1.0000
  I   I157      1.0  0.01276  0.11934  0.60991  1.0000
  I   I158      1.0  0.05217  0.76130  0.17585  1.0000
  I   I159      1.0  0.50372  0.19287  0.66973  1.0000
  I   I160      1.0  0.64439  0.29834  0.25877  1.0000
  I   I161      1.0  0.15130  0.22955  0.19484  1.0000
  I   I162      1.0  0.66751  0.26424  0.19129  1.0000
  I   I163      1.0  0.34994  0.04659  0.47124  1.0000
  I   I164      1.0  0.76970  0.53829  0.67492  1.0000
  I   I165      1.0  0.76133  0.24562  0.27516  1.0000
  I   I166      1.0  0.43695  0.35473  0.82192  1.0000
  I   I167      1.0  0.31619  0.34387  0.91802  1.0000
  I   I168      1.0  0.45069  0.36640  0.71807  1.0000
  I   I169      1.0  0.75039  0.21057  0.57343  1.0000
  I   I170      1.0  0.77973  0.22777  0.46164  1.0000
  I   I171      1.0  0.78926  0.78275  0.26723  1.0000
  I   I172      1.0  0.99221  0.99557  0.04678  1.0000
  I   I173      1.0  0.09229  0.86903  0.73874  1.0000
  I   I174      1.0  0.22553  0.62482  0.31233  1.0000
  I   I175      1.0  0.85971  0.07471  0.52407  1.0000
  I   I176      1.0  0.36410  0.96282  0.69905  1.0000
  I   I177      1.0  0.58052  0.95015  0.25340  1.0000
  I   I178      1.0  0.75763  0.42178  0.45955  1.0000
  I   I179      1.0  0.87426  0.34713  0.78551  1.0000
  I   I180      1.0  0.70274  0.09817  0.13696  1.0000
  I   I181      1.0  0.54196  0.00142  0.75253  1.0000
  I   I182      1.0  0.58623  0.97034  0.52580  1.0000
  I   I183      1.0  0.52377  0.86496  0.68677  1.0000
  I   I184      1.0  0.93156  0.15061  0.21912  1.0000
  I   I185      1.0  0.09483  0.26377  0.13109  1.0000
  I   I186      1.0  0.05823  0.50575  0.34630  1.0000
  I   I187      1.0  0.55556  0.60845  0.81015  1.0000
  I   I188      1.0  0.00736  0.29930  0.70558  1.0000
  I   I189      1.0  0.50171  0.86167  0.78319  1.0000
  I   I190      1.0  0.77977  0.54030  0.78534  1.0000
  I   I191      1.0  0.14285  0.18870  0.25513  1.0000
  I   I192      1.0  0.14949  0.07254  0.50026  1.0000
  I   I193      1.0  0.04724  0.92314  0.72683  1.0000
  I   I194      1.0  0.15496  0.39959  0.62232  1.0000
  I   I195      1.0  0.08253  0.12288  0.48017  1.0000
  I   I196      1.0  0.29506  0.95697  0.85704  1.0000
  I   I197      1.0  0.49379  0.20948  0.38930  1.0000
  I   I198      1.0  0.36527  0.86676  0.13220  1.0000
  I   I199      1.0  0.33204  0.95578  0.63722  1.0000
  I   I200      1.0  0.73514  0.13997  0.49338  1.0000
  I   I201      1.0  0.08225  0.10555  0.78801  1.0000
  I   I202      1.0  0.96533  0.22264  0.20924  1.0000
  I   I203      1.0  0.16154  0.79216  0.00835  1.0000
  I   I204      1.0  0.22376  0.89981  0.03405  1.0000
  I   I205      1.0  0.60912  0.65077  0.70234  1.0000
  I   I206      1.0  0.35450  0.93096  0.81553  1.0000
  I   I207      1.0  0.94635  0.13907  0.58906  1.0000
  I   I208      1.0  0.98002  0.23563  0.29657  1.0000
  I   I209      1.0  0.22617  0.20492  0.17277  1.0000
  I   I210      1.0  0.54130  0.96358  0.30307  1.0000
  I   I211      1.0  0.35842  0.22350  0.52565  1.0000
  I   I212      1.0  0.06021  0.81512  0.17741  1.0000
  I   I213      1.0  0.16306  0.85660  0.03896  1.0000
  I   I214      1.0  0.53922  0.40926  0.39237  1.0000
  I   I215      1.0  0.33385  0.36682  0.96984  1.0000
  I   I216      1.0  0.40196  0.73408  0.74907  1.0000
  I   I217      1.0  0.73696  0.18986  0.44789  1.0000
  I   I218      1.0  0.74164  0.74556  0.22503  1.0000
  I   I219      1.0  0.55344  0.30182  0.53639  1.0000
  I   I220      1.0  0.97503  0.14504  0.70042  1.0000
  I   I221      1.0  0.05881  0.88095  0.82082  1.0000
  I   I222      1.0  0.96580  0.05085  0.07593  1.0000
  I   I223      1.0  0.84890  0.04778  0.44080  1.0000
  I   I224      1.0  0.33981  0.01626  0.63246  1.0000
  I   I225      1.0  0.63923  0.24135  0.05289  1.0000
  I   I226      1.0  0.73432  0.40013  0.43158  1.0000
  I   I227      1.0  0.55508  0.10726  0.78794  1.0000
  I   I228      1.0  0.75098  0.02302  0.13490  1.0000
  I   I229      1.0  0.50024  0.24155  0.30838  1.0000
  I   I230      1.0  0.45436  0.54647  0.57225  1.0000
  I   I231      1.0  0.88420  0.44521  0.39490  1.0000
  I   I232      1.0  0.39466  0.88533  0.96872  1.0000
  I   I233      1.0  0.41828  0.55051  0.41095  1.0000
  I   I234      1.0  0.19005  0.19304  0.22676  1.0000
  I   I235      1.0  0.35215  0.75149  0.61568  1.0000
  I   I236      1.0  0.43620  0.70493  0.82781  1.0000
  I   I237      1.0  0.58918  0.46765  0.72346  1.0000
  I   I238      1.0  0.87641  0.95145  0.11337  1.0000
  I   I239      1.0  0.46924  0.29250  0.82517  1.0000
  I   I240      1.0  0.79105  0.79395  0.77259  1.0000
  I   I241      1.0  0.61402  0.78676  0.93850  1.0000
  I   I242      1.0  0.54411  0.83823  0.43459  1.0000
  I   I243      1.0  0.76330  0.57978  0.65839  1.0000
  I   I244      1.0  0.96940  0.09687  0.19662  1.0000
  I   I245      1.0  0.93561  0.84612  0.43227  1.0000
  I   I246      1.0  0.40937  0.80435  0.19491  1.0000
  I   I247      1.0  0.62669  0.03718  0.43764  1.0000
  I   I248      1.0  0.75686  0.29892  0.25838  1.0000
  I   I249      1.0  0.12191  0.17130  0.71722  1.0000
  I   I250      1.0  0.06897  0.12416  0.20135  1.0000
  I   I251      1.0  0.98487  0.95040  0.67791  1.0000
  I   I252      1.0  0.06417  0.29766  0.34657  1.0000
  I   I253      1.0  0.61910  0.68916  0.64023  1.0000
  I   I254      1.0  0.34410  0.90326  0.88517  1.0000
  I   I255      1.0  0.51485  0.23905  0.72256  1.0000
  I   I256      1.0  0.80026  0.60676  0.09052  1.0000
  I   I257      1.0  0.46984  0.01093  0.78962  1.0000
  I   I258      1.0  0.68339  0.30924  0.28167  1.0000
  I   I259      1.0  0.08804  0.67308  0.79350  1.0000
  I   I260      1.0  0.83177  0.52191  0.85268  1.0000
  I   I261      1.0  0.79804  0.24270  0.35465  1.0000
  I   I262      1.0  0.53157  0.45218  0.30836  1.0000
  I   I263      1.0  0.38498  0.75569  0.95794  1.0000
  I   I264      1.0  0.71283  0.05092  0.20150  1.0000
  I   I265      1.0  0.78354  0.18118  0.49054  1.0000
  I   I266      1.0  0.21142  0.74749  0.07626  1.0000
  I   I267      1.0  0.53167  0.33206  0.44545  1.0000
  I   I268      1.0  0.46740  0.92930  0.46308  1.0000
  I   I269      1.0  0.11075  0.86548  0.66092  1.0000
  I   I270      1.0  0.41735  0.92862  0.43017  1.0000
  I   I271      1.0  0.83495  0.04991  0.55916  1.0000
  I   I272      1.0  0.27537  0.37885  0.02225  1.0000
  I   I273      1.0  0.59640  0.27972  0.12200  1.0000
  I   I274      1.0  0.40446  0.56982  0.32833  1.0000
  I   I275      1.0  0.84750  0.75316  0.28558  1.0000
  I   I276      1.0  0.71757  0.09272  0.04666  1.0000
  I   I277      1.0  0.73771  0.42251  0.33626  1.0000
  I   I278      1.0  0.46686  0.57735  0.63807  1.0000
  I   I279      1.0  0.02302  0.24986  0.68976  1.0000
  I   I280      1.0  0.36063  0.71228  0.35330  1.0000
  I   I281      1.0  0.38063  0.53369  0.33639  1.0000
  I   I282      1.0  0.03992  0.55768  0.28014  1.0000
  I   I283      1.0  0.32134  0.72642  0.62956  1.0000
  I   I284      1.0  0.40329  0.41304  0.65929  1.0000
  I   I285      1.0  0.51398  0.82337  0.72015  1.0000
  I   I286      1.0  0.87503  0.99002  0.18127  1.0000
  I   I287      1.0  0.66027  0.23922  0.59238  1.0000
  I   I288      1.0  0.73676  0.83631  0.75445  1.0000
  I   I289      1.0  0.28369  0.77434  0.56522  1.0000
  I   I290      1.0  0.17472  0.19060  0.12892  1.0000
  I   I291      1.0  0.55997  0.87726  0.58843  1.0000
  I   I292      1.0  0.37469  0.66025  0.38630  1.0000
  I   I293      1.0  0.93975  0.78066  0.45747  1.0000
  I   I294      1.0  0.45153  0.80452  0.95780  1.0000
  I   I295      1.0  0.66536  0.99956  0.49199  1.0000
  I   I296      1.0  0.71270  0.14028  0.60265  1.0000
  I   I297      1.0  0.08015  0.14236  0.65703  1.0000
  I   I298      1.0  0.54348  0.18915  0.31608  1.0000
  I   I299      1.0  0.00667  0.23858  0.22890  1.0000
  I   I300      1.0  0.44061  0.67372  0.75880  1.0000
  I   I301      1.0  0.47925  0.21618  0.75666  1.0000
  I   I302      1.0  0.58742  0.76541  0.63674  1.0000
  I   I303      1.0  0.74481  0.64559  0.99294  1.0000
  I   I304      1.0  0.69369  0.24722  0.29032  1.0000
  I   I305      1.0  0.05610  0.12936  0.29517  1.0000
  I   I306      1.0  0.63921  0.97547  0.43451  1.0000
  I   I307      1.0  0.36184  0.00561  0.41389  1.0000
  I   I308      1.0  0.14435  0.43960  0.75863  1.0000
  I   I309      1.0  0.84742  0.25599  0.35930  1.0000
  I   I310      1.0  0.10043  0.81585  0.35670  1.0000
  I   I311      1.0  0.41911  0.73316  0.04992  1.0000
  I   I312      1.0  0.67060  0.24028  0.71177  1.0000
  I   I313      1.0  0.57484  0.26751  0.45040  1.0000
  I   I314      1.0  0.80802  0.20247  0.56708  1.0000
  I   I315      1.0  0.69046  0.76210  0.29096  1.0000
  I   I316      1.0  0.97924  0.02988  0.97033  1.0000
  I   I317      1.0  0.48094  0.89821  0.37172  1.0000
  I   I318      1.0  0.01109  0.90737  0.76263  1.0000
  I   I319      1.0  0.55826  0.98944  0.18130  1.0000
  I   I320      1.0  0.33298  0.97664  0.90050  1.0000
  I   I321      1.0  0.67848  0.53987  0.37886  1.0000
  I   I322      1.0  0.10786  0.44574  0.35752  1.0000
  I   I323      1.0  0.94076  0.34072  0.85087  1.0000
  I   I324      1.0  0.69834  0.06123  0.09496  1.0000
  I   I325      1.0  0.50781  0.00077  0.69958  1.0000
  I   I326      1.0  0.61573  0.02199  0.53131  1.0000
  I   I327      1.0  0.91076  0.35541  0.73104  1.0000
  I   I328      1.0  0.86922  0.49423  0.41208  1.0000
  I   I329      1.0  0.11034  0.28034  0.05363  1.0000
  I   I330      1.0  0.12429  0.19245  0.16106  1.0000
  I   I331      1.0  0.56121  0.82951  0.79113  1.0000
  I   I332      1.0  0.17251  0.14659  0.17168  1.0000
  I   I333      1.0  0.10059  0.40334  0.32201  1.0000
  I   I334      1.0  0.76670  0.84384  0.82953  1.0000
  I   I335      1.0  0.83742  0.56713  0.80832  1.0000
  I   I336      1.0  0.45177  0.33236  0.91217  1.0000
  I   I337      1.0  0.11728  0.84181  0.27899  1.0000
  I   I338      1.0  0.08472  0.45125  0.59072  1.0000
  I   I339      1.0  0.61456  0.85478  0.55983  1.0000
  I   I340      1.0  0.97100  0.59398  0.58800  1.0000
  I   I341      1.0  0.71362  0.08573  0.60632  1.0000
  I   I342      1.0  0.45741  0.84150  0.91465  1.0000
  I   I343      1.0  0.65334  0.55737  0.46714  1.0000
  I   I344      1.0  0.70239  0.18605  0.53738  1.0000
  I   I345      1.0  0.12772  0.12169  0.75523  1.0000
  I   I346      1.0  0.34167  0.18587  0.61137  1.0000
  I   I347      1.0  0.03378  0.18034  0.18767  1.0000
  I   I348      1.0  0.11229  0.30194  0.37367  1.0000
  I   I349      1.0  0.47179  0.24569  0.65495  1.0000
  I   I350      1.0  0.65871  0.64717  0.69363  1.0000
  I   I351      1.0  0.36394  0.86191  0.95418  1.0000
  I   I352      1.0  0.68503  0.27860  0.38466  1.0000
  I   I353      1.0  0.77901  0.65631  0.03784  1.0000
  I   I354      1.0  0.58400  0.01344  0.59867  1.0000
  I   I355      1.0  0.30908  0.05449  0.38318  1.0000
  I   I356      1.0  0.80740  0.54269  0.73288  1.0000
  I   I357      1.0  0.12638  0.84120  0.05313  1.0000
  I   I358      1.0  0.45885  0.40991  0.69710  1.0000
  I   I359      1.0  0.38217  0.79090  0.05354  1.0000
  I   I360      1.0  0.60808  0.25860  0.67513  1.0000
  I   I361      1.0  0.80872  0.76593  0.36062  1.0000
  I   I362      1.0  0.75677  0.25576  0.53908  1.0000
  I   I363      1.0  0.18234  0.80162  0.09254  1.0000
  I   I364      1.0  0.21783  0.63185  0.21638  1.0000
  I   I365      1.0  0.97124  0.17317  0.60236  1.0000
  I   I366      1.0  0.05300  0.85484  0.73813  1.0000
  I   I367      1.0  0.52686  0.96973  0.18954  1.0000
  I   I368      1.0  0.97141  0.58105  0.69420  1.0000
  I   I369      1.0  0.33329  0.32134  0.05079  1.0000
  I   I370      1.0  0.35611  0.57494  0.41567  1.0000
  I   I371      1.0  0.89186  0.38412  0.80993  1.0000
  I   I372      1.0  0.45327  0.37431  0.61335  1.0000
  I   I373      1.0  0.45974  0.99617  0.68432  1.0000
  I   I374      1.0  0.50953  0.54668  0.56670  1.0000
  I   I375      1.0  0.86887  0.32209  0.86311  1.0000
  I   I376      1.0  0.43647  0.76281  0.99735  1.0000
  I   I377      1.0  0.13792  0.22545  0.02550  1.0000
  I   I378      1.0  0.05594  0.54823  0.39255  1.0000
  I   I379      1.0  0.61974  0.41550  0.80341  1.0000
  I   I380      1.0  0.58436  0.58737  0.90604  1.0000
  I   I381      1.0  0.24522  0.90063  0.13071  1.0000
  I   I382      1.0  0.76202  0.76517  0.74342  1.0000
  I   I383      1.0  0.84594  0.99784  0.05354  1.0000
  I   I384      1.0  0.72243  0.23909  0.69925  1.0000
