data_image0
_chemical_formula_structural       Ti96I384
_chemical_formula_sum              "Ti96 I384"
_cell_length_a       56.7963
_cell_length_b       57.4113
_cell_length_c       27.7267
_cell_angle_alpha    88.7757
_cell_angle_beta     88.7757
_cell_angle_gamma    62.1586

_space_group_name_H-M_alt    "P 1"
_space_group_IT_number       1

loop_
  _space_group_symop_operation_xyz
  'x, y, z'

loop_
  _atom_site_type_symbol
  _atom_site_label
  _atom_site_symmetry_multiplicity
  _atom_site_fract_x
  _atom_site_fract_y
  _atom_site_fract_z
  _atom_site_occupancy
  Ti  Ti1       1.0  0.88656  0.69811  0.09176  1.0000
  Ti  Ti2       1.0  0.86466  0.92646  0.05855  1.0000
  Ti  Ti3       1.0  0.90960  0.71201  0.41810  1.0000
  Ti  Ti4       1.0  0.34540  0.12659  0.25607  1.0000
  Ti  Ti5       1.0  0.10215  0.00832  0.92568  1.0000
  Ti  Ti6       1.0  0.12406  0.09218  0.36607  1.0000
  Ti  Ti7       1.0  0.96051  0.77495  0.70763  1.0000
  Ti  Ti8       1.0  0.11924  0.95370  0.47034  1.0000
  Ti  Ti9       1.0  0.70334  0.13649  0.73684  1.0000
  Ti  Ti10      1.0  0.40782  0.95063  0.24527  1.0000
  Ti  Ti11      1.0  0.19994  0.59391  0.78053  1.0000
  Ti  Ti12      1.0  0.79647  0.80442  0.68292  1.0000
  Ti  Ti13      1.0  0.45971  0.25335  0.84503  1.0000
  Ti  Ti14      1.0  0.22208  0.32155  0.40645  1.0000
  Ti  Ti15      1.0  0.27463  0.04861  0.86372  1.0000
  Ti  Ti16      1.0  0.03598  0.85059  0.33962  1.0000
  Ti  Ti17      1.0  0.15919  0.64691  0.12511  1.0000
  Ti  Ti18      1.0  0.01817  0.34998  0.26096  1.0000
  Ti  Ti19      1.0  0.68752  0.66269  0.21963  1.0000
  Ti  Ti20      1.0  0.70990  0.81650  0.28290  1.0000
  Ti  Ti21      1.0  0.39322  0.36397  0.10173  1.0000
  Ti  Ti22      1.0  0.44487  0.98468  0.53871  1.0000
  Ti  Ti23      1.0  0.59033  0.78799  0.79786  1.0000
  Ti  Ti24      1.0  0.55827  0.96464  0.55301  1.0000
  Ti  Ti25      1.0  0.25509  0.16733  0.69946  1.0000
  Ti  Ti26      1.0  0.15308  0.41534  0.77274  1.0000
  Ti  Ti27      1.0  0.25879  0.56546  0.46173  1.0000
  Ti  Ti28      1.0  0.51634  0.74521  0.52931  1.0000
  Ti  Ti29      1.0  0.76769  0.42147  0.51131  1.0000
  Ti  Ti30      1.0  0.82653  0.48022  0.54326  1.0000
  Ti  Ti31      1.0  0.68827  0.51306  0.07844  1.0000
  Ti  Ti32      1.0  0.96019  0.07725  0.41289  1.0000
  Ti  Ti33      1.0  0.92452  0.24162  0.75854  1.0000
  Ti  Ti34      1.0  0.94354  0.76970  0.19582  1.0000
  Ti  Ti35      1.0  0.71401  0.65119  0.95586  1.0000
  Ti  Ti36      1.0  0.99438  0.61873  0.72792  1.0000
  Ti  Ti37      1.0  0.77253  0.26071  0.29142  1.0000
  Ti  Ti38      1.0  0.61342  0.28903  0.36988  1.0000
  Ti  Ti39      1.0  0.30332  0.87917  0.36378  1.0000
  Ti  Ti40      1.0  0.36896  0.74744  0.94728  1.0000
  Ti  Ti41      1.0  0.65775  0.39170  0.68494  1.0000
  Ti  Ti42      1.0  0.49056  0.73934  0.19078  1.0000
  Ti  Ti43      1.0  0.88225  0.09113  0.85630  1.0000
  Ti  Ti44      1.0  0.90866  0.53949  0.35119  1.0000
  Ti  Ti45      1.0  0.07612  0.46016  0.16815  1.0000
  Ti  Ti46      1.0  0.53527  0.18589  0.57340  1.0000
  Ti  Ti47      1.0  0.40456  0.29837  0.41896  1.0000
  Ti  Ti48      1.0  0.55140  0.39658  0.09903  1.0000
  Ti  Ti49      1.0  0.87984  0.65423  0.98358  1.0000
  Ti  Ti50      1.0  0.81282  0.96041  0.17781  1.0000
  Ti  Ti51      1.0  0.88787  0.88057  0.97526  1.0000
  Ti  Ti52      1.0  0.29532  0.14015  0.33829  1.0000
  Ti  Ti53      1.0  0.15793  0.03209  0.92968  1.0000
  Ti  Ti54      1.0  0.17484  0.04714  0.26634  1.0000
  Ti  Ti55      1.0  0.96422  0.76556  0.82770  1.0000
  Ti  Ti56      1.0  0.14745  0.90421  0.57421  1.0000
  Ti  Ti57      1.0  0.71434  0.08627  0.82043  1.0000
  Ti  Ti58      1.0  0.10571  0.93962  0.99838  1.0000
  Ti  Ti59      1.0  0.44943  0.91875  0.15706  1.0000
  Ti  Ti60      1.0  0.75907  0.86318  0.78574  1.0000
  Ti  Ti61      1.0  0.21930  0.12788  0.93161  1.0000
  Ti  Ti62      1.0  0.44192  0.20743  0.93114  1.0000
  Ti  Ti63      1.0  0.23218  0.37064  0.29079  1.0000
  Ti  Ti64      1.0  0.99166  0.33597  0.13767  1.0000
  Ti  Ti65      1.0  0.06120  0.87276  0.23305  1.0000
  Ti  Ti66      1.0  0.27023  0.75691  0.72984  1.0000
  Ti  Ti67      1.0  0.74522  0.69449  0.16279  1.0000
  Ti  Ti68      1.0  0.72902  0.86019  0.39977  1.0000
  Ti  Ti69      1.0  0.34678  0.43694  0.02498  1.0000
  Ti  Ti70      1.0  0.50914  0.96457  0.45333  1.0000
  Ti  Ti71      1.0  0.57048  0.82659  0.92046  1.0000
  Ti  Ti72      1.0  0.52457  0.79042  0.75101  1.0000
  Ti  Ti73      1.0  0.23739  0.52085  0.51980  1.0000
  Ti  Ti74      1.0  0.33589  0.12407  0.68339  1.0000
  Ti  Ti75      1.0  0.13330  0.35867  0.73484  1.0000
  Ti  Ti76      1.0  0.82947  0.54833  0.61271  1.0000
  Ti  Ti77      1.0  0.51510  0.67597  0.43034  1.0000
  Ti  Ti78      1.0  0.73993  0.49505  0.53669  1.0000
  Ti  Ti79      1.0  0.98247  0.21848  0.72001  1.0000
  Ti  Ti80      1.0  0.66661  0.45863  0.10048  1.0000
  Ti  Ti81      1.0  0.94876  0.03228  0.28249  1.0000
  Ti  Ti82      1.0  0.01035  0.73961  0.23338  1.0000
  Ti  Ti83      1.0  0.69350  0.61677  0.90275  1.0000
  Ti  Ti84      1.0  0.97236  0.59529  0.65135  1.0000
  Ti  Ti85      1.0  0.73402  0.28972  0.12889  1.0000
  Ti  Ti86      1.0  0.55573  0.31041  0.37174  1.0000
  Ti  Ti87      1.0  0.27464  0.94575  0.40651  1.0000
  Ti  Ti88      1.0  0.33839  0.82465  0.94203  1.0000
  Ti  Ti89      1.0  0.63294  0.40059  0.78817  1.0000
  Ti  Ti90      1.0  0.52079  0.72970  0.02930  1.0000
  Ti  Ti91      1.0  0.03932  0.46432  0.03614  1.0000
  Ti  Ti92      1.0  0.81743  0.17689  0.56939  1.0000
  Ti  Ti93      1.0  0.98879  0.51565  0.34210  1.0000
  Ti  Ti94      1.0  0.54321  0.38252  0.99981  1.0000
  Ti  Ti95      1.0  0.55113  0.12402  0.65589  1.0000
  Ti  Ti96      1.0  0.41266  0.24215  0.49130  1.0000
  I   I1        1.0  0.82988  0.95965  0.26132  1.0000
  I   I2        1.0  0.86466  0.93524  0.96797  1.0000
  I   I3        1.0  0.89384  0.67488  0.18544  1.0000
  I   I4        1.0  0.13404  0.01008  0.86147  1.0000
  I   I5        1.0  0.13726  0.10801  0.44224  1.0000
  I   I6        1.0  0.17416  0.00247  0.26542  1.0000
  I   I7        1.0  0.15989  0.86523  0.51818  1.0000
  I   I8        1.0  0.11651  0.90300  0.64678  1.0000
  I   I9        1.0  0.70895  0.12558  0.64523  1.0000
  I   I10       1.0  0.42357  0.95511  0.33416  1.0000
  I   I11       1.0  0.17930  0.56506  0.81208  1.0000
  I   I12       1.0  0.13167  0.95626  0.92271  1.0000
  I   I13       1.0  0.45092  0.25439  0.94791  1.0000
  I   I14       1.0  0.27454  0.37667  0.30205  1.0000
  I   I15       1.0  0.28959  0.00246  0.90965  1.0000
  I   I16       1.0  0.04697  0.82765  0.23914  1.0000
  I   I17       1.0  0.23313  0.80480  0.72617  1.0000
  I   I18       1.0  0.03534  0.29768  0.10443  1.0000
  I   I19       1.0  0.73799  0.83662  0.48283  1.0000
  I   I20       1.0  0.43176  0.34967  0.16621  1.0000
  I   I21       1.0  0.34638  0.45988  0.10323  1.0000
  I   I22       1.0  0.58174  0.85968  0.97461  1.0000
  I   I23       1.0  0.61881  0.80007  0.73259  1.0000
  I   I24       1.0  0.53427  0.99590  0.45746  1.0000
  I   I25       1.0  0.30312  0.15777  0.74866  1.0000
  I   I26       1.0  0.12359  0.38685  0.82815  1.0000
  I   I27       1.0  0.28395  0.58449  0.50973  1.0000
  I   I28       1.0  0.56106  0.73199  0.56558  1.0000
  I   I29       1.0  0.72629  0.45565  0.56402  1.0000
  I   I30       1.0  0.81990  0.51148  0.64602  1.0000
  I   I31       1.0  0.62925  0.45165  0.07052  1.0000
  I   I32       1.0  0.91345  0.02474  0.32574  1.0000
  I   I33       1.0  0.95184  0.19002  0.74040  1.0000
  I   I34       1.0  0.68934  0.70058  0.95597  1.0000
  I   I35       1.0  0.97473  0.62313  0.57624  1.0000
  I   I36       1.0  0.05386  0.72234  0.18257  1.0000
  I   I37       1.0  0.73290  0.26104  0.23158  1.0000
  I   I38       1.0  0.32551  0.92368  0.43346  1.0000
  I   I39       1.0  0.73073  0.32080  0.06297  1.0000
  I   I40       1.0  0.61676  0.44739  0.83081  1.0000
  I   I41       1.0  0.53764  0.67799  0.99316  1.0000
  I   I42       1.0  0.39381  0.78549  0.94839  1.0000
  I   I43       1.0  0.86691  0.11988  0.77655  1.0000
  I   I44       1.0  0.92297  0.56796  0.27893  1.0000
  I   I45       1.0  0.10030  0.48361  0.20720  1.0000
  I   I46       1.0  0.52622  0.23709  0.59560  1.0000
  I   I47       1.0  0.35076  0.32641  0.40710  1.0000
  I   I48       1.0  0.49941  0.43014  0.06640  1.0000
  I   I49       1.0  0.92260  0.71223  0.08362  1.0000
  I   I50       1.0  0.80932  0.95893  0.07463  1.0000
  I   I51       1.0  0.92445  0.87526  0.91699  1.0000
  I   I52       1.0  0.28753  0.10194  0.31495  1.0000
  I   I53       1.0  0.09256  0.05246  0.97887  1.0000
  I   I54       1.0  0.12117  0.07609  0.23898  1.0000
  I   I55       1.0  0.92810  0.76509  0.65659  1.0000
  I   I56       1.0  0.09214  0.93265  0.53157  1.0000
  I   I57       1.0  0.74519  0.08071  0.73836  1.0000
  I   I58       1.0  0.39804  0.95395  0.14209  1.0000
  I   I59       1.0  0.38098  0.00281  0.24437  1.0000
  I   I60       1.0  0.74788  0.82673  0.74301  1.0000
  I   I61       1.0  0.45589  0.17894  0.01050  1.0000
  I   I62       1.0  0.42415  0.18623  0.86813  1.0000
  I   I63       1.0  0.18007  0.31794  0.43900  1.0000
  I   I64       1.0  0.99598  0.86015  0.40279  1.0000
  I   I65       1.0  0.05920  0.91808  0.26165  1.0000
  I   I66       1.0  0.26678  0.72587  0.79621  1.0000
  I   I67       1.0  0.78243  0.70487  0.19749  1.0000
  I   I68       1.0  0.75420  0.79818  0.22723  1.0000
  I   I69       1.0  0.40840  0.39254  0.05125  1.0000
  I   I70       1.0  0.48264  0.93621  0.48321  1.0000
  I   I71       1.0  0.59622  0.83388  0.84354  1.0000
  I   I72       1.0  0.47480  0.82017  0.78049  1.0000
  I   I73       1.0  0.29283  0.55391  0.38053  1.0000
  I   I74       1.0  0.16774  0.44795  0.73188  1.0000
  I   I75       1.0  0.16700  0.31298  0.75953  1.0000
  I   I76       1.0  0.52367  0.72051  0.42623  1.0000
  I   I77       1.0  0.56302  0.64626  0.38665  1.0000
  I   I78       1.0  0.77277  0.52147  0.52718  1.0000
  I   I79       1.0  0.02973  0.18582  0.74735  1.0000
  I   I80       1.0  0.69610  0.43896  0.02287  1.0000
  I   I81       1.0  0.92857  0.12190  0.45977  1.0000
  I   I82       1.0  0.97958  0.79125  0.21630  1.0000
  I   I83       1.0  0.72192  0.65732  0.85438  1.0000
  I   I84       1.0  0.99658  0.55093  0.60234  1.0000
  I   I85       1.0  0.73541  0.25018  0.07801  1.0000
  I   I86       1.0  0.55273  0.34969  0.42207  1.0000
  I   I87       1.0  0.35648  0.84624  0.38127  1.0000
  I   I88       1.0  0.38270  0.72390  0.85980  1.0000
  I   I89       1.0  0.65107  0.34620  0.72375  1.0000
  I   I90       1.0  0.46267  0.78053  0.23905  1.0000
  I   I91       1.0  0.04338  0.48886  0.95954  1.0000
  I   I92       1.0  0.83529  0.16072  0.65518  1.0000
  I   I93       1.0  0.00373  0.51105  0.24983  1.0000
  I   I94       1.0  0.52068  0.41018  0.92826  1.0000
  I   I95       1.0  0.52127  0.14736  0.73042  1.0000
  I   I96       1.0  0.39759  0.29336  0.52883  1.0000
  I   I97       1.0  0.94174  0.70208  0.48751  1.0000
  I   I98       1.0  0.84488  0.74057  0.11196  1.0000
  I   I99       1.0  0.85532  0.87719  0.05595  1.0000
  I   I100      1.0  0.35479  0.08690  0.33621  1.0000
  I   I101      1.0  0.29760  0.16580  0.22356  1.0000
  I   I102      1.0  0.15441  0.99798  0.99098  1.0000
  I   I103      1.0  0.99977  0.73981  0.89170  1.0000
  I   I104      1.0  0.95653  0.81987  0.66201  1.0000
  I   I105      1.0  0.67926  0.08866  0.88840  1.0000
  I   I106      1.0  0.78726  0.76317  0.64886  1.0000
  I   I107      1.0  0.46533  0.88247  0.23405  1.0000
  I   I108      1.0  0.71259  0.89236  0.83006  1.0000
  I   I109      1.0  0.17229  0.14272  0.89913  1.0000
  I   I110      1.0  0.48361  0.20051  0.86876  1.0000
  I   I111      1.0  0.21524  0.37674  0.38846  1.0000
  I   I112      1.0  0.06375  0.30874  0.27712  1.0000
  I   I113      1.0  0.05291  0.88408  0.14115  1.0000
  I   I114      1.0  0.12025  0.64097  0.16653  1.0000
  I   I115      1.0  0.70814  0.67321  0.12630  1.0000
  I   I116      1.0  0.78314  0.64734  0.12964  1.0000
  I   I117      1.0  0.77798  0.85315  0.39749  1.0000
  I   I118      1.0  0.51436  0.95341  0.36404  1.0000
  I   I119      1.0  0.39633  0.00503  0.48699  1.0000
  I   I120      1.0  0.53995  0.82746  0.75219  1.0000
  I   I121      1.0  0.21825  0.60732  0.42827  1.0000
  I   I122      1.0  0.37133  0.13758  0.71406  1.0000
  I   I123      1.0  0.14927  0.43762  0.85589  1.0000
  I   I124      1.0  0.85203  0.51759  0.52957  1.0000
  I   I125      1.0  0.51388  0.69143  0.53191  1.0000
  I   I126      1.0  0.75306  0.46632  0.44684  1.0000
  I   I127      1.0  0.93378  0.27928  0.72366  1.0000
  I   I128      1.0  0.72329  0.51571  0.01484  1.0000
  I   I129      1.0  0.98658  0.03008  0.33429  1.0000
  I   I130      1.0  0.00942  0.65744  0.69921  1.0000
  I   I131      1.0  0.91350  0.74425  0.19262  1.0000
  I   I132      1.0  0.66956  0.58620  0.91208  1.0000
  I   I133      1.0  0.25135  0.99762  0.38013  1.0000
  I   I134      1.0  0.58866  0.31536  0.28963  1.0000
  I   I135      1.0  0.65804  0.25050  0.32639  1.0000
  I   I136      1.0  0.53168  0.71662  0.24748  1.0000
  I   I137      1.0  0.33753  0.79458  0.86817  1.0000
  I   I138      1.0  0.68574  0.40382  0.74922  1.0000
  I   I139      1.0  0.06305  0.49008  0.08212  1.0000
  I   I140      1.0  0.76756  0.18676  0.59031  1.0000
  I   I141      1.0  0.00763  0.54589  0.35687  1.0000
  I   I142      1.0  0.59484  0.34912  0.11067  1.0000
  I   I143      1.0  0.56248  0.12774  0.54833  1.0000
  I   I144      1.0  0.39507  0.22968  0.56793  1.0000
  I   I145      1.0  0.92485  0.64673  0.05620  1.0000
  I   I146      1.0  0.86311  0.97088  0.08737  1.0000
  I   I147      1.0  0.89758  0.75966  0.38824  1.0000
  I   I148      1.0  0.24738  0.18582  0.33942  1.0000
  I   I149      1.0  0.13348  0.06778  0.86218  1.0000
  I   I150      1.0  0.08421  0.08875  0.39968  1.0000
  I   I151      1.0  0.91917  0.76337  0.86050  1.0000
  I   I152      1.0  0.13154  0.99163  0.42899  1.0000
  I   I153      1.0  0.71740  0.13276  0.83283  1.0000
  I   I154      1.0  0.12525  0.89635  0.94415  1.0000
  I   I155      1.0  0.17727  0.62696  0.70556  1.0000
  I   I156      1.0  0.81284  0.80872  0.59980  1.0000
  I   I157      1.0  0.20461  0.13866  0.02694  1.0000
  I   I158      1.0  0.19441  0.41798  0.25939  1.0000
  I   I159      1.0  0.24435  0.10588  0.84455  1.0000
  I   I160      1.0  0.02640  0.35741  0.16237  1.0000
  I   I161      1.0  0.17699  0.64310  0.03241  1.0000
  I   I162      1.0  0.02640  0.38362  0.30680  1.0000
  I   I163      1.0  0.69748  0.63374  0.29914  1.0000
  I   I164      1.0  0.66765  0.83698  0.23311  1.0000
  I   I165      1.0  0.41411  0.32105  0.05154  1.0000
  I   I166      1.0  0.45631  0.00009  0.44558  1.0000
  I   I167      1.0  0.63206  0.76095  0.85146  1.0000
  I   I168      1.0  0.56799  0.94423  0.64164  1.0000
  I   I169      1.0  0.25918  0.19303  0.62551  1.0000
  I   I170      1.0  0.29394  0.11244  0.68007  1.0000
  I   I171      1.0  0.24830  0.52591  0.42453  1.0000
  I   I172      1.0  0.86757  0.56312  0.61075  1.0000
  I   I173      1.0  0.80370  0.38065  0.57226  1.0000
  I   I174      1.0  0.79847  0.45345  0.56721  1.0000
  I   I175      1.0  0.64500  0.55726  0.04393  1.0000
  I   I176      1.0  0.93528  0.05314  0.19695  1.0000
  I   I177      1.0  0.88223  0.25315  0.71262  1.0000
  I   I178      1.0  0.97962  0.75019  0.12543  1.0000
  I   I179      1.0  0.68143  0.63593  0.01177  1.0000
  I   I180      1.0  0.94270  0.65575  0.73269  1.0000
  I   I181      1.0  0.76429  0.29856  0.19160  1.0000
  I   I182      1.0  0.53229  0.28781  0.41661  1.0000
  I   I183      1.0  0.29291  0.85408  0.30171  1.0000
  I   I184      1.0  0.40638  0.71001  0.99101  1.0000
  I   I185      1.0  0.69551  0.35146  0.64694  1.0000
  I   I186      1.0  0.56598  0.72650  0.02070  1.0000
  I   I187      1.0  0.81195  0.22240  0.53740  1.0000
  I   I188      1.0  0.87987  0.51585  0.33733  1.0000
  I   I189      1.0  0.07580  0.43663  0.24890  1.0000
  I   I190      1.0  0.49198  0.19110  0.60735  1.0000
  I   I191      1.0  0.40787  0.27187  0.34036  1.0000
  I   I192      1.0  0.53471  0.37005  0.15072  1.0000
  I   I193      1.0  0.85065  0.65759  0.91042  1.0000
  I   I194      1.0  0.86262  0.91650  0.17006  1.0000
  I   I195      1.0  0.93591  0.68928  0.34439  1.0000
  I   I196      1.0  0.38452  0.12113  0.20549  1.0000
  I   I197      1.0  0.06517  0.98887  0.98927  1.0000
  I   I198      1.0  0.16709  0.09393  0.30984  1.0000
  I   I199      1.0  0.00639  0.75198  0.65434  1.0000
  I   I200      1.0  0.19605  0.88401  0.60277  1.0000
  I   I201      1.0  0.70746  0.17990  0.73072  1.0000
  I   I202      1.0  0.45087  0.96114  0.22154  1.0000
  I   I203      1.0  0.20160  0.61385  0.86155  1.0000
  I   I204      1.0  0.80054  0.84692  0.71622  1.0000
  I   I205      1.0  0.50143  0.25791  0.83919  1.0000
  I   I206      1.0  0.20052  0.33740  0.30425  1.0000
  I   I207      1.0  0.26359  0.08063  0.95013  1.0000
  I   I208      1.0  0.06834  0.80370  0.37119  1.0000
  I   I209      1.0  0.14958  0.69175  0.15970  1.0000
  I   I210      1.0  0.98475  0.35728  0.34543  1.0000
  I   I211      1.0  0.72696  0.68096  0.24808  1.0000
  I   I212      1.0  0.71372  0.77256  0.30724  1.0000
  I   I213      1.0  0.29288  0.46951  0.02583  1.0000
  I   I214      1.0  0.42654  0.03619  0.56369  1.0000
  I   I215      1.0  0.55260  0.79061  0.87206  1.0000
  I   I216      1.0  0.60995  0.94922  0.52641  1.0000
  I   I217      1.0  0.21697  0.15830  0.66375  1.0000
  I   I218      1.0  0.19848  0.36796  0.77608  1.0000
  I   I219      1.0  0.21100  0.57344  0.56276  1.0000
  I   I220      1.0  0.47770  0.75622  0.60070  1.0000
  I   I221      1.0  0.73845  0.40609  0.46049  1.0000
  I   I222      1.0  0.83513  0.47145  0.45000  1.0000
  I   I223      1.0  0.69815  0.53699  0.14861  1.0000
  I   I224      1.0  0.99033  0.09347  0.36679  1.0000
  I   I225      1.0  0.90528  0.25762  0.84437  1.0000
  I   I226      1.0  0.94589  0.76763  0.28988  1.0000
  I   I227      1.0  0.76001  0.64310  0.98245  1.0000
  I   I228      1.0  0.03019  0.58817  0.66034  1.0000
  I   I229      1.0  0.81637  0.25921  0.32005  1.0000
  I   I230      1.0  0.60728  0.26844  0.45099  1.0000
  I   I231      1.0  0.24792  0.95870  0.48768  1.0000
  I   I232      1.0  0.33051  0.73078  0.93537  1.0000
  I   I233      1.0  0.60195  0.41949  0.70629  1.0000
  I   I234      1.0  0.47951  0.75785  0.98074  1.0000
  I   I235      1.0  0.93295  0.07789  0.86257  1.0000
  I   I236      1.0  0.94975  0.53768  0.41880  1.0000
  I   I237      1.0  0.03146  0.45199  0.14541  1.0000
  I   I238      1.0  0.51531  0.20555  0.49190  1.0000
  I   I239      1.0  0.42346  0.32977  0.40348  1.0000
  I   I240      1.0  0.55318  0.43263  0.14957  1.0000
  I   I241      1.0  0.86074  0.70738  0.99382  1.0000
  I   I242      1.0  0.91721  0.90069  0.05624  1.0000
  I   I243      1.0  0.87932  0.68830  0.44515  1.0000
  I   I244      1.0  0.34485  0.08527  0.21308  1.0000
  I   I245      1.0  0.15446  0.06728  0.99359  1.0000
  I   I246      1.0  0.08954  0.13320  0.32098  1.0000
  I   I247      1.0  0.99767  0.78335  0.79744  1.0000
  I   I248      1.0  0.07301  0.99480  0.45301  1.0000
  I   I249      1.0  0.64877  0.14894  0.73426  1.0000
  I   I250      1.0  0.37291  0.93234  0.25560  1.0000
  I   I251      1.0  0.24870  0.55812  0.77413  1.0000
  I   I252      1.0  0.83142  0.77274  0.74129  1.0000
  I   I253      1.0  0.41579  0.30043  0.83010  1.0000
  I   I254      1.0  0.25963  0.28320  0.36713  1.0000
  I   I255      1.0  0.22020  0.17288  0.90791  1.0000
  I   I256      1.0  0.05276  0.87610  0.38530  1.0000
  I   I257      1.0  0.20293  0.61958  0.16899  1.0000
  I   I258      1.0  0.95899  0.31421  0.12751  1.0000
  I   I259      1.0  0.65702  0.64033  0.19517  1.0000
  I   I260      1.0  0.69094  0.84187  0.37275  1.0000
  I   I261      1.0  0.36449  0.36893  0.17687  1.0000
  I   I262      1.0  0.44025  0.96258  0.61969  1.0000
  I   I263      1.0  0.58272  0.74499  0.75545  1.0000
  I   I264      1.0  0.55899  0.00769  0.60073  1.0000
  I   I265      1.0  0.22474  0.19972  0.76720  1.0000
  I   I266      1.0  0.12083  0.41523  0.70893  1.0000
  I   I267      1.0  0.28991  0.51463  0.53086  1.0000
  I   I268      1.0  0.49197  0.69370  0.34831  1.0000
  I   I269      1.0  0.81098  0.39604  0.46452  1.0000
  I   I270      1.0  0.87470  0.44734  0.57224  1.0000
  I   I271      1.0  0.71980  0.46734  0.12815  1.0000
  I   I272      1.0  0.98798  0.04273  0.47666  1.0000
  I   I273      1.0  0.97621  0.23715  0.81574  1.0000
  I   I274      1.0  0.90519  0.81592  0.17827  1.0000
  I   I275      1.0  0.74364  0.59497  0.93551  1.0000
  I   I276      1.0  0.01924  0.60852  0.81057  1.0000
  I   I277      1.0  0.74484  0.30737  0.34177  1.0000
  I   I278      1.0  0.62539  0.31850  0.41947  1.0000
  I   I279      1.0  0.24906  0.92186  0.36298  1.0000
  I   I280      1.0  0.28748  0.85024  0.94288  1.0000
  I   I281      1.0  0.67149  0.37176  0.84961  1.0000
  I   I282      1.0  0.45674  0.71947  0.18290  1.0000
  I   I283      1.0  0.85678  0.06645  0.84911  1.0000
  I   I284      1.0  0.87406  0.57274  0.41053  1.0000
  I   I285      1.0  0.11302  0.42528  0.11688  1.0000
  I   I286      1.0  0.57018  0.16101  0.64859  1.0000
  I   I287      1.0  0.45250  0.25662  0.44982  1.0000
  I   I288      1.0  0.56868  0.41395  0.02318  1.0000
  I   I289      1.0  0.92388  0.62621  0.93614  1.0000
  I   I290      1.0  0.77475  0.00512  0.16309  1.0000
  I   I291      1.0  0.84812  0.88365  0.92120  1.0000
  I   I292      1.0  0.33349  0.15789  0.33910  1.0000
  I   I293      1.0  0.20098  0.00933  0.87954  1.0000
  I   I294      1.0  0.21271  0.03835  0.20236  1.0000
  I   I295      1.0  0.97086  0.72861  0.76047  1.0000
  I   I296      1.0  0.15487  0.94607  0.53864  1.0000
  I   I297      1.0  0.75053  0.04794  0.87007  1.0000
  I   I298      1.0  0.06899  0.92735  0.04813  1.0000
  I   I299      1.0  0.49199  0.90941  0.11048  1.0000
  I   I300      1.0  0.79011  0.83031  0.85644  1.0000
  I   I301      1.0  0.26301  0.04961  0.77328  1.0000
  I   I302      1.0  0.45819  0.23374  0.75900  1.0000
  I   I303      1.0  0.25182  0.32247  0.47320  1.0000
  I   I304      1.0  0.97649  0.36952  0.06265  1.0000
  I   I305      1.0  0.10347  0.83929  0.27853  1.0000
  I   I306      1.0  0.31443  0.75655  0.74811  1.0000
  I   I307      1.0  0.64652  0.70613  0.23295  1.0000
  I   I308      1.0  0.72803  0.85645  0.29897  1.0000
  I   I309      1.0  0.36554  0.45286  0.95489  1.0000
  I   I310      1.0  0.50271  0.97355  0.55762  1.0000
  I   I311      1.0  0.51978  0.85711  0.94677  1.0000
  I   I312      1.0  0.51383  0.75293  0.79339  1.0000
  I   I313      1.0  0.23533  0.48779  0.58400  1.0000
  I   I314      1.0  0.34299  0.12795  0.59528  1.0000
  I   I315      1.0  0.13686  0.35840  0.63707  1.0000
  I   I316      1.0  0.79997  0.57902  0.68807  1.0000
  I   I317      1.0  0.51196  0.63435  0.46157  1.0000
  I   I318      1.0  0.72552  0.51737  0.62554  1.0000
  I   I319      1.0  0.95362  0.22293  0.64040  1.0000
  I   I320      1.0  0.63612  0.50772  0.11261  1.0000
  I   I321      1.0  0.92523  0.08526  0.33944  1.0000
  I   I322      1.0  0.02042  0.73784  0.32382  1.0000
  I   I323      1.0  0.71449  0.59174  0.82343  1.0000
  I   I324      1.0  0.92294  0.60978  0.65694  1.0000
  I   I325      1.0  0.68317  0.31578  0.14719  1.0000
  I   I326      1.0  0.58817  0.25884  0.32714  1.0000
  I   I327      1.0  0.28334  0.89017  0.46043  1.0000
  I   I328      1.0  0.35768  0.85138  0.88815  1.0000
  I   I329      1.0  0.65727  0.42974  0.63000  1.0000
  I   I330      1.0  0.49602  0.76605  0.10462  1.0000
  I   I331      1.0  0.99254  0.47319  0.01239  1.0000
  I   I332      1.0  0.86452  0.12408  0.92763  1.0000
  I   I333      1.0  0.94921  0.50003  0.30858  1.0000
  I   I334      1.0  0.59266  0.34079  0.97616  1.0000
  I   I335      1.0  0.59040  0.08851  0.70540  1.0000
  I   I336      1.0  0.37309  0.24061  0.43952  1.0000
  I   I337      1.0  0.86913  0.63470  0.06109  1.0000
  I   I338      1.0  0.78545  0.93284  0.18815  1.0000
  I   I339      1.0  0.91916  0.82357  0.97548  1.0000
  I   I340      1.0  0.29694  0.13504  0.43126  1.0000
  I   I341      1.0  0.06143  0.02231  0.86984  1.0000
  I   I342      1.0  0.16333  0.03328  0.36755  1.0000
  I   I343      1.0  0.92555  0.81822  0.78705  1.0000
  I   I344      1.0  0.12613  0.93276  0.38155  1.0000
  I   I345      1.0  0.69173  0.06572  0.77407  1.0000
  I   I346      1.0  0.13960  0.92033  0.06868  1.0000
  I   I347      1.0  0.43542  0.88985  0.10461  1.0000
  I   I348      1.0  0.77449  0.89949  0.80546  1.0000
  I   I349      1.0  0.32700  0.03273  0.84592  1.0000
  I   I350      1.0  0.39094  0.23822  0.96008  1.0000
  I   I351      1.0  0.24610  0.34643  0.20491  1.0000
  I   I352      1.0  0.96803  0.35154  0.22322  1.0000
  I   I353      1.0  0.00837  0.89536  0.28126  1.0000
  I   I354      1.0  0.27726  0.73202  0.64988  1.0000
  I   I355      1.0  0.73059  0.73138  0.09891  1.0000
  I   I356      1.0  0.70522  0.90933  0.42059  1.0000
  I   I357      1.0  0.34134  0.39507  0.04538  1.0000
  I   I358      1.0  0.56093  0.92242  0.48724  1.0000
  I   I359      1.0  0.57724  0.80222  0.00451  1.0000
  I   I360      1.0  0.52456  0.78798  0.65734  1.0000
  I   I361      1.0  0.18754  0.53476  0.49897  1.0000
  I   I362      1.0  0.36672  0.07575  0.72215  1.0000
  I   I363      1.0  0.08557  0.36486  0.73185  1.0000
  I   I364      1.0  0.79041  0.58976  0.56014  1.0000
  I   I365      1.0  0.50714  0.78951  0.49540  1.0000
  I   I366      1.0  0.70379  0.53310  0.49682  1.0000
  I   I367      1.0  0.00263  0.25037  0.68509  1.0000
  I   I368      1.0  0.68175  0.43293  0.18308  1.0000
  I   I369      1.0  0.97354  0.98617  0.23493  1.0000
  I   I370      1.0  0.00079  0.69819  0.20281  1.0000
  I   I371      1.0  0.65610  0.65460  0.85148  1.0000
  I   I372      1.0  0.98045  0.57874  0.74741  1.0000
  I   I373      1.0  0.78136  0.21032  0.30451  1.0000
  I   I374      1.0  0.51357  0.33589  0.31618  1.0000
  I   I375      1.0  0.30801  0.91809  0.31482  1.0000
  I   I376      1.0  0.34156  0.78412  0.01766  1.0000
  I   I377      1.0  0.59734  0.38733  0.81837  1.0000
  I   I378      1.0  0.51867  0.69914  0.10804  1.0000
  I   I379      1.0  0.06831  0.41455  0.00807  1.0000
  I   I380      1.0  0.84014  0.13719  0.50745  1.0000
  I   I381      1.0  0.01385  0.46985  0.36906  1.0000
  I   I382      1.0  0.52610  0.34927  0.01669  1.0000
  I   I383      1.0  0.51308  0.11173  0.64314  1.0000
  I   I384      1.0  0.44188  0.19347  0.47353  1.0000
